11
Coordinates from ORCA-job run
  C   -0.79693899937619      0.22342710967497     -0.46115047146394
  C   0.52820128775769      0.24827589524668     -0.27766824324763
  H   -1.27752657382430      0.84327052137649     -1.21066087790375
  N   -1.75543176916348     -0.53513625963752      0.34209564695933
  O   -1.84137499210227     -1.73748880287677      0.13192489306307
  O   -2.47157504859055      0.15397807694210      1.06241176383328
  C   1.38896692255195      0.99492667792382     -1.13168488489414
  N   2.11107870148347      1.56680484820482     -1.86231802288220
  N   1.20706612943246     -0.43433606766289      0.85174267061252
  O   0.72828234680074     -1.48484814954765      1.25289753657681
  O   2.17725199503049      0.16112615035595      1.30240998934664
