11
Coordinates from ORCA-job run
  C   -0.71732838575414     -0.49282740811474      0.15434016865250
  C   0.50348969460339      0.03919845929816     -0.00521716373097
  H   -0.87494124426582     -1.47249129848921      0.58635661311781
  N   -1.93257817422612      0.21706205706479     -0.20544756097754
  O   -1.87992463189659      1.06015791760813     -1.09697317478903
  O   -2.92422834812067     -0.10949617398970      0.44673603946361
  C   0.82615333736264      1.32233544005075     -0.52601100813214
  N   1.12536113945192      2.38356267210374     -0.94053183004871
  N   1.67066901144514     -0.78533397195107      0.42590429870203
  O   1.44205989053758     -1.93546652474366      0.77281555562899
  O   2.76126771086266     -0.22670116883716      0.38902806211345
