11
Coordinates from ORCA-job run
  C   -0.83434393465197      0.28728875615780     -0.44668241401917
  C   0.49619131149691      0.28207057919835     -0.28508654819295
  H   -1.32875973556767      0.83061554204158     -1.24231622857965
  N   -1.72564558293183     -0.49023472060930      0.40145262758896
  O   -1.40052457959315     -0.66747455563933      1.57183124533535
  O   -2.74356648613170     -0.89470914825991     -0.15634467109876
  C   1.37119667206623      1.03544670915492     -1.11501217422979
  N   2.10214780527122      1.65897983562605     -1.79592843556835
  N   1.17983158872783     -0.49878290733134      0.77400884944003
  O   1.10781342741719     -1.71561517877717      0.68797561122537
  O   1.77465951389693      0.17341508843835      1.60510213809896
