11
Coordinates from ORCA-job run
  C   -0.78853368738055      0.17998876494775     -0.56612360140783
  C   0.51846333206640      0.25379438368521     -0.28191127658982
  H   -1.22470480362620      0.60044566549303     -1.46340806832876
  N   -1.73300797538270     -0.49953892824498      0.31042033926516
  O   -2.67539284711771     -1.04119987760595     -0.26172066795518
  O   -1.51895686552915     -0.46142198287361      1.51968030251885
  C   1.44486276804116      0.93650835271021     -1.11676819084880
  N   2.20907385236272      1.49611050883986     -1.81574218640682
  N   1.10859071999951     -0.35044025440583      0.93511078539792
  O   1.06677261800309     -1.56921388307147      1.02035382955580
  O   1.59383288856343      0.45296725052577      1.72010873479949
