11
Coordinates from ORCA-job run
  C   -0.72893978659073      0.08144129156037     -0.65073271335971
  C   0.50856928733817      0.31812052734146     -0.18985908371707
  H   -1.08576085226921      0.47429473695224     -1.59464291944863
  N   -1.70638498186295     -0.72830255198162      0.06070489878876
  O   -1.39438157717389     -1.18714180577205      1.15653239962581
  O   -2.78005466413365     -0.87747691195771     -0.52240015195951
  C   1.43742778600840      1.11300818542447     -0.91638042104893
  N   2.21083729849966      1.76769194548877     -1.51673443053723
  N   1.03669782929045     -0.20539033749745      1.09118007921536
  O   0.91146607270034      0.53718558795381      2.05314835644811
  O   1.59052358819341     -1.29243066751230      1.02918398599304
