11
Coordinates from ORCA-job run
  C   -0.84467762155451      0.36956612997924     -0.35270710687320
  C   0.49041820202395      0.33628733653624     -0.24513567921906
  H   -1.36801209738500      1.02782631350898     -1.03398487153372
  N   -1.70241391094252     -0.54359301451163      0.38739849198465
  O   -1.40007521776194     -0.80366737764057      1.54837761516644
  O   -2.67799477506877     -0.95344949265891     -0.23595736127833
  C   1.34004800459062      1.20824240632919     -0.97978524916428
  N   2.04379852404762      1.92801764815523     -1.59010852026046
  N   1.18955296815902     -0.62819533501838      0.63626720558735
  O   1.90177510110106     -0.13066383172685      1.49559347372594
  O   1.02758082279050     -1.81037078295254      0.37104200186468
