11
Coordinates from ORCA-job run
  C   -0.83466859273802      0.41148420117700     -0.28275073464396
  C   0.49419286682802      0.39139225669608     -0.11945945135196
  H   -1.35121067435423      1.27032712756542     -0.69512062521364
  N   -1.70600569571033     -0.69734217417664      0.08698630151655
  O   -2.65207214699855     -0.38379462728720      0.80314703281563
  O   -1.45936267309703     -1.80187078153539     -0.38777979670340
  C   1.32138188398446      1.48493003175164     -0.50136844575814
  N   1.98620059284137      2.40613379689010     -0.81026377332050
  N   1.21776076514292     -0.76153185892257      0.48326064619080
  O   2.30778165230614     -1.01374232990965     -0.00959505475057
  O   0.67600202179526     -1.30498564224878      1.43394390121918
