11
Coordinates from ORCA-job run
  C   -0.80191297563464      0.56415545801266      0.03190166438227
  C   0.51964702920327      0.34291789858860      0.09398348618536
  H   -1.23707984206081      1.54584399405774      0.17190790506405
  N   -1.77734045980397     -0.48917432715627     -0.20352752113123
  O   -1.36581336031026     -1.60041808256777     -0.52726334884377
  O   -2.95162477090890     -0.15174090949204     -0.05497857227157
  C   1.44521796792440      1.39815911481544      0.32281761506714
  N   2.21471986971069      2.26983335974617      0.51006018691924
  N   1.15046746470762     -0.98620672588710     -0.07764318186927
  O   1.21323500459263     -1.67972763375293      0.92626473010770
  O   1.59048407257997     -1.21364214636449     -1.19452296360993
