11
Coordinates from ORCA-job run
  C   -0.72924707208925     -0.48423023340524      0.11392443046935
  C   0.49518015787781      0.06167593486026      0.06172821365240
  H   -0.90214367958505     -1.48327493083278      0.49124317477604
  N   -1.91653752902219      0.19007847020569     -0.38893943564506
  O   -2.87688587158482     -0.55375786266611     -0.59299868296285
  O   -1.87620468573089      1.40482984326118     -0.56645619130525
  C   0.86245080623492      1.33841609003267     -0.44007316173276
  N   1.22275206918427      2.37816074836919     -0.86013925491215
  N   1.62933849498224     -0.75682870434808      0.59612137910934
  O   1.37157182993612     -1.89430557583726      0.96283093751273
  O   2.72072547979683     -0.20076377963952      0.62175859103821
