11
Coordinates from ORCA-job run
  C   -0.74574680458013     -0.41570547886723      0.23118319991405
  C   0.49981560142716      0.04241782683902      0.03730378563368
  H   -0.95255095570745     -1.31851179673188      0.79027906602661
  N   -1.91479836900910      0.22103495069907     -0.35656994449421
  O   -2.88447355509047     -0.52495130507674     -0.49527578853893
  O   -1.85014033002628      1.41005439630536     -0.65778838768188
  C   0.89968995268432      1.18344432302064     -0.70797665628022
  N   1.27660505287096      2.10957321975877     -1.33040623590101
  N   1.61676357883148     -0.72134621945218      0.67468839265931
  O   1.32329496523214     -1.75624832519303      1.25594809054897
  O   2.73254086336737     -0.22876159130178      0.55861447811363
