11
Coordinates from ORCA-job run
  C   -0.86922907485938      0.44762484702142      0.06208115545161
  C   0.47002503255997      0.43908030125130      0.07121874554209
  H   -1.45319895267822      1.35266006263707      0.17622665045649
  N   -1.66421442659590     -0.76287907068704     -0.12257442043120
  O   -2.50927039411308     -0.68660288717323     -1.00829911375759
  O   -1.44820039351675     -1.70820646834119      0.62744959155294
  C   1.24314804114479      1.61591244727542      0.27404737442983
  N   1.87737555761592      2.59483742737897      0.43061584713772
  N   1.25566356539489     -0.80190203120291     -0.12401470271049
  O   2.23546234142922     -0.92063863125154      0.60200510254711
  O   0.86243870361853     -1.57188599690827     -0.98975623021850
