11
Coordinates from ORCA-job run
  C   -0.71941185694754     -0.47781771853800      0.22834002680574
  C   0.49626417318679      0.06744061617199      0.07878447692484
  H   -0.88076853496332     -1.42455030191377      0.73369353602833
  N   -1.89894522268346      0.14830385277690     -0.35087268763523
  O   -2.11482697677181      1.32857216690280     -0.08418542270525
  O   -2.59289560308052     -0.59046355566107     -1.04314541425682
  C   0.79368360531777      1.27974411660263     -0.60005245123170
  N   1.05824468544608      2.27505540444832     -1.16985996033085
  N   1.66572026876569     -0.68297491263018      0.61562441381624
  O   1.43242588878662     -1.59496926014459      1.39448945804446
  O   2.76150957294371     -0.32834040801503      0.19618402454024
