11
Coordinates from ORCA-job run
  C   -0.83881346597759      0.48518901777154      0.14879413471340
  C   0.49589239667798      0.40877452900611      0.06355842995444
  H   -1.36738819839877      1.40914999679400      0.34976211652514
  N   -1.70785669822317     -0.66990497607350     -0.06095229921493
  O   -2.63802637060073     -0.47050842162325     -0.83537062213001
  O   -1.46548222224778     -1.69386288419889      0.56911600134934
  C   1.34463975321758      1.52783998030402      0.28718271819650
  N   2.03459299162199      2.46730979676239      0.45675037006375
  N   1.20360382530919     -0.85413003458910     -0.25057236780718
  O   0.75052183660325     -1.52600458797390     -1.16742706115718
  O   2.18931615201805     -1.08485241617944      0.43915857950674
