11
Coordinates from ORCA-job run
  C   -0.84387002462564      0.38809261851771      0.31894783470931
  C   0.48167753652590      0.39951961164386      0.12459699257366
  H   -1.36984869086008      1.19596860643809      0.80957775688878
  N   -1.69203756275729     -0.72369057469052     -0.08440909193854
  O   -2.65991850001241     -0.92078784367548      0.64680889941120
  O   -1.38696731137757     -1.34751424101974     -1.09711866070258
  C   1.29800760497299      1.49602563802154      0.51591517896406
  N   1.97541012375042      2.39785899126671      0.85494316530298
  N   1.21495488666543     -0.70566522284823     -0.53690914274549
  O   1.78524346561402     -0.38764958437681     -1.57176244804207
  O   1.19834847210425     -1.79315799927714      0.01940951557869
