11
Coordinates from ORCA-job run
  C   -0.90251338347958      0.34535813664763      0.21535441781000
  C   0.43246541146499      0.44445911951028      0.15004329783721
  H   -1.52778657806330      1.11415563304660      0.65359040872399
  N   -1.61497721820006     -0.83821036628112     -0.24695718415791
  O   -1.16341120823397     -1.44002065422584     -1.21661151001615
  O   -2.62394053849266     -1.11477385293799      0.39831025658985
  C   1.13830708530438      1.59300012505397      0.59975162170822
  N   1.71107153352109      2.54619091114224      0.98762069818834
  N   1.29831175742757     -0.63380321353044     -0.38970025292422
  O   1.29811159911572     -1.69162742176436      0.22219867020704
  O   1.95336153963584     -0.32272841666096     -1.37460042396637
