11
Coordinates from ORCA-job run
  C   -0.80638723973810      0.55764596758810      0.03519277407221
  C   0.51743479683551      0.34676492115258      0.08637887738893
  H   -1.24665696240675      1.53820095671075      0.16772150861214
  N   -1.77722351736297     -0.50214229102803     -0.19007383382359
  O   -1.35956385752582     -1.63741882476406     -0.40338451799342
  O   -2.95461725249811     -0.14621661311419     -0.14380495399167
  C   1.43619896688177      1.40886951726641      0.31071216836926
  N   2.20293742285298      2.28340918461995      0.49642454430467
  N   1.15928892462788     -0.97745174770739     -0.08245015815822
  O   1.52197336473759     -1.24369899266585     -1.21825755373801
  O   1.30761535359602     -1.62696207805828      0.94154114495768
