11
Coordinates from ORCA-job run
  C   -0.75734492401913     -0.33630184832215      0.31008017899880
  C   0.50238795529255      0.01842475832074      0.01647394802755
  H   -0.99040028614996     -1.14997539889671      0.98385053909850
  N   -1.91353285598389      0.29523092860418     -0.30824359694428
  O   -1.79377732253128      1.42988337951094     -0.76290580235841
  O   -2.93088856273858     -0.39839210978752     -0.31034162949310
  C   0.93277871312544      1.03377890070933     -0.87870530600828
  N   1.33500162438710      1.85397869419098     -1.62210082157737
  N   1.60179837892482     -0.73594888181833      0.69476205050929
  O   1.27303242235622     -1.63565562490714      1.45461458754223
  O   2.74094485733671     -0.37502279760433      0.42451585220509
