11
Coordinates from ORCA-job run
  C   -0.75166601306154     -0.25308280459128      0.38784678120671
  C   0.50199571949665     -0.01258431873290     -0.02464236240949
  H   -0.96778699893804     -0.82375572959636      1.28136496025296
  N   -1.92143613237539      0.28822817222652     -0.28723182307481
  O   -1.80545149609170      0.68453436520676     -1.44411091967715
  O   -2.94679700655201      0.29338114199779      0.39501688829574
  C   0.92183867621961      0.74865306380334     -1.14746260941901
  N   1.32242526695945      1.38497927492049     -2.05405079916638
  N   1.61050234570418     -0.62076930592953      0.77619584934452
  O   1.30640905325806     -1.15532158238689      1.83293629851747
  O   2.72996658538075     -0.53326227691793      0.28613773612943
