11
Coordinates from ORCA-job run
  C   -0.83768074531260      0.24107404705835     -0.44440687284339
  C   0.49394814087262      0.23392543435017     -0.32770058835073
  H   -1.34442564559383      0.74622267965970     -1.25585391236973
  N   -1.71245954174896     -0.41511102558134      0.50768238725180
  O   -1.36868545430561     -1.49337733873059      0.98054858290195
  O   -2.75834382246686      0.19484746990756      0.74050180664135
  C   1.34661852541094      0.87318938935192     -1.26677736516576
  N   2.03739745540436      1.43403688149888     -2.03586314312042
  N   1.19936395772045     -0.44870968704975      0.77333821128305
  O   0.92597264342303     -0.08350475537055      1.91063890591450
  O   2.02029448659644     -1.28359309509435      0.41689198785738
