11
Coordinates from ORCA-job run
  C   -0.71484120877356     -0.51258897272013     -0.06852552626731
  C   0.49498822885975      0.04960572409414      0.07478661505271
  H   -0.85428567440019     -1.58465445109474     -0.10582308661926
  N   -1.93353011931645      0.26405009252127     -0.24016679699413
  O   -2.89592059055810     -0.38354662814336     -0.65529455350140
  O   -1.91562866989163      1.46194586349674      0.03055799561478
  C   0.81994621265102      1.43171426173054      0.10601046303820
  N   1.14662059055213      2.56321167466632      0.12781238979701
  N   1.66416266594359     -0.87642659578554      0.21016884960825
  O   1.42838908506475     -2.07596349272170      0.20896106829122
  O   2.76009947986871     -0.33834747604354      0.31251258197992
