11
Coordinates from ORCA-job run
  C   -0.78042389474894      0.30953496209761     -0.51206445078315
  C   0.52038495222349      0.32302780308846     -0.19110211125260
  H   -1.20379137516624      0.95613921467205     -1.27210516476074
  N   -1.74162719486736     -0.56635876773573      0.14447781484239
  O   -1.37783815150279     -1.69937260720621      0.44505228341162
  O   -2.85286298036473     -0.07148595760557      0.31847379687053
  C   1.46160091517767      1.15595176959647     -0.85666880071301
  N   2.24141493601239      1.84225779828630     -1.41139206575062
  N   1.09752102144152     -0.54412837234962      0.86179812324216
  O   0.62327388933331     -0.44002339901834      1.98403448372506
  O   2.01334788246167     -1.26554244382542      0.48849609116835
