11
Coordinates from ORCA-job run
  C   -0.72728032334048     -0.34643347640666      0.35930742461758
  C   0.50061931665215      0.00516457702540     -0.05094871886392
  H   -0.90218793199937     -1.20538767674681      0.99344951975080
  N   -1.93159828918583      0.35231752736050     -0.06356651088235
  O   -2.97379090190132     -0.28319634108440      0.10123553395062
  O   -1.82466367696166      1.48135630706386     -0.53528261841734
  C   0.86332410210361      1.08000335053982     -0.90532763612271
  N   1.21442716181426      1.94539514918043     -1.62292725751382
  N   1.64588777239076     -0.81550807250405      0.45270823643660
  O   1.37247382822191     -1.84154193615251      1.05929345019023
  O   2.76278894220596     -0.37316940827557      0.21205857685431
