15
Coordinates from ORCA-job run
  C   -0.89153284746673      0.12061222622217     -0.32958233920911
  C   0.64457011078596      0.05817697100488     -0.51110522892755
  H   -1.31593202517477      0.65338171462257     -1.19360370421565
  H   0.82728478214247     -0.61234135881276     -1.36064963797629
  C   -1.22557868487380      0.90654297496504      0.86397002204539
  N   -1.50853545661756      1.52629961959449      1.81994557876594
  N   -1.40288748314553     -1.24011581225397     -0.17193049159931
  H   -1.43613997636667     -1.68919980231709     -1.08016079244925
  H   -2.34595814693336     -1.22233107054592      0.19725833776699
  C   1.36058966924178     -0.48431208165523      0.72638076240069
  H   0.91828505480566     -1.44036299634821      1.00447921989073
  H   2.42262311895050     -0.62409970736693      0.51804878680994
  H   1.26232684267193      0.21112781819345      1.56183454424194
  C   1.14671287080151      1.38303754550142     -0.88261619975080
  N   1.54317217117862      2.45158395919608     -1.16526885779364
