15
Coordinates from ORCA-job run
  C   -0.84378313660144     -0.24046497597683     -0.27158187590433
  C   0.62392924978146      0.20110968204812     -0.47088691746238
  H   -0.95709389461174     -1.20969135387511     -0.76924552016931
  H   0.77204427690477      0.42060394435224     -1.53433064902508
  C   -1.75125033107903      0.71297580427638     -0.94485430741402
  N   -2.49128214689533      1.47478033913707     -1.44756128219910
  N   -1.11993005373901     -0.42917120637347      1.14320427732976
  H   -1.15892065439300      0.46961411036105      1.61242327741564
  H   -2.01718183111604     -0.88184023462748      1.26813487171453
  C   1.59802025679731     -0.89057781876832     -0.02281711211968
  H   2.62972837768617     -0.55577636478097     -0.14129289478977
  H   1.45351080632515     -1.78475981493424     -0.63409420571524
  H   1.41937702130729     -1.14499256454952      1.02078490553804
  C   0.84468279962629      1.44247682813863      0.27651971395532
  N   0.99814926000718      2.41571362557244      0.91559771884565
