15
Coordinates from ORCA-job run
  C   -0.78004686997756     -0.24242786151979     -0.42124164065991
  C   0.69357276908738      0.21693928948563     -0.35097656598621
  H   -0.79160563325336     -1.20030736632644     -0.95256442709976
  H   1.02383897490473      0.45881155378280     -1.36758495231159
  C   -1.56940379080460      0.71830894886981     -1.22043269049326
  N   -2.21974430324604      1.48648900595665     -1.82665029835838
  N   -1.29675524473086     -0.46904797332599      0.91929807176566
  H   -2.19651991649289     -0.93227888342758      0.87390881417623
  H   -1.43081309651912      0.41813026795952      1.39391217757320
  C   1.58820818265948     -0.87369452384123      0.24209834344246
  H   2.62189587909296     -0.52986602465893      0.30316516892197
  H   1.23908766284934     -1.14327933183695      1.23742633830521
  H   1.55699352417764     -1.76085100460474     -0.39467621073200
  C   0.76548096996005      1.44538590985340      0.44539715819101
  N   0.79580948866366      2.40769591432333      1.11793501792199
