15
Coordinates from ORCA-job run
  C   -0.90267405114639      0.21198849129873     -0.03544009380095
  C   0.57841825942024     -0.25993446231854     -0.11755599061138
  H   -0.89881941909970      1.30841125997877     -0.01623535742557
  H   0.57882271738696     -1.35685802315884     -0.09421145202641
  C   -1.46183539890014     -0.25139295121247      1.24256816651465
  N   -1.86773089029787     -0.65732924649970      2.26650132801942
  N   -1.77439727643394     -0.20407215090492     -1.11788930374971
  H   -1.78511715986272     -1.21340443740731     -1.20459626114963
  H   -1.45636966304348      0.19367214205576     -1.99363421538910
  C   1.44020077185735      0.28291325456551      1.02483977563696
  H   1.05806300694785     -0.07054619271265      1.98393657865474
  H   2.47325107707858     -0.05189388781286      0.91995927957408
  H   1.43303021126896      1.37532117985728      1.02395067179194
  C   1.09994393543212      0.16056486275526     -1.41925558380277
  N   1.48321387939217      0.53356016151596     -2.46493754223627
