15
Coordinates from ORCA-job run
  C   -0.83968878578234     -0.21673982260432     -0.28281838871295
  C   0.63974003336170      0.18386207600326     -0.49695849207977
  H   -0.97631265550132     -1.19641505607995     -0.76077178858723
  H   0.83291792163786      0.22413729232697     -1.57607282255845
  C   -1.71970842429623      0.72523775839299     -0.98476525874959
  N   -2.42659392531643      1.48295192655642     -1.53715087255595
  N   -1.14706635104981     -0.26882851222590      1.14463579799517
  H   -1.97228250810850      0.26553318638391      1.37627755871813
  H   -1.28332575405309     -1.22224246897921      1.44908222053003
  C   1.57050728422459     -0.83495033372863      0.16128834164073
  H   1.38942487766481     -1.83092778728020     -0.25279077600567
  H   2.61465656129944     -0.57485064376853     -0.01855424632397
  H   1.39588932606128     -0.85459678863024      1.23706046056953
  C   0.86464810622382      1.52366735755728      0.04992487864903
  N   1.05719429363423      2.59416181607616      0.49161338747096
