17

C	0.0	0.0	0.0
C	-0.304624	0.091302	-1.549795
Cl	1.761278	0.0	0.0
H	0.530877	-0.447709	-2.003266
C	-0.654917	1.045742	0.768001
N	-0.70362	2.041716	1.414781
N	-0.39098	-1.33663	0.580463
O	-0.510575	-1.413029	1.802676
O	-0.320337	-2.307115	-0.181871
N	-0.120047	1.507365	-1.878857
H	-0.184749	1.602384	-2.887678
H	-0.904143	2.019056	-1.480291
C	-1.566212	-0.500444	-2.18357
H	-1.352004	-0.594152	-3.263035
H	-2.426535	0.15199	-2.046393
H	-1.807049	-1.487562	-1.795495
H	-2.050846	0.0	0.0
