17

C	0.0	0.0	0.0
C	-0.284846	0.02945	-1.55511
Cl	1.761438	0.0	0.0
H	0.469789	-0.655087	-1.95071
C	-0.494209	1.176311	0.702397
N	-0.608489	2.227214	1.230135
N	-0.563068	-1.215415	0.635353
O	-0.521698	-2.249032	-0.07204
O	-0.617502	-1.22961	1.880534
N	0.080082	1.377774	-2.003551
H	0.122792	1.371249	-3.016842
H	-0.671546	2.010296	-1.741359
C	-1.61842	-0.435423	-2.139096
H	-1.434459	-0.614051	-3.212715
H	-1.961958	-1.363641	-1.68825
H	-2.393468	0.323644	-2.043419
H	-2.010522	0.0	0.0
