17

C	0.0	0.0	0.0
C	-0.291628	0.030128	-1.554146
Cl	1.761298	0.0	0.0
H	0.498398	-0.604964	-1.962144
C	-0.520501	1.151811	0.717557
N	-0.617693	2.191745	1.271502
N	-0.505756	-1.244596	0.638668
O	-0.453574	-2.268654	-0.072339
O	-0.577658	-1.260459	1.87755
N	0.00554	1.402369	-1.978823
H	-0.770421	1.992487	-1.689106
H	0.028042	1.418092	-2.993099
C	-1.597696	-0.498036	-2.148273
H	-1.393656	-0.67723	-3.218335
H	-1.907372	-1.436601	-1.694958
H	-2.405521	0.225797	-2.063949
H	-2.023716	0.0	0.0
