12

C	-0.351046	0.068027	-1.479688
C	0.0	0.0	0.0
Cl	-0.241166	-1.674799	-2.165824
H	1.091955	0.0	0.0
H	-0.351566	0.910864	0.490001
H	-0.414627	-0.88134	0.482896
C	-1.750301	0.437942	-1.742007
N	-2.863235	0.75784	-1.939839
N	0.526544	0.967109	-2.1154
H	1.485894	0.808029	-1.806345
H	0.457152	0.940543	-3.123909
Cl	3.461057	0.0	0.0
