12

C	-0.379506	0.268951	-1.448032
C	0.0	0.0	0.0
Cl	-0.259154	-1.347632	-2.37988
H	1.089962	0.0	0.0
H	-0.408509	-0.940285	0.363598
H	-0.348853	0.832863	0.614989
C	-1.7879	0.656957	-1.624456
N	-2.907194	0.992177	-1.745409
N	0.468126	1.272059	-1.964222
H	0.382878	1.378848	-2.966127
H	1.435715	1.089609	-1.695939
Cl	3.462934	0.0	0.0
