15

C	0.0	0.0	0.0
C	-0.455686	0.041058	-1.478448
Cl	1.779757	0.0	0.0
H	0.002087	-0.80187	-1.982968
H	-0.168523	1.000398	-1.902255
N	-0.323826	1.249619	0.772745
H	-1.347885	1.308204	0.691928
H	-0.183548	0.941126	1.747184
N	-0.593364	-1.182415	0.596343
O	-0.627438	-2.255094	-0.165653
O	-0.417582	-1.303073	1.910562
N	-1.947591	-0.046675	-1.533639
H	-2.374108	0.435665	-2.33666
H	-2.221448	-1.030521	-1.478977
H	-1.722718	0.0	0.0
