15

C	0.0	0.0	0.0
C	-0.224683	0.110121	-1.53788
Cl	1.819566	0.0	0.0
H	0.257008	-0.783262	-1.943339
H	0.331374	0.99134	-1.870749
N	-0.359209	1.145637	0.807717
H	0.437338	1.443905	1.355641
H	-0.682229	1.895106	0.21363
N	-0.712731	-1.203435	0.481737
O	-0.801335	-2.170611	-0.355282
O	-0.661618	-1.406227	1.719714
N	-1.605577	0.259438	-2.013335
H	-1.561246	0.337018	-3.029868
H	-2.067856	-0.619594	-1.801236
H	-1.88247	0.0	0.0
