15

C	0.0	0.0	0.0
C	-0.481873	-0.13141	-1.425119
Cl	1.875199	0.0	0.0
H	-0.065992	-1.0444	-1.857958
H	-1.573763	-0.242549	-1.295422
N	-0.598549	1.021474	0.68836
H	-1.639843	0.859224	0.505263
H	-0.423548	0.919153	1.683394
N	-0.213537	-1.396702	0.718989
O	-0.217383	-2.41965	0.043884
O	-0.32906	-1.358016	1.939013
N	-0.19806	1.082435	-2.181612
H	-0.88743	1.174361	-2.915465
H	0.718489	1.020275	-2.605607
H	-3.011393	0.0	0.0
