15

C	0.0	0.0	0.0
C	-0.26812	-0.015934	-1.510158
Cl	1.847404	0.0	0.0
H	0.219499	-0.903915	-1.919587
H	-1.347116	-0.114487	-1.622386
N	-0.376975	1.221519	0.621829
H	-0.079327	1.185759	1.589566
H	0.059426	1.979264	0.112881
N	-0.651667	-1.131725	0.670181
O	-0.60765	-1.078143	1.939901
O	-0.58546	-2.229485	0.031625
N	0.173094	1.24739	-2.117273
H	1.138726	1.163524	-2.407114
H	-0.385463	1.425817	-2.941332
H	-2.179354	0.0	0.0
