15

C	0.0	0.0	0.0
C	-0.453884	-0.084163	-1.44109
Cl	1.873196	0.0	0.0
H	-0.025458	-0.983325	-1.892144
H	-1.548299	-0.199751	-1.34772
N	-0.620565	0.982644	0.714923
H	-1.670274	0.804283	0.501444
H	-0.464813	0.843015	1.707728
N	-0.220137	-1.429297	0.658984
O	-0.360286	-1.438686	1.877329
O	-0.21696	-2.424984	-0.056242
N	-0.14447	1.153513	-2.146939
H	-0.754029	1.223245	-2.953601
H	0.816105	1.126669	-2.472326
H	-2.981493	0.0	0.0
