15
Coordinates from ORCA-job run
  C   0.72469712758299     -0.40398476590307      0.42452797734569
  C   -0.49864003914583     -0.20022091825162     -0.49177602509200
  Cl  1.09013553720253     -2.12532501456880      0.64015130227645
  H   -0.23238562610082     -0.67229089053321     -1.44545075752435
  C   0.52644967687859      0.23493235828574      1.71583633648006
  N   0.31725747244378      0.74469594621894      2.75351562331184
  N   1.92002443471219      0.24110277120768     -0.28749819245312
  O   2.14344678406660     -0.18060552662883     -1.41189535714652
  O   2.52624534146547      1.11524948051065      0.31202865409813
  N   -0.60730590063957      1.21911169750383     -0.69957673277860
  H   -1.00292233008047      1.44241674379690     -1.60154160716552
  H   -1.15793351219830      1.64485549539814      0.03705795998807
  N   -1.66179755770305     -0.75850563597508      0.17355489004344
  H   -1.59953676846282     -1.76725555446818      0.24661595204211
  H   -2.48773464002130     -0.53317618659310     -0.36755002342569
