15
Coordinates from ORCA-job run
  C   0.72391567950258     -0.39633676517250      0.39061667482011
  C   -0.63764416811856      0.18615876644418     -0.06821426421977
  Cl  0.95684326124474     -2.04132047326717     -0.16216291106754
  H   -0.72913638690336      1.14225018132611      0.45985773522003
  C   0.85339429514441     -0.32123887724616      1.83957400511362
  N   0.95387581775789     -0.23996271693431      3.00753153238812
  N   1.81413444798359      0.52533881209778     -0.20445465629250
  O   1.65280984472225      1.70706981466534      0.08482690798492
  O   2.69536881817651      0.04892035581151     -0.89400638173864
  N   -1.66382674474150     -0.68687026140406      0.42325541967226
  H   -1.73424601935077     -1.52180744693749     -0.14519966741254
  H   -2.55853238314491     -0.21849179307778      0.45874775864948
  N   -0.59515625078184      0.32674350600404     -1.51508007355419
  H   -0.19934109810279      1.21910839068932     -1.78693072946583
  H   -1.53345911338825      0.27143850700121     -1.88736135009754
