15
Coordinates from ORCA-job run
  C   0.76193387303994     -0.40163650718676      0.41139971366541
  C   -0.49185952566312     -0.32021064937094     -0.48600420892296
  Cl  1.36227215940314     -2.05736324004074      0.53430718119142
  H   -0.26012361780263     -0.89746076465793     -1.38716879674678
  C   0.47838895514514      0.14271106287121      1.73113646608504
  N   0.15408308469259      0.54553892248974      2.78600163448838
  N   1.87804329521123      0.42186665115573     -0.23452019358190
  O   1.95890038219275      0.32970512024977     -1.45388164374088
  O   2.61314748430021      1.05848861127392      0.50541508803115
  N   -0.71765965083357      1.09798166085468     -0.73505680177161
  H   -0.23323515669863      1.41063226528929     -1.56723554415690
  H   -1.70690644821526      1.27351693051849     -0.84769940831055
  N   -1.56001016654875     -0.97373771185170      0.21471164380891
  H   -1.93646218794786     -0.37905918092363      0.94420431885159
  H   -2.29951248027517     -1.25197317067112     -0.41460944889033
