17

C	-0.094716	-0.068162	-1.533014
C	0.0	0.0	0.0
F	-1.398072	-0.416717	-1.955473
H	1.097795	0.0	0.0
C	0.256832	1.260849	-2.170359
H	0.281631	1.150398	-3.259062
H	1.252006	1.528742	-1.807273
H	-0.459114	2.042814	-1.909196
N	0.799735	-1.140251	-1.903496
H	0.995899	-1.08101	-2.896573
H	1.677724	-0.946122	-1.393149
N	-0.506276	-1.183521	0.687054
H	0.170252	-1.918947	0.515251
H	-1.367977	-1.468663	0.229194
C	-0.583741	1.211713	0.553293
N	-1.058452	2.194901	0.98976
F	2.653726	0.0	0.0
