17

C	-0.101499	0.012636	-1.530022
C	0.0	0.0	0.0
F	-1.431627	-0.173065	-1.939094
H	1.094856	0.0	0.0
C	0.418921	1.319879	-2.07706
H	1.433704	1.440897	-1.691041
H	-0.204807	2.158514	-1.756884
H	0.431456	1.263962	-3.166713
N	0.683168	-1.076339	-2.060034
H	0.347019	-1.905402	-1.573342
H	1.617943	-0.907893	-1.661183
N	-0.470888	-1.271376	0.545858
H	-1.448401	-1.216518	0.800034
H	0.070364	-1.483101	1.373656
C	-0.577987	1.166958	0.653042
N	-1.052484	2.08117	1.22256
F	2.640937	0.0	0.0
