17

C	-0.357715	-0.051903	-1.482173
C	0.0	0.0	0.0
F	0.016839	1.211072	-2.017018
H	1.096318	0.0	0.0
C	0.507546	-1.084512	-2.165255
H	0.447312	-0.963294	-3.252123
H	0.184322	-2.083494	-1.878197
H	1.527661	-0.91208	-1.808621
N	-1.760764	-0.248116	-1.698577
H	-1.936291	-0.305207	-2.696016
H	-2.25157	0.5678	-1.344817
N	-0.389227	-1.252338	0.646158
H	0.217071	-1.385192	1.44667
H	-1.354926	-1.234241	0.94923
C	-0.584217	1.185914	0.625206
N	-1.114505	2.106377	1.133072
F	2.618847	0.0	0.0
