17

C	-0.17965	0.00061	-1.529902
C	0.0	0.0	0.0
F	0.03952	-1.377276	-1.912995
H	1.103268	0.0	0.0
C	-1.559062	0.322157	-2.0543
H	-2.284751	-0.347668	-1.590643
H	-1.5879	0.181655	-3.138687
H	-1.813761	1.356033	-1.81927
N	0.844433	0.832063	-2.033544
H	1.722577	0.615506	-1.529823
H	0.947166	0.718695	-3.032959
N	-0.655972	-1.161977	0.622367
H	-0.211287	-1.96514	0.191393
H	-0.362669	-1.169464	1.595095
C	-0.515193	1.235601	0.568833
N	-0.929478	2.215533	1.069827
F	2.675508	0.0	0.0
