17

C	-0.303853	-0.071856	-1.5017
C	0.0	0.0	0.0
F	-0.026721	1.214436	-2.029804
H	1.094523	0.0	0.0
C	0.665895	-1.023078	-2.171031
H	1.657443	-0.796132	-1.762583
H	0.402897	-2.057624	-1.943168
H	0.641095	-0.877058	-3.255356
N	-1.676091	-0.402111	-1.757812
H	-1.829869	-0.446614	-2.75935
H	-2.261557	0.337743	-1.381535
N	-0.392397	-1.21785	0.714657
H	-1.124917	-1.694192	0.201998
H	0.431489	-1.805431	0.75022
C	-0.633881	1.174475	0.588782
N	-1.179548	2.114801	1.036761
F	2.630842	0.0	0.0
