17

C	-0.366681	-0.05292	-1.47928
C	0.0	0.0	0.0
F	0.012262	1.207081	-2.018102
H	1.093817	0.0	0.0
C	0.486963	-1.09336	-2.16526
H	0.417545	-0.978433	-3.252074
H	1.512048	-0.926437	-1.819712
H	0.158881	-2.088787	-1.868984
N	-1.772285	-0.241485	-1.688157
H	-1.954107	-0.290408	-2.684826
H	-2.258221	0.573989	-1.326078
N	-0.384173	-1.250056	0.65415
H	0.249734	-1.394567	1.428804
H	-1.335092	-1.218219	0.996136
C	-0.57674	1.187174	0.629843
N	-1.097352	2.095896	1.167641
F	2.618219	0.0	0.0
