17

C	-0.377033	0.08983	-1.475733
C	0.0	0.0	0.0
F	-1.759541	0.496608	-1.590665
H	1.100604	0.0	0.0
C	0.473435	1.14059	-2.152729
H	0.187328	2.136581	-1.805776
H	1.507079	0.934263	-1.861259
H	0.352284	1.096008	-3.239535
N	-0.21345	-1.186516	-2.068986
H	-0.621475	-1.874436	-1.44467
H	-0.667826	-1.198756	-2.972495
N	-0.47729	-1.239621	0.624551
H	0.270642	-1.582168	1.214401
H	-1.292704	-1.072394	1.199713
C	-0.456466	1.186143	0.716714
N	-0.833857	2.093421	1.36378
F	2.606005	0.0	0.0
