16

C	-0.592096	0.02174	-1.413081
C	0.0	0.0	0.0
Br	0.378758	1.449648	-2.44305
H	1.093954	0.0	0.0
N	-0.291729	-1.245667	-2.19147
O	-0.938701	-1.402868	-3.222713
O	0.554039	-2.003843	-1.736952
N	-1.977128	0.183106	-1.372719
H	-2.374536	0.314967	-2.292146
H	-2.182801	0.948707	-0.740115
C	-0.511129	-1.164474	0.723482
N	-0.908121	-2.069703	1.358405
N	-0.480067	1.233546	0.67085
H	-0.543408	1.049555	1.66539
H	0.261475	1.916838	0.555265
Br	3.434774	0.0	0.0
