16

C	-0.374917	-0.059587	-1.485376
C	0.0	0.0	0.0
Br	-2.279458	-0.445376	-1.763549
H	1.095852	0.0	0.0
N	-0.136595	1.389954	-2.041409
O	-1.065172	2.1742	-2.157002
O	1.041253	1.612988	-2.29556
N	0.415202	-1.030387	-2.109607
H	1.395326	-0.903545	-1.851732
H	0.295778	-1.050683	-3.113311
C	-0.435122	-1.233271	0.670059
N	-0.803211	-2.158714	1.294429
N	-0.450891	1.218022	0.63519
H	-1.38914	1.121768	1.001683
H	0.186254	1.447159	1.387086
Br	3.40971	0.0	0.0
