16

C	-0.621514	0.253724	-1.37687
C	0.0	0.0	0.0
Br	0.080977	1.874186	-2.159644
H	1.096835	0.0	0.0
N	-0.191223	-0.874399	-2.35581
O	0.874432	-1.435091	-2.147036
O	-0.970674	-1.104844	-3.27909
N	-2.035891	0.338833	-1.289313
H	-2.425777	0.525389	-2.204785
H	-2.398165	-0.553586	-0.964364
C	-0.481074	-1.324287	0.44438
N	-0.963477	-2.330764	0.816621
N	-0.387941	1.075246	0.893417
H	-1.324948	0.953634	1.252833
H	0.282164	1.12325	1.650277
Br	3.443063	0.0	0.0
