16

C	-0.46895	-0.028771	-1.454624
C	0.0	0.0	0.0
Br	-2.456965	-0.20714	-1.557534
H	1.098412	0.0	0.0
N	-0.071669	1.229304	-2.190838
O	1.175432	1.529429	-2.080743
O	-0.668818	1.474072	-3.295739
N	0.171463	-1.069865	-2.205613
H	-0.107214	-1.961455	-1.79953
H	-0.151706	-1.065492	-3.173082
C	-0.417663	-1.242306	0.750035
N	-0.106758	-1.622638	1.837177
N	-0.459895	1.159044	0.742508
H	-1.468031	1.275741	0.645248
H	0.001729	1.990416	0.373466
Br	2.701456	0.0	0.0
