16

C	-0.58754	0.252701	-1.38887
C	0.0	0.0	0.0
Br	0.407182	1.69336	-2.291262
H	1.107007	0.0	0.0
N	-0.31151	-0.977274	-2.296191
O	-1.125402	-1.166857	-3.198732
O	0.687017	-1.640371	-2.066731
N	-1.951309	0.572341	-1.339104
H	-2.402017	0.370717	-2.222092
H	-2.408057	0.114477	-0.559915
C	-0.51003	-1.292474	0.479658
N	-0.972167	-2.2965	0.877108
N	-0.502692	1.046214	0.916789
H	-0.378785	1.936537	0.442905
H	0.150639	1.058457	1.695353
Br	3.44849	0.0	0.0
