18
Coordinates from ORCA-job run
  C   -0.75253481398904      0.14172311416861      0.39676758866521
  C   0.65796543481419     -0.46246780700871      0.27971845016063
  Br  -1.16499844011284      0.29283043985096      2.29400212511567
  H   0.61956452721701     -1.42057486051667      0.80098135000497
  C   -1.80528085042134     -0.71711239077794     -0.27077421516635
  H   -2.79714063106662     -0.30252297438404     -0.09665638879574
  H   -1.63833447620393     -0.76113812956851     -1.34692581810142
  H   -1.76108821481098     -1.72464046212187      0.14590072909109
  N   -0.78764928921009      1.56063962370884     -0.17662950510923
  O   -1.49087412327957      1.73830968648535     -1.16503199900071
  O   -0.10049788516829      2.40454803151333      0.38343275396744
  C   1.84834558746948      0.35623226829328      0.74263856411343
  H   1.71254147330455      0.67109957295346      1.77628204516814
  H   1.98701049430033      1.23750145326252      0.12111807100325
  H   2.74128270452665     -0.27046286078794      0.68100784088789
  N   0.86375391983681     -0.82772076386049     -1.16434436475403
  O   0.93137884898818      0.10723831090978     -1.95973118950247
  O   0.93555573380548     -2.02248225211996     -1.44175603774776
