18
Coordinates from ORCA-job run
  C   -0.68106926160963      0.43662741763580      0.05198659714733
  C   0.64898625810703     -0.26262569429508     -0.25497831597849
  Br  -0.52763412694094      2.05017485001370      1.12483096209042
  H   0.40988580444125     -1.07466777056353     -0.94731265994514
  C   -1.63057923837777     -0.51695573690730      0.75202331761430
  H   -1.25927592133890     -0.74998935411818      1.74830003684287
  H   -1.73039981407047     -1.43933312052368      0.17206557388068
  H   -2.61044956691191     -0.05512557403256      0.84479435837849
  N   -1.32683362263109      0.88652068446689     -1.26565068212895
  O   -2.54992835498229      0.90838523947971     -1.31384967578330
  O   -0.56337370918266      1.21294238731163     -2.16767081022090
  C   1.36090656294698     -0.79487059179939      0.98013444666336
  H   2.31737521042770     -1.22635353307028      0.67798214489325
  H   1.55044070099199      0.01131167435147      1.68900203506522
  H   0.77914183344389     -1.57910465585786      1.46299520197554
  N   1.66601287173643      0.55191675721010     -1.01183670604706
  O   2.06050295472469      1.58826228770767     -0.49176212042187
  O   2.08829141922570      0.05388473299088     -2.05005370402576
