18
Coordinates from ORCA-job run
  C   -0.76327009120923      0.12211328150025      0.43577447960941
  C   0.75162207701576     -0.13124465720396      0.47342043663602
  Br  -1.58100131198576     -0.56192836015640      2.06533153762381
  H   1.13880386361711      0.28772245314126      1.40024758615425
  C   -1.51350159034143     -0.40020117534493     -0.76479739956450
  H   -2.56438643487756     -0.12723071091808     -0.68963290873683
  H   -1.11200236219286      0.02891096495265     -1.68329721509412
  H   -1.42132488023220     -1.48355562682824     -0.80612215798238
  N   -0.89729297207786      1.65126843463404      0.51630066837490
  O   -0.23692138434690      2.21807098987885      1.37880187078334
  O   -1.64044187546380      2.19300296336665     -0.29421329309647
  C   1.48561088246173      0.42275630466129     -0.73606540014070
  H   1.33217058357058      1.50042389567669     -0.81436134245006
  H   2.55667203828220      0.24744061144725     -0.61578121836795
  H   1.15956534088702     -0.06136091166864     -1.65510251716874
  N   1.02507099457765     -1.60376300710186      0.57355923150033
  O   0.80070841959050     -2.28964129716137     -0.42259322728043
  O   1.48091870272505     -2.01178415287545      1.63853086920011
