16
Coordinates from ORCA-job run
  C   0.95929241081771      0.12346039521472      0.20542892067044
  C   -0.47803354495319      0.52819742106887     -0.17416701079625
  F   1.75211595202322      0.58177678100142     -0.87075874058595
  H   -0.53580129032563      1.61675857427994     -0.13105463581141
  N   1.06981776222527     -1.25577408613520      0.43907784819948
  H   0.74533678281983     -1.81366111895930     -0.33834971443002
  H   2.00337088228380     -1.52876285265366      0.71494290922677
  C   1.44452337754408      0.85709882030244      1.38991807349257
  N   1.87862234147662      1.44403481532657      2.30915727391192
  N   -1.38709482969906      0.03991927067776      0.91849292672331
  O   -1.97765288555961     -1.02057789695865      0.73987160803196
  O   -1.44833729684476      0.74320774537242      1.92438956473824
  C   -0.91669974723543      0.01036337793346     -1.52790761386851
  H   -0.91939969608941     -1.07778394162491     -1.57058405547694
  H   -1.93442883720581      0.34602517761368     -1.73195468371007
  H   -0.25563138127764      0.40671751754044     -2.29750267031556
