16
Coordinates from ORCA-job run
  C   0.96861809154132      0.11065373739967      0.16393153052928
  C   -0.46091624046080      0.51671040892448     -0.24244346172195
  F   1.75008395029760      0.36617934980705     -0.98520874196640
  H   -0.47403907624298      1.60085910763786     -0.36325534682556
  N   1.02948819636676     -1.22121337188680      0.60175579392807
  H   1.95821873124364     -1.49027603997150      0.89705648573310
  H   0.66227057345354     -1.87492856032791     -0.07541827242245
  C   1.51481293613428      0.99213778017950      1.21355430193180
  N   1.99719584970620      1.69002766768462      2.02482450532804
  N   -1.35870101328570      0.23872111936978      0.93068294097375
  O   -1.36403576408316      1.08752807951769      1.81931878526689
  O   -1.99558564801798     -0.80987947232086      0.92739989340563
  C   -0.95703642380392     -0.17894073088115     -1.49267620136808
  H   -0.30006657412799      0.06608443009495     -2.32628697340299
  H   -1.96457240361763      0.16815637304739     -1.72584043658810
  H   -1.00673518510318     -1.25981987827477     -1.36939480280103
