13

C	-0.195898	0.06614	0.057715
C	-0.663959	0.036638	-1.379177
Br	1.589289	-0.672277	0.281267
H	-1.605329	0.602836	-1.385767
H	-0.877944	-0.478755	0.70936
H	0.068132	0.550132	-2.005758
N	-0.134806	1.473287	0.579891
O	0.159375	2.365286	-0.215004
O	-0.36496	1.636193	1.774283
N	-0.818486	-1.349619	-1.79339
H	-1.02961	-1.360016	-2.784134
H	-1.651623	-1.687088	-1.30907
Cl	-3.37927	-1.140317	0.244018
