18

C	0.0	0.0	0.0
C	-0.592368	-0.033738	-1.4034
Cl	1.806104	0.0	0.0
H	-1.6958	-0.027784	-1.169051
C	-0.47105	1.259829	0.704304
H	-0.111028	1.267661	1.736372
H	-1.570884	1.226532	0.692563
H	-0.111282	2.160605	0.200801
C	-0.470336	-1.22883	0.756441
H	-0.095982	-1.197839	1.783367
H	-0.127996	-2.139234	0.265641
H	-1.568923	-1.188234	0.754226
N	-0.261109	-1.253412	-2.131869
H	0.654716	-1.162885	-2.556236
H	-0.942066	-1.387759	-2.869211
C	-0.272486	1.179814	-2.171265
N	-0.030487	2.107142	-2.853878
H	-3.232762	0.0	0.0
