18

C	0.0	0.0	0.0
C	-0.352432	-0.197823	-1.508418
Cl	1.802548	0.0	0.0
H	0.129041	0.642516	-2.028164
C	-0.533781	1.325056	0.499037
H	-0.208237	1.496886	1.528833
H	-1.629306	1.270796	0.470627
H	-0.179229	2.152394	-0.122596
C	-0.504618	-1.154031	0.843094
H	-0.143211	-2.109869	0.457038
H	-0.16165	-1.040948	1.875507
H	-1.601093	-1.130671	0.825229
N	-1.759108	-0.279244	-1.833001
H	-2.024559	0.5166	-2.396985
H	-2.432834	-0.263001	-1.0112
C	0.328822	-1.411899	-2.031175
N	0.835176	-2.356527	-2.512344
H	-3.555805	0.0	0.0
