15

C	-0.379252	-0.011328	-1.492255
C	0.0	0.0	0.0
Cl	0.063681	1.522737	-2.313771
H	1.095662	0.0	0.0
H	0.202571	-0.794762	-1.985937
C	-1.807351	-0.238293	-1.706951
N	-2.96233	-0.426184	-1.817986
C	-0.466844	-1.298114	0.64011
H	-0.018921	-1.352836	1.633363
H	-1.556857	-1.345002	0.741172
H	-0.125833	-2.167617	0.068084
N	-0.474756	1.143074	0.752673
H	-1.422782	1.395762	0.494818
H	0.134055	1.930116	0.564319
H	2.884176	0.0	0.0
