15

C	-0.302212	0.035168	-1.495286
C	0.0	0.0	0.0
Cl	-2.047543	0.420094	-1.874925
H	1.097554	0.0	0.0
H	0.277684	0.847216	-1.941777
C	0.016149	-1.209198	-2.189387
N	0.232743	-2.207086	-2.76981
C	-0.577379	-1.20602	0.707653
H	-0.234981	-2.138826	0.251761
H	-0.232162	-1.181791	1.742241
H	-1.673131	-1.192173	0.708553
N	-0.362516	1.23919	0.675839
H	-1.212854	1.641152	0.301506
H	0.403188	1.894687	0.556081
H	2.826006	0.0	0.0
