15

C	-0.425076	-0.000688	-1.454175
C	0.0	0.0	0.0
Cl	-2.226561	0.180151	-1.656603
H	1.102845	0.0	0.0
H	0.008137	0.880433	-1.929985
C	-0.025496	-1.203599	-2.181507
N	0.264578	-2.173433	-2.77725
C	-0.489174	-1.204682	0.782157
H	-0.024279	-1.183155	1.771418
H	-1.579008	-1.201612	0.902198
H	-0.193109	-2.141017	0.30098
N	-0.36419	1.29204	0.57825
H	0.428631	1.593101	1.137094
H	-1.169707	1.202325	1.188201
H	2.824003	0.0	0.0
