15

C	-0.303414	0.027043	-1.495299
C	0.0	0.0	0.0
Cl	-2.047235	0.411231	-1.877232
H	1.097619	0.0	0.0
H	0.276648	0.836635	-1.944691
C	0.015782	-1.220304	-2.182762
N	0.245317	-2.223814	-2.74788
C	-0.577534	-1.202185	0.71382
H	-0.235444	-2.137721	0.263561
H	-1.673523	-1.187248	0.714698
H	-0.231949	-1.1717	1.748205
N	-0.361553	1.24397	0.667092
H	-1.207921	1.647865	0.283381
H	0.407527	1.895786	0.54939
H	2.824558	0.0	0.0
