16

C	-0.652387	-0.021422	-1.380235
C	0.0	0.0	0.0
F	-0.417111	-1.247502	-1.920647
H	1.089764	0.0	0.0
C	-2.092521	0.254341	-1.392658
N	-3.251001	0.444969	-1.435698
N	0.026291	0.978176	-2.345745
O	-0.662126	1.891363	-2.782194
O	1.182867	0.704037	-2.615596
N	-0.464562	-1.203939	0.771303
O	-1.646745	-1.520964	0.638941
O	0.358684	-1.75278	1.48903
N	-0.438072	1.20232	0.762812
O	-0.538703	2.227523	0.093539
O	-0.5993	1.093289	1.970683
Cl	3.118534	0.0	0.0
