16

C	-0.505285	-0.004829	-1.430609
C	0.0	0.0	0.0
F	-0.624537	1.281491	-1.866348
H	1.090772	0.0	0.0
C	0.394354	-0.729317	-2.33201
N	1.156821	-1.268845	-3.045231
N	-1.922673	-0.590898	-1.624137
O	-2.224163	-0.826871	-2.788978
O	-2.623565	-0.718904	-0.632905
N	-0.406537	-1.223304	0.720077
O	-0.646705	-1.142568	1.917019
O	-0.317601	-2.247281	0.043901
N	-0.432374	1.241626	0.722539
O	0.47793	2.006383	1.028904
O	-1.626982	1.406564	0.945744
Cl	2.67417	0.0	0.0
