14

C	-0.248784	0.095505	-1.503393
C	0.0	0.0	0.0
F	0.037642	1.344281	-1.928449
H	1.097445	0.0	0.0
N	0.714979	-0.87055	-2.220749
O	1.478909	-0.394444	-3.038865
O	0.572171	-2.044244	-1.910735
C	-1.604157	-0.264733	-1.946997
N	-2.696322	-0.529486	-2.291662
C	-0.508509	-1.217648	0.596865
N	-0.895618	-2.189018	1.135379
C	-0.526825	1.172943	0.667041
N	-0.928775	2.12838	1.222751
F	2.407658	0.0	0.0
