14

C	-0.378495	-0.078711	-1.463622
C	0.0	0.0	0.0
F	-1.716996	-0.251195	-1.674911
H	1.096266	0.0	0.0
N	-0.001733	1.257145	-2.130262
O	1.164871	1.380502	-2.469967
O	-0.903914	2.078681	-2.22542
C	0.349039	-1.148222	-2.157512
N	0.832359	-2.043287	-2.744712
C	-0.44205	-1.205814	0.675867
N	-0.76583	-2.19357	1.22562
C	-0.521583	1.191361	0.639583
N	-0.936875	2.16536	1.151247
F	2.401006	0.0	0.0
