14

C	-0.369057	0.076925	-1.475174
C	0.0	0.0	0.0
F	0.236955	1.147034	-2.035504
H	1.097604	0.0	0.0
N	0.16163	-1.182493	-2.174973
O	1.281603	-1.115232	-2.651689
O	-0.597363	-2.148112	-2.159878
C	-1.81455	0.157047	-1.74546
N	-2.969709	0.284857	-1.918981
C	-0.499766	-1.202129	0.63439
N	-0.850041	-2.184793	1.177246
C	-0.468152	1.19761	0.67008
N	-0.807533	2.186677	1.207906
F	2.400284	0.0	0.0
