14

C	-0.277764	-0.138541	-1.492981
C	0.0	0.0	0.0
F	0.058044	1.007041	-2.121414
H	1.096972	0.0	0.0
N	0.608639	-1.259851	-2.064945
O	1.355053	-0.9728	-2.982578
O	0.419361	-2.356284	-1.55918
C	-1.662939	-0.490062	-1.843278
N	-2.779733	-0.735812	-2.114884
C	-0.515599	-1.094714	0.79636
N	-0.914415	-1.950093	1.498029
C	-0.50794	1.272254	0.474302
N	-0.88722	2.312027	0.871568
F	2.408002	0.0	0.0
