14

C	-0.396563	-0.050213	-1.460172
C	0.0	0.0	0.0
F	0.142738	1.006426	-2.119185
H	1.095996	0.0	0.0
N	0.161526	-1.307306	-2.151718
O	-0.036335	-1.337692	-3.362556
O	0.73757	-2.14048	-1.470995
C	-1.850788	-0.059249	-1.696952
N	-3.017279	-0.05015	-1.841944
C	-0.551934	-1.109131	0.752302
N	-1.001828	-1.991739	1.386156
C	-0.445427	1.267633	0.555915
N	-0.772681	2.302703	1.008747
F	2.408702	0.0	0.0
