13
Coordinates from ORCA-job run
  C   -0.64308823777856      0.37541695244684     -0.34152052829420
  C   0.79716561854467     -0.03629724176988     -0.63996183268306
  Cl  -1.51904015325414      0.75192976454853     -1.83632947250595
  H   1.29202912613420      0.82509714968147     -1.09666978375950
  H   0.75968775191995     -0.83885268686681     -1.37838194336948
  N   -1.35770081866342     -0.81594190898458      0.31147371296109
  O   -2.17160425501065     -0.56528428368412      1.18758157554625
  O   -1.06849243732498     -1.91616683677915     -0.13694025676612
  C   -0.69322051265337      1.50659611863440      0.57368735903503
  N   -0.65092555481950      2.44854879352436      1.27441259393620
  N   1.40234577942554     -0.43755736594973      0.61110236453776
  H   2.20856924883512      0.11807391230961      0.85079229874679
  H   1.64427444464514     -1.41656236711093      0.62175391261521
