13
Coordinates from ORCA-job run
  C   -0.65258405598738      0.37149219538059     -0.32037764503603
  C   0.78548528423230     -0.01527040128309     -0.65740386454806
  Cl  -1.56958055987376      0.75121224648852     -1.79000501826650
  H   0.74437636802998     -0.80560890672632     -1.40913924387688
  H   1.25786466502709      0.86092712263472     -1.10902780153715
  N   -1.33683247231974     -0.83617318362821      0.33503334829458
  O   -2.15942739824986     -0.60288798565508      1.20782751433769
  O   -1.02072293256713     -1.93067504354470     -0.10999644019541
  C   -0.69973015465214      1.49175509054702      0.60842153865282
  N   -0.66945491479874      2.43545956463259      1.30738893183025
  N   1.42570341328514     -0.42114844315487      0.57495060983876
  H   1.63578160190467     -1.40764466991397      0.58664711806922
  H   2.25912115596957      0.10956241422279      0.77468095243670
