13
Coordinates from ORCA-job run
  C   -0.57571197365776      0.38948478615696     -0.30063770332838
  C   0.90698757364589      0.25954567562371      0.06914059172943
  Cl  -0.80298230580096      0.26940156853236     -2.04168090337517
  H   1.43954298211084      1.06810030060300     -0.44692492113928
  H   0.97627987390847      0.43138721826378      1.14450668361437
  N   -1.30086734204038     -0.77059273065912      0.41994431334521
  O   -1.83676059431904     -1.63746348504509     -0.24011515391817
  O   -1.22329659931129     -0.69249092318613      1.63866941010004
  C   -1.14387145841048      1.63626476582632      0.19526439019208
  N   -1.55193378026013      2.66231144757907      0.59765152972762
  N   1.34884054548418     -1.08240405651331     -0.23727677282290
  H   2.08483062001874     -1.37321924344337      0.38925151080478
  H   1.67894245863191     -1.16032532373819     -1.18879297492963
