13
Coordinates from ORCA-job run
  C   -0.62248674226314      0.29141064785964     -0.44104458189018
  C   0.86527829084322     -0.03534189062917     -0.54749692104766
  Cl  -1.35590723231371      0.44664352392409     -2.04795972789989
  H   1.34822015429869      0.81627336342719     -1.03368213181781
  H   0.96396863625677     -0.90290444306704     -1.20256470477886
  N   -1.32486224770649     -0.87975418577920      0.26055341380602
  O   -2.26660468953304     -0.60690169503698      0.98950478680429
  O   -0.89694127098280     -1.99319344937938     -0.00979577827441
  C   -0.84846030837322      1.50100174525941      0.33714416218673
  N   -0.95792528819081      2.51546128020553      0.91929138659341
  N   1.35670049002227     -0.26224617830985      0.79427413781280
  H   1.60720694951474     -1.22710540362345      0.94834650019051
  H   2.13281325842752      0.33565668514920      1.03142945831504
