13
Coordinates from ORCA-job run
  C   -0.65819291312796      0.36509047634065     -0.31568713978705
  C   0.78083995180561     -0.00840897527107     -0.66312965175562
  Cl  -1.58965476169970      0.73499689357543     -1.77868566226915
  H   1.24157955710529      0.87175833151296     -1.11899561110917
  H   0.74152674077578     -0.79970430638502     -1.41393171374832
  N   -1.32678171901500     -0.84809663465956      0.34566803514661
  O   -2.14958791610078     -0.62100083876058      1.21991201693883
  O   -1.00021240194068     -1.94055509946817     -0.09693934332380
  C   -0.70894628446200      1.48547062598361      0.61283415143857
  N   -0.68217136485998      2.42943831612767      1.31161601030341
  N   1.43420671512827     -0.40666385714358      0.56500223110193
  H   2.26576700029867      0.13027676645869      0.75571597747432
  H   1.65162739609246     -1.39160169831104      0.57662069958944
