13
Coordinates from ORCA-job run
  C   -0.62086017981471      0.35125635830044     -0.25276386099368
  C   0.90212578536797      0.27054669384243     -0.09139107623852
  Cl  -1.09428548670867      0.04165949834123     -1.91919735409957
  H   1.33697239951724      1.02248250631948     -0.76163265890610
  H   1.12233481078965      0.55708741442763      0.93828959885522
  N   -1.20974462034550     -0.72779102638710      0.68550084406794
  O   -0.96066984165030     -0.51599137891921      1.86473526973900
  O   -1.81608435953231     -1.66466587511760      0.20687129856246
  C   -1.13843818794556      1.64111765714669      0.18488264894122
  N   -1.50846623968399      2.70227229118176      0.52873847166935
  N   1.32405918404099     -1.09355441925538     -0.31641779748934
  H   2.14700294992324     -1.31273997916134      0.22541934320755
  H   1.51705378604195     -1.27067974071903     -1.29203472731554
