13
Coordinates from ORCA-job run
  C   -0.60884612060268      0.30859994863366     -0.32658154780141
  C   0.90722188476293      0.24686879651095     -0.10432541753241
  Cl  -1.03285730673034     -0.26537540688586     -1.93529009823800
  H   1.09823059928285      0.69659623679611      0.87145460011496
  H   1.37071827955315      0.87673380605530     -0.87390858431048
  N   -1.23874052633752     -0.60017894714420      0.75463654318275
  O   -1.83874900129271     -1.59971363338329      0.41501456083011
  O   -1.02491414947496     -0.20046536986486      1.89128459559932
  C   -1.12627842087859      1.65522195647450     -0.12142425229477
  N   -1.49546956902468      2.76027162153370      0.03268478065941
  N   1.32152516433383     -1.13801053529388     -0.09032426951563
  H   2.12524449964839     -1.26938780837701      0.50612450368811
  H   1.54391466676034     -1.47216066505512     -1.01734541438195
