13
Coordinates from ORCA-job run
  C   -0.58569343302776      0.24702752225972     -0.10415461181330
  C   0.73378314603048     -0.52615143571755     -0.14876003682413
  Cl  -0.90393970856798      1.00845439914685     -1.67521811869466
  H   0.65588637819233     -1.26760682637470     -0.94811018379017
  H   0.82095701708585     -1.06288447375905      0.79997302667102
  N   -1.75989981647540     -0.70840614459919      0.15750968906052
  O   -1.59980366031424     -1.86837247658215     -0.20134905666778
  O   -2.76179437938138     -0.22497068913039      0.66455478097603
  C   -0.57797142884930      1.25412283133894      0.94760637836573
  N   -0.54351696041142      2.03775860710120      1.82192084829901
  N   1.81719184135799      0.42551866517667     -0.28703655194407
  H   2.07167532777604      0.55586192246411     -1.25555522756834
  H   2.63312567658480      0.12964809867555      0.22761906393014
