13
Coordinates from ORCA-job run
  C   -0.60282300735109      0.28373026045098     -0.15769809540273
  C   0.71868406578621     -0.49890048475636     -0.10256402677122
  Cl  -0.82071712239561      1.01759454288762     -1.74069309780898
  H   0.75837868859179     -0.97161997758579      0.88154842004769
  H   0.64989371597405     -1.28504522863659     -0.86640744972309
  N   -1.71704411039420     -0.74991796181707      0.11251824369498
  O   -2.34194596096879     -1.19709775258380     -0.83377857874496
  O   -1.80078217750312     -1.08681541289908      1.28742805573533
  C   -0.67079361652921      1.30085479662731      0.88146971887237
  N   -0.71365134751641      2.12065345109255      1.72183717918354
  N   1.82161815902142      0.41922900161409     -0.25623954631146
  H   2.10081911926538      0.51261147633670     -1.22203110954561
  H   2.61836359401956      0.13472328926946      0.29361028677415
