13
Coordinates from ORCA-job run
  C   -0.52452383560650      0.43869156739453     -0.25718110126927
  C   0.99190100211399      0.27405090089234      0.04162913527497
  Cl  -0.83470433185567      0.37863836233772     -1.98734483339071
  H   1.11637357843490      0.43240123390187      1.11553569164281
  H   1.49638552217994      1.08710292194865     -0.48611875030343
  N   -1.21531496870543     -0.73666689506092      0.45327104828651
  O   -1.22420867741361     -0.63165404462499      1.67401862929375
  O   -1.59521930149289     -1.68494530660248     -0.21200556752300
  C   -1.04623682247826      1.67412489853732      0.30640523497970
  N   -1.40377473166203      2.70085925344890      0.75312007649098
  N   1.56954609069251     -0.98406894991185     -0.32797217927798
  H   1.44051252921930     -1.19701048043277     -1.30727134783055
  H   1.23026394657378     -1.75152346182832      0.23491396362621
