13
Coordinates from ORCA-job run
  C   -0.61669488423848      0.22336007357522     -0.19732126243098
  C   0.73560630366199     -0.48367666523549     -0.01430058831847
  Cl  -0.89117053597797      0.60165335648824     -1.89280044191505
  H   0.68441506927473     -1.41387835051018     -0.59607737156210
  H   0.81115341474167     -0.73925568844183      1.04529689201309
  N   -1.68390088738763     -0.76946803477905      0.31004016387524
  O   -1.73875500823812     -0.85206012605403      1.53120420063970
  O   -2.30139811647745     -1.43091442633220     -0.50675343711379
  C   -0.70623680254826      1.43260087274632      0.60800614737785
  N   -0.76536941158680      2.40808136582609      1.25987530454872
  N   1.79845548152943      0.42013010201957     -0.38371078457273
  H   2.05627466569132      0.31937852400428     -1.35468716220875
  H   2.61562071155555      0.28404899669306      0.19222833966728
