13
Coordinates from ORCA-job run
  C   -0.59807318373571      0.24866555739024     -0.22177780089209
  C   0.73290088967524     -0.48849302049798     -0.00526706375690
  Cl  -0.74001991892143      0.79192284118451     -1.88804874553204
  H   0.72470971357706     -0.84625428536229      1.02698516177324
  H   0.72341245210936     -1.35709785220039     -0.67736369016566
  N   -1.70584616728039     -0.77616014050469      0.10418646452880
  O   -2.26453236531813     -1.34578207239392     -0.81739771864938
  O   -1.85263000489315     -0.97736129369494      1.30376299813603
  C   -0.74475826799221      1.37506131458595      0.68855241252881
  N   -0.85042499334688      2.28359141837879      1.42567526906936
  N   1.82494031244015      0.43448976461418     -0.20230596616490
  H   2.15695819282450      0.42465481167434     -1.15572762044446
  H   2.59436334086157      0.23376295682621      0.41872629956919
