13
Coordinates from ORCA-job run
  C   -0.60388807061698      0.21782216511124     -0.24834419483948
  C   0.73189696634802     -0.48298612085214      0.04941163290095
  Cl  -0.75746803535591      0.54891528071538     -1.96916628564204
  H   0.72828683470484     -0.71660623377942      1.11722201038564
  H   0.72393767672064     -1.42469262091875     -0.51495798012447
  N   -1.70177538392484     -0.76527518782252      0.20533690602626
  O   -2.17831881615252     -1.51916543963453     -0.62646236616098
  O   -1.91866858740972     -0.75296985381788      1.41094586305498
  C   -0.74729333240452      1.44937391977672      0.51391321983260
  N   -0.84290978426279      2.44522198406430      1.12965234546250
  N   1.81953391879680      0.41238031118970     -0.26209683869756
  H   2.58021147106351      0.31594558341799      0.39309473599453
  H   2.16645514249347      0.27203621254990     -1.19954904819295
