13
Coordinates from ORCA-job run
  C   -0.61861838963172      0.23058525685345     -0.21676306158420
  C   0.72260094115643     -0.51290628671395     -0.11341076538995
  Cl  -0.92040480777867      0.77508699791957     -1.86649134715737
  H   0.73918008900812     -0.99846648286855      0.87260719644525
  H   0.70333152524617     -1.29365792595899     -0.87456016025771
  N   -1.71995779488985     -0.76561427989341      0.16679408297700
  O   -1.74774259926114     -1.78960985883319     -0.50121804563309
  O   -2.44026503526377     -0.48013002948046      1.11471633605858
  C   -0.65408989938241      1.36268400617990      0.69854725565946
  N   -0.58877862247481      2.26951844726154      1.44288935199572
  N   1.79999240815062      0.41787521438168     -0.34637343311311
  H   2.18220451474790      0.77716523876343      0.51636845336329
  H   2.54054767037312      0.00646970238897     -0.89310586336386
