13
Coordinates from ORCA-job run
  C   -0.61955148468533      0.36038462093133     -0.35795987787598
  C   0.82780174248737     -0.02813002994472     -0.72240726663500
  Cl  -1.54649776069081      0.75148621120041     -1.81102118568663
  H   1.27515358075542      0.84160414659203     -1.21003609225738
  H   0.76158833312734     -0.83300196819468     -1.45644549234926
  N   -1.26322464145483     -0.86253459382973      0.30809098962039
  O   -1.24122528402248     -1.88954641941501     -0.35444279545762
  O   -1.69515461793024     -0.72496449759204      1.44555686070272
  C   -0.64660712704600      1.47498295443659      0.57819024876487
  N   -0.56433584649956      2.40141041880875      1.29678845193237
  N   1.64015697484948     -0.44389121397366      0.38589911482834
  H   1.33355720870605     -1.31344553473344      0.79795509636865
  H   1.73833892240360      0.26664590571416      1.09783194804451
