13
Coordinates from ORCA-job run
  C   -0.60584749046250      0.28606405641293     -0.29093503879758
  C   0.94822746295029      0.27711627685525     -0.29053521497901
  Cl  -1.23929483382921     -0.49309026054576     -1.73481386892485
  H   1.26278323339644      0.86909581363086      0.57223682073282
  H   1.25626011936138      0.80214693165284     -1.19802774224849
  N   -1.02336017458637     -0.49375512190097      0.96681179866835
  O   -1.42875339424524     -1.63676881998377      0.84307434857252
  O   -0.80444900871615      0.11037273909065      2.01015310426080
  C   -1.12982091166421      1.63823009663289     -0.17602062303973
  N   -1.49499664761975      2.75396747022077     -0.11641198812721
  N   1.56662379920048     -1.01457774669763     -0.23716068464843
  H   1.42118393370129     -1.48207933444458      0.64668622599258
  H   1.27144391251354     -1.61672210092348     -0.99305713746178
