13
Coordinates from ORCA-job run
  C   -0.60219708698587      0.35893754443976     -0.32875391113341
  C   0.82842752927995     -0.02576689296057     -0.73859596929811
  Cl  -1.55609960850790      0.81944698614302     -1.74958462209709
  H   0.74867235724615     -0.81704805732342     -1.48474123907066
  H   1.25810376631796      0.85359815676863     -1.22557043778439
  N   -1.31031638348108     -0.85110632763631      0.30097342818136
  O   -2.16671959379584     -0.61374704317209      1.14160209855213
  O   -0.97845939165380     -1.94948781521433     -0.12481491363339
  C   -0.59667473150871      1.43501539729355      0.65276379759570
  N   -0.48103555625471      2.31676923237108      1.42117527831183
  N   1.67810193939701     -0.45429030254762      0.33733483994264
  H   1.80689129521031      0.25120199282196      1.04918087206698
  H   1.37230546473653     -1.32352287098365      0.74903077836642
