13
Coordinates from ORCA-job run
  C   -0.54394642317259      0.42222598300185     -0.31436849472517
  C   0.90939453463448      0.22344967965840      0.13312004920663
  Cl  -0.67299886668767      0.38668982750496     -2.06905634617371
  H   0.92075337107190      0.34397170284302      1.21763425347565
  H   1.49751430279548      1.03517741532060     -0.31284439381021
  N   -1.34800181889138     -0.74183816237588      0.31008245325222
  O   -1.87185613504895     -1.56017370481519     -0.41818064162026
  O   -1.34100458615173     -0.71844786528730      1.53357727532498
  C   -1.09881300393694      1.66550580175140      0.20476201024646
  N   -1.49777559472583      2.68712957242961      0.62688065187013
  N   1.32472577683224     -1.11793884600631     -0.21070307101000
  H   1.70964097219138     -1.16358246829716     -1.14356935159513
  H   2.01136747108961     -1.46316893572799      0.44366560555841
