13
Coordinates from ORCA-job run
  C   -0.58719672229064      0.18635289711558     -0.16271088353068
  C   0.77050630825874     -0.56700608867498     -0.12682711354107
  Cl  -0.91430310842075      0.80593154817590     -1.77832432725136
  H   0.84279782133619     -1.02502419955455      0.86411570735985
  H   0.69918661986620     -1.36184013143610     -0.87455015288790
  N   -1.65186474213450     -0.84417427089638      0.23671190317491
  O   -2.14026558588718     -1.52323478644505     -0.65115596912836
  O   -1.82534670969133     -0.95651903951155      1.44462404857912
  C   -0.60189091908524      1.27680070868393      0.80068686251626
  N   -0.51201952277576      2.16991154287946      1.55936257570540
  N   1.93510696770425      0.23145067155474     -0.37047139222348
  H   1.91366746262149      0.66786333928036     -1.28155016788436
  H   2.06962213049853      0.93748780882863      0.34108890911168
