13
Coordinates from ORCA-job run
  C   -0.57827591444162      0.17077891429141     -0.20384529129999
  C   0.76919991378761     -0.58347168679487     -0.03635629210437
  Cl  -0.84429616025491      0.60681026443860     -1.88836162488903
  H   0.71324795132333     -1.45927533367134     -0.68907382061546
  H   0.80485220582817     -0.92347741970501      1.00262052324177
  N   -1.66872563990542     -0.79896560861289      0.27580678084987
  O   -1.83358302736134     -0.81089042371073      1.49006308329989
  O   -2.18744611420699     -1.52786517942674     -0.55287826410572
  C   -0.61331386984064      1.36224004518159      0.63095029870227
  N   -0.54303752568243      2.33265264404942      1.29031259072838
  N   1.94955230896721      0.17300115377672     -0.33244202360224
  H   1.96084625938547      0.50406730319116     -1.28692280094706
  H   2.07097961240156      0.95339532699267      0.29912684074168
