13
Coordinates from ORCA-job run
  C   -0.58328667790621      0.17946266508452     -0.18138822361863
  C   0.78819456702132     -0.54626761595272     -0.11150649862406
  Cl  -0.85532081312730      0.84571835151576     -1.78863503271984
  H   0.76602371006692     -1.31734999613010     -0.88666187190456
  H   0.82835619146749     -1.03497981968698      0.86651717380428
  N   -1.64096430289417     -0.88598572064489      0.13800432873261
  O   -1.86215643328548     -1.04275193264858      1.33312197218308
  O   -2.07763703887418     -1.54361703375888     -0.79194729209821
  C   -0.66350498905215      1.23646683754046      0.81542082689984
  N   -0.62791319403010      2.10798748973243      1.60324349371522
  N   1.94388890570767      0.28392230986854     -0.27899004624631
  H   2.03289633405535      0.96835627518453      0.46027482799102
  H   1.95142374085084      0.75003818989592     -1.17545365811444
