13
Coordinates from ORCA-job run
  C   -0.65066249412906      0.37584585076423     -0.33138424723811
  C   0.77787489466443     -0.05719600254092     -0.65581653397780
  Cl  -1.53758716503499      0.79438329123468     -1.80678305287563
  H   1.27203702394066      0.78380773667830     -1.15313401365958
  H   0.70716840373929     -0.88132671145383     -1.36623837253981
  N   -1.36891058965132     -0.81625296547875      0.31665076164660
  O   -1.20557563942589     -1.89135822172394     -0.23987320485730
  O   -2.05120789059355     -0.58864566433829      1.30423888226917
  C   -0.66062578836602      1.49436416247143      0.60097469775700
  N   -0.57745592731082      2.43114915524580      1.30531746999056
  N   1.39652822504017     -0.47169216432425      0.58466673370228
  H   2.06239476930824      0.20251749655527      0.93134948263288
  H   1.83702217781884     -1.37559596308972      0.50903139714974
