13
Coordinates from ORCA-job run
  C   -0.60144213544398      0.36494032257363     -0.36440050485727
  C   0.83877353052531     -0.05426067559265     -0.71368854027263
  Cl  -1.51079802871182      0.76280158503063     -1.82898546133693
  H   0.76616246769235     -0.86428463208779     -1.44072637361382
  H   1.30598548656599      0.80280256038189     -1.20527295924823
  N   -1.29425004993063     -0.83068601622825      0.30399046416918
  O   -1.18566723303152     -1.89533003645197     -0.28771643311525
  O   -1.87526371190408     -0.62910407398611      1.36235390119803
  C   -0.61255757162920      1.48799358347713      0.56228929069182
  N   -0.51458382937241      2.41805326584734      1.27418643386732
  N   1.63475916766865     -0.47367753626342      0.40559754200669
  H   1.30576181010389     -1.33213160007818      0.82342044531591
  H   1.74312009746744      0.24288325337775      1.10995219519518
