13
Coordinates from ORCA-job run
  C   -0.57699212604601      0.30835761520046     -0.32528691683902
  C   0.97015232869958      0.29545875924402     -0.17846930367407
  Cl  -1.06757795502132     -0.36002375007453     -1.87622175909532
  H   1.19926294028697      0.82154791032211      0.75132811478648
  H   1.36033893859225      0.88531107657265     -1.01149547811208
  N   -1.10798471137030     -0.56154679904182      0.82617000553595
  O   -0.99138126369026     -0.03715046201936      1.92744910122783
  O   -1.49453467331927     -1.69123239405287      0.58015395670102
  C   -1.11514776181993      1.64973751617427     -0.16054595199657
  N   -1.48911214665190      2.75898368179755     -0.05351935977622
  N   1.58678483426031     -0.99809454324096     -0.16219680667080
  H   1.36727110672467     -1.54183609723028     -0.98513652676976
  H   1.35992048935519     -1.52951251365124      0.66677092468256
