13
Coordinates from ORCA-job run
  C   -0.56876839166828      0.28583924217252      0.03360041130613
  C   0.71764299951553     -0.39604828081919     -0.50842722744714
  Cl  -0.83944306521160      1.83119124009806     -0.76582122401300
  H   0.75015498806318     -1.39306065702512     -0.05919565901655
  H   0.57464184935316     -0.50359347396971     -1.58734807625285
  N   -1.71964029176237     -0.68177714611450     -0.27423244374887
  O   -1.89026761763046     -1.55319388489525      0.57024984454131
  O   -2.27664975460467     -0.57245275306710     -1.35373046367847
  C   -0.48707327376331      0.47816704799217      1.47357488277296
  N   -0.32023584136750      0.65096907157594      2.62411834388079
  N   1.94773764608033      0.28883290587355     -0.24421383203262
  H   2.14522736468456      0.35347982818646      0.74551856285391
  H   1.96567338831140      1.21164685999217     -0.65509311916558
