13
Coordinates from ORCA-job run
  C   -0.57340051690180      0.18101409513511     -0.20850221429537
  C   0.78122915933369     -0.56496828001664     -0.06200693617082
  Cl  -0.78281090124439      0.77777377241981     -1.85115317708222
  H   0.76727722476337     -1.37229826216524     -0.79972552389187
  H   0.78325399958451     -1.00582498840326      0.93905303931072
  N   -1.66167888896819     -0.84844519134487      0.12846082086387
  O   -1.88164945796405     -0.97675192370962      1.32725088451029
  O   -2.12495888878852     -1.50736785726280     -0.78735837148603
  C   -0.66393427362048      1.28323377053738      0.73749478609604
  N   -0.63812800359726      2.18783886234574      1.48748465633656
  N   1.95712975794579      0.23540954246804     -0.23424545538659
  H   1.99998268369006      0.65784602499343     -1.15109929736631
  H   2.03768810576728      0.95254043500292      0.47434678856174
