13
Coordinates from ORCA-job run
  C   -0.56978944737548      0.29329457884783     -0.15203946163563
  C   0.96299604037368      0.21074185855519     -0.33193871684412
  Cl  -1.41376807642307     -0.47794430804849     -1.50561990681237
  H   1.19408076327181      0.86990876764684     -1.17318894955205
  H   1.40510154843256      0.65231372337529      0.56445244049423
  N   -1.03144410338929     -0.42265348456266      1.13544844996672
  O   -0.16428903296729     -0.97517261209396      1.80279598989411
  O   -2.22512045614575     -0.36484976004568      1.38438820394502
  C   -1.00514433613482      1.67775248669571     -0.02442876758031
  N   -1.27723578322830      2.81731026092036      0.07263153818684
  N   1.54370577918157     -1.08000416097846     -0.56688840997705
  H   1.19853315370761     -1.50133106678033     -1.41754108007787
  H   1.38337395069676     -1.70036628353165      0.21292866999247
