13
Coordinates from ORCA-job run
  C   -0.61682065844730      0.36873388090994     -0.35414224033065
  C   0.82492458103604     -0.03347271307647     -0.72614195898142
  Cl  -1.54531960830097      0.77726210437055     -1.80118267093665
  H   1.27963158837052      0.83385245574844     -1.21126222094426
  H   0.74729131968988     -0.83408091503052     -1.46365162427662
  N   -1.27186242740023     -0.85055711168266      0.30830187527251
  O   -1.25787499168010     -1.87610994201648     -0.35669336409751
  O   -1.70695404251509     -0.71118795461711      1.44432350589804
  C   -0.62717691719186      1.47788670270445      0.58866149212227
  N   -0.52928860495238      2.39741970360132      1.31431573719435
  N   1.63747079075537     -0.46276686568735      0.37715031230181
  H   1.74437816479549      0.24390597253895      1.09185331020500
  H   1.32160080584064     -1.32988531776307      0.78746784657315
