15

C	0.0	0.0	0.0
C	-0.330241	-0.218109	-1.542563
Br	1.966148	0.0	0.0
H	-0.140962	-1.280924	-1.73716
H	0.44003	0.343974	-2.080098
C	-0.582752	1.2895	0.533425
H	-0.26397	1.473411	1.562431
H	-0.267696	2.126843	-0.096505
H	-1.675664	1.129004	0.479405
C	-0.411122	-1.145103	0.806242
N	-0.661169	-2.094655	1.45275
N	-1.622909	0.164034	-2.030854
H	-1.64087	1.174994	-2.110054
H	-2.3552	-0.052159	-1.296075
F	-3.122246	0.0	0.0
