15

C	0.0	0.0	0.0
C	-0.549783	0.20453	-1.410457
Br	1.960919	0.0	0.0
H	-1.601333	0.467213	-1.208864
H	0.013481	1.018519	-1.878216
C	-0.497565	1.107885	0.91998
H	-0.098875	0.988452	1.929804
H	-1.594196	0.988608	0.88007
H	-0.179461	2.076567	0.522548
C	-0.394265	-1.308115	0.529292
N	-0.610732	-2.371491	0.979994
N	-0.418876	-1.017901	-2.211102
H	-0.527587	-0.772347	-3.188976
H	-1.223516	-1.590114	-1.969927
F	-2.863087	0.0	0.0
