15

C	0.0	0.0	0.0
C	-0.538483	-0.046329	-1.428119
Br	1.973911	0.0	0.0
H	-0.226966	-0.992519	-1.893784
H	-1.631511	-0.052053	-1.21853
C	-0.508225	1.216152	0.754104
H	-0.186209	2.113844	0.225984
H	-1.604128	1.084149	0.70838
H	-0.132617	1.223816	1.780246
C	-0.37222	-1.236334	0.693763
N	-0.571785	-2.241687	1.268528
N	-0.139272	1.139047	-2.178824
H	-0.876016	1.379424	-2.827845
H	0.709519	0.964403	-2.702899
F	-2.889459	0.0	0.0
