17

C	0.0	0.0	0.0
C	-0.584826	0.296365	-1.385727
Br	1.967882	0.0	0.0
H	-1.668203	0.116855	-1.268132
C	-0.488035	1.045609	0.99722
H	-0.105327	0.809275	1.991241
H	-1.581781	1.004745	0.994602
H	-0.147994	2.030641	0.681834
C	-0.351197	-1.336352	0.491007
N	-0.552159	-2.381866	0.989165
N	-0.081506	-0.746217	-2.387082
O	0.645265	-0.356707	-3.302497
O	-0.438203	-1.90617	-2.211193
N	-0.320904	1.624248	-1.806252
H	-1.01731	1.913211	-2.479835
H	0.595735	1.683405	-2.232122
Cl	-3.662252	0.0	0.0
