17

C	0.0	0.0	0.0
C	-0.598327	0.148151	-1.423501
Br	1.969564	0.0	0.0
H	-1.638836	-0.191204	-1.320102
C	-0.490587	1.121497	0.90678
H	-0.130328	0.956058	1.923347
H	-0.116843	2.082609	0.550707
H	-1.585292	1.0997	0.892076
C	-0.346496	-1.294032	0.595612
N	-0.540794	-2.307215	1.15878
N	0.101428	-0.821574	-2.34389
O	-0.146231	-2.012074	-2.166187
O	0.886607	-0.372704	-3.173544
N	-0.58291	1.444624	-1.997836
H	0.292623	1.93057	-1.855032
H	-1.366911	1.975092	-1.641208
Cl	-3.629626	0.0	0.0
