17

C	0.0	0.0	0.0
C	-0.623104	0.163995	-1.391517
Br	1.94843	0.0	0.0
H	-1.689968	-0.0727	-1.225377
C	-0.478582	1.14132	0.897187
H	-0.131139	2.088039	0.488774
H	-0.092548	0.9956	1.907441
H	-1.572065	1.114478	0.908154
C	-0.360885	-1.272652	0.634138
N	-0.573995	-2.246845	1.256157
N	-0.081134	-0.905646	-2.337353
O	0.396187	-0.534185	-3.409633
O	-0.170524	-2.072335	-1.97301
N	-0.471459	1.474953	-1.915851
H	0.317753	1.515968	-2.548586
H	-1.310398	1.732554	-2.418022
Cl	-3.672814	0.0	0.0
