17

C	0.0	0.0	0.0
C	-0.591167	-0.053124	-1.403052
F	1.378146	0.0	0.0
H	-1.693253	-0.109958	-1.181824
C	-0.491125	1.251116	0.71169
H	-0.117605	1.2449	1.738375
H	-1.587166	1.184924	0.676312
H	-0.110615	2.139685	0.202569
C	-0.417641	-1.172468	0.802017
N	-0.616922	-2.068338	1.533942
N	-0.198672	-1.318911	-2.132881
O	0.552278	-2.127947	-1.583517
O	-0.682757	-1.468173	-3.250858
N	-0.23392	1.059141	-2.23627
H	0.616745	1.503173	-1.917553
H	-0.985527	1.730738	-2.257871
F	-2.839818	0.0	0.0
