17

C	0.0	0.0	0.0
C	-0.591045	0.057268	-1.399876
F	1.392291	0.0	0.0
H	-1.696337	-0.026345	-1.15866
C	-0.468054	1.203014	0.801265
H	-0.074419	1.122515	1.817848
H	-1.562	1.157914	0.78267
H	-0.089615	2.105837	0.322947
C	-0.388089	-1.230564	0.723932
N	-0.537466	-2.170624	1.411076
N	-0.14199	-1.171434	-2.180162
O	-0.583261	-2.26196	-1.826637
O	0.622728	-1.007439	-3.136939
N	-0.229248	1.264048	-2.065893
H	0.712879	1.190598	-2.429378
H	-0.855311	1.418822	-2.844432
F	-2.828008	0.0	0.0
