17

C	0.0	0.0	0.0
C	-0.332912	-0.216656	-1.525479
F	1.383709	0.0	0.0
H	0.459067	-0.885936	-1.870748
C	-0.576586	1.225701	0.652671
H	-0.272304	1.252907	1.70252
H	-0.213405	2.12299	0.149797
H	-1.669581	1.117966	0.56061
C	-0.428525	-1.233355	0.689507
N	-0.670112	-2.25815	1.208953
N	0.029483	1.107559	-2.202068
O	-0.851903	1.954058	-2.30627
O	1.193113	1.245919	-2.590357
N	-1.611289	-0.630119	-1.937713
H	-1.602265	-1.635323	-2.036894
H	-2.345434	-0.349509	-1.201916
F	-3.055731	0.0	0.0
