17

C	0.0	0.0	0.0
C	-0.393398	-0.173733	-1.49982
F	1.386464	0.0	0.0
H	0.508828	-0.551842	-1.993394
C	-0.569083	1.213539	0.695819
H	-0.265972	1.197644	1.745353
H	-1.661922	1.110683	0.603888
H	-0.191743	2.122145	0.227459
C	-0.397649	-1.22312	0.730014
N	-0.557199	-2.172794	1.401591
N	-0.464054	1.267251	-2.121348
O	0.567701	1.941083	-2.082509
O	-1.51168	1.617001	-2.65514
N	-1.518627	-0.958175	-1.711048
H	-1.764766	-0.980322	-2.691183
H	-2.319818	-0.612583	-1.0713
F	-3.047825	0.0	0.0
