17

C	0.0	0.0	0.0
C	-0.545805	-0.074273	-1.430885
F	1.390102	0.0	0.0
H	-1.64434	-0.130921	-1.266011
C	-0.4959	1.252071	0.695053
H	-0.131579	1.257589	1.724801
H	-0.096174	2.131494	0.184415
H	-1.593784	1.179179	0.640956
C	-0.410941	-1.187698	0.775898
N	-0.61585	-2.109548	1.473819
N	-0.051159	-1.350441	-2.050363
O	1.069205	-1.331292	-2.562336
O	-0.780816	-2.339397	-1.990084
N	-0.139194	1.006143	-2.283208
H	-0.747692	1.795571	-2.119332
H	0.822803	1.266102	-2.102308
F	-2.80194	0.0	0.0
