17

C	0.0	0.0	0.0
C	-0.314267	-0.028279	-1.505809
F	1.400982	0.0	0.0
H	0.449583	0.631141	-1.948736
C	-0.357166	1.275712	0.746479
H	0.092422	1.202916	1.741879
H	-1.44104	1.33481	0.785307
H	0.082956	2.124677	0.219996
C	-0.454114	-1.206114	0.701607
N	-0.523101	-2.186858	1.346146
N	-1.57751	0.645093	-1.983289
O	-2.31205	0.017089	-2.73427
O	-1.624992	1.85686	-1.799284
N	-0.273028	-1.382659	-1.984242
H	0.618735	-1.785949	-1.723941
H	-0.371379	-1.401534	-2.990063
F	-2.459925	0.0	0.0
