16

C	-0.596177	0.029877	-1.39118
C	0.0	0.0	0.0
F	-0.109993	1.11902	-2.055481
H	1.090478	0.0	0.0
N	-0.203569	-1.144565	-2.286375
O	0.930345	-1.568968	-2.161052
O	-1.033747	-1.486208	-3.126685
C	-2.065843	0.126155	-1.358453
N	-3.223865	0.269863	-1.227308
N	-0.488759	-1.210941	0.708076
O	-0.430816	-1.214468	1.93722
O	-0.901761	-2.159471	0.024651
N	-0.354842	1.206635	0.680916
H	-1.188278	1.112572	1.252279
H	0.429422	1.472143	1.26152
F	2.472032	0.0	0.0
