16

C	-0.42653	0.024858	-1.444209
C	0.0	0.0	0.0
F	-0.113671	-1.067981	-2.187025
H	1.09298	0.0	0.0
N	-1.961503	0.144191	-1.593452
O	-2.38521	0.531149	-2.677919
O	-2.641104	-0.224468	-0.639792
C	0.148384	1.214737	-2.093096
N	0.632166	2.129102	-2.648202
N	-0.44543	-1.224609	0.717087
O	-0.903726	-1.086021	1.851836
O	-0.270698	-2.30736	0.16451
N	-0.443873	1.220124	0.595749
H	0.287097	1.55425	1.208156
H	-1.289899	1.078522	1.130412
F	2.478981	0.0	0.0
