16

C	-0.609761	0.013513	-1.395572
C	0.0	0.0	0.0
F	-0.236955	1.164316	-2.021554
H	1.09603	0.0	0.0
N	-0.104111	-1.10286	-2.319804
O	-0.936618	-1.864978	-2.805426
O	1.096118	-1.08127	-2.540711
C	-2.0826	-0.04665	-1.352356
N	-3.25157	-0.042405	-1.220725
N	-0.414054	-1.254826	0.686822
O	-0.427074	-2.287183	0.01011
O	-0.669299	-1.207038	1.891625
N	-0.408709	1.177278	0.694299
H	0.381381	1.492608	1.245044
H	-1.193608	0.999537	1.308238
F	2.471273	0.0	0.0
