16

C	-0.569554	-0.075503	-1.400275
C	0.0	0.0	0.0
F	-1.906678	-0.377699	-1.405594
H	1.089253	0.0	0.0
N	-0.443972	1.336671	-1.991169
O	0.692752	1.691405	-2.260229
O	-1.476998	1.972506	-2.127427
C	0.121334	-0.974342	-2.329079
N	0.594108	-1.659234	-3.15663
N	-0.391668	-1.266885	0.69404
O	-0.703778	-1.202761	1.883148
O	-0.332435	-2.310925	0.045086
N	-0.428329	1.176468	0.674713
H	0.309945	1.455668	1.308135
H	-1.283766	1.036452	1.195927
F	2.472907	0.0	0.0
