16

C	-0.588586	0.020466	-1.408421
C	0.0	0.0	0.0
F	-0.260842	1.206362	-1.989307
H	1.0975	0.0	0.0
N	-0.003623	-1.042964	-2.351484
O	1.170355	-0.882614	-2.638481
O	-0.756346	-1.914007	-2.770339
C	-2.053358	-0.121391	-1.416134
N	-3.22185	-0.194599	-1.331121
N	-0.407629	-1.260977	0.675995
O	-0.70745	-1.218931	1.870668
O	-0.368853	-2.292874	0.002915
N	-0.428454	1.170174	0.699258
H	-1.127353	0.940906	1.39692
H	0.385858	1.537468	1.174538
F	2.476636	0.0	0.0
