14

C	-0.417209	0.002614	-1.454243
C	0.0	0.0	0.0
Cl	-2.173587	-0.165742	-1.713137
H	1.105282	0.0	0.0
H	-0.09263	0.917175	-1.946834
N	0.309963	-1.101554	-2.185757
O	1.388629	-0.756706	-2.664228
O	-0.17451	-2.227042	-2.210219
N	-0.418489	-1.193373	0.694577
H	-1.314666	-1.078496	1.148337
H	0.292884	-1.426894	1.378987
C	-0.419444	1.257199	0.611663
N	-0.715419	2.269551	1.134556
H	2.611133	0.0	0.0
