14

C	-0.543333	-0.077961	-1.423699
C	0.0	0.0	0.0
Cl	0.190301	-1.403213	-2.335397
H	1.094151	0.0	0.0
H	-1.623286	-0.22431	-1.448531
N	-0.333831	1.219751	-2.164888
O	-1.344764	1.914103	-2.291905
O	0.794325	1.504749	-2.539174
N	-0.326973	-1.175256	0.788995
H	0.459464	-1.813316	0.700683
H	-1.177848	-1.632183	0.481402
C	-0.512942	1.206437	0.638524
N	-0.891799	2.189505	1.161961
H	2.623624	0.0	0.0
