14

C	-0.402094	0.04402	-1.445155
C	0.0	0.0	0.0
Cl	-0.21279	1.641997	-2.18155
H	1.098679	0.0	0.0
H	0.206527	-0.666796	-2.003339
N	-1.835488	-0.38983	-1.6705
O	-2.079662	-0.943135	-2.739541
O	-2.655315	-0.152393	-0.789004
N	-0.333789	-1.326574	0.505709
H	0.452872	-1.642927	1.064296
H	-1.175399	-1.313067	1.065452
C	-0.502718	1.101932	0.80559
N	-0.866026	1.946533	1.538485
H	2.619879	0.0	0.0
