14

C	-0.287151	0.070505	-1.487281
C	0.0	0.0	0.0
Cl	-0.113226	1.686799	-2.160039
H	1.096823	0.0	0.0
H	0.406703	-0.596434	-1.999059
N	-1.661224	-0.446938	-1.803932
O	-2.632905	0.219696	-1.463305
O	-1.705799	-1.570125	-2.312433
N	-0.287445	-1.299846	0.586802
H	-1.095052	-1.767832	0.19442
H	0.540313	-1.875684	0.458891
C	-0.598299	1.082558	0.764094
N	-1.030888	1.962777	1.41452
H	2.562866	0.0	0.0
