13
Coordinates from ORCA-job run
  C   0.99586453121286     -0.48185154459049     -0.27691839732877
  C   -0.10005566044272      0.44301846706500      0.23165070720413
  F   0.66458155234603     -0.97870734831675     -1.50900690691056
  H   0.22375551408082      1.01093282073565      1.10401772759738
  H   1.90096014033110      0.12244719352565     -0.38961571118355
  C   1.24511651034933     -1.56177542323628      0.68331020515446
  N   1.48372559168920     -2.38759479395786      1.48236071452169
  N   -1.37302327086912     -0.24917842680955      0.59451231842761
  O   -2.11123248523441      0.39282029333067      1.33434423392677
  O   -1.57562523465184     -1.35721454155044      0.11126589537344
  N   -0.39779903591663      1.44427870814061     -0.86224237911360
  O   0.54889165138146      2.17243444779762     -1.13008233311663
  O   -1.50515980427608      1.42939014786615     -1.37459607455238
