13
Coordinates from ORCA-job run
  C   0.98039721870747     -0.53269270223073     -0.19995979569555
  C   -0.38334409164399      0.13182278998425     -0.28032810997220
  F   1.55226619377139     -0.41101949474587     -1.44780247519223
  H   -1.04224497606224     -0.32543301759268     -1.01562564852413
  H   1.60456340193350     -0.01702423792550      0.52973405560675
  C   0.82919295584065     -1.94906260457468      0.14536049390790
  N   0.69981013577124     -3.08765661659709      0.39983828885473
  N   -0.20675436264105      1.57675778990403     -0.65931211929654
  O   0.60551182490627      2.20601592265678      0.01038478253192
  O   -0.89698214337495      1.98740653928544     -1.58352963341374
  N   -1.07847087549696      0.12830442367264      1.04746228188827
  O   -2.28679110184165      0.33027338082359      1.01100238802783
  O   -0.37715417986962     -0.03769217266017      2.04177549127699
