13
Coordinates from ORCA-job run
  C   0.82166813297451     -0.81604670648711     -0.32000308138329
  C   -0.41796895688073      0.04874574246576     -0.51511729383809
  F   0.42318379604197     -2.12823557320994     -0.41170772290064
  H   -0.82335259014322     -0.07439448267700     -1.51886763560326
  H   1.50910131063376     -0.60338107030225     -1.14213495336714
  C   1.51438338031957     -0.56608976010564      0.94849289976777
  N   2.14601646866853     -0.34419461478205      1.91245446905515
  N   -0.04191886644903      1.49794737760715     -0.35242757691283
  O   -0.60493855923645      2.15184118624560      0.51186465807596
  O   0.82513013291907      1.86982016155411     -1.13495965695690
  N   -1.51430920131529     -0.27724323999644      0.44532833027111
  O   -2.64935229033251     -0.10404330125953      0.01344912739277
  O   -1.18964275720023     -0.65672571905262      1.56362843639941
