13
Coordinates from ORCA-job run
  C   0.82082857671348     -0.61680874977236     -0.49585933419275
  C   0.01231508320190      0.47253418609333      0.19328337730208
  F   0.08956175227409     -1.18602015206832     -1.50386769040825
  H   0.63344284800268      1.07985092159959      0.85188750006814
  H   1.69471733054432     -0.13507632748388     -0.94447695989568
  C   1.26178830086897     -1.62346155156644      0.47506267536593
  N   1.66446844963236     -2.39512424210402      1.26236322462498
  N   -1.13862562056989     -0.03145676388211      1.00108192907117
  O   -1.57265246003569     -1.14704538895290      0.73752323180163
  O   -1.55505378678611      0.75525575108710      1.84499699898074
  N   -0.52533818795372      1.39200726545453     -0.88007784841784
  O   0.34863831147834      1.97601406204480     -1.50712860435892
  O   -1.73409059737076      1.45733098955066     -1.03378849994119
