13
Coordinates from ORCA-job run
  C   1.05738268847401     -0.39641951727714     -0.10430313380598
  C   -0.38895413448349      0.02439081442120     -0.30122159231801
  F   1.64594423846920     -0.38023372731058     -1.35022560568839
  H   -0.94493834179495     -0.63939736359685     -0.96011361712527
  H   1.56929724041530      0.31759667215178      0.54072968055397
  C   1.11431170160895     -1.74823863232023      0.45913393701604
  N   1.14752741217323     -2.83875116348221      0.89217992772331
  N   -0.42451144521770      1.40245803042685     -0.90283661787891
  O   -1.13774540913780      1.55068952882924     -1.88702564803020
  O   0.25846790907544      2.24791941324337     -0.33448223741045
  N   -1.11944348825145      0.11762707538149      1.00433705639579
  O   -2.34248396727750      0.11954353293716      0.92537658515730
  O   -0.43485440405326      0.22181533659592      2.01845126541081
