13
Coordinates from ORCA-job run
  C   0.54657690884497     -0.84152995508807     -0.66427729486792
  C   -0.52827035944977      0.19305271831181     -0.35268874070927
  F   -0.08430563431120     -2.05362409994027     -0.81332037839530
  H   -1.21057191616651      0.30777187260503     -1.19430858510253
  H   1.00472094021588     -0.56898015935071     -1.61797846418367
  C   1.59630634792444     -0.91706452480034      0.35717498534668
  N   2.49482031297603     -0.93510023263315      1.11201131870166
  N   0.12411309920832      1.52863340950301     -0.11145443149096
  O   -0.05285612853955      2.07647493007405      0.96570982671625
  O   0.78969176003398      1.92754886429986     -1.06024458353880
  N   -1.35504885046017     -0.16391869044095      0.83881883979440
  O   -2.51616735460858      0.23000328984597      0.79911513832966
  O   -0.80600912566781     -0.78326742238627      1.74144236939974
