13
Coordinates from ORCA-job run
  C   0.98691661013192     -0.51979982812892     -0.18965072294713
  C   -0.39279034701774      0.11150361094895     -0.27493429074711
  F   1.54178144939535     -0.42651918474727     -1.44762638551309
  H   -1.05437614161879     -0.39267847877033     -0.97648172259162
  H   1.60748572081515      0.03368214297782      0.51518260177451
  C   0.87190465655468     -1.92696474801406      0.20321663020868
  N   0.76643457375457     -3.05913450280244      0.49428751504935
  N   -0.24930597549952      1.53920270968440     -0.72391632517147
  O   0.51760969177449      2.22767707913562     -0.05902892721586
  O   -0.91098880415794      1.87729062615678     -1.69712230330692
  N   -1.06417817217870      0.15557317457214      1.06432360348179
  O   -2.26911561791225      0.37767826631105      1.04050840797550
  O   -0.35137764404119      0.00248913267628      2.05224191900333
