13
Coordinates from ORCA-job run
  C   0.91658479211631     -0.52784412396710     -0.42579231125927
  C   -0.04587532287129      0.45621645000277      0.22276970901183
  F   0.35549250556395     -1.06946192615872     -1.55102382051875
  H   0.44478571201718      1.05083612765487      0.99352370320776
  H   1.80136451613662      0.03954406153782     -0.72978354198617
  C   1.30924251945206     -1.56981484050682      0.52851837709880
  N   1.66943691248514     -2.36532636048545      1.31265012600852
  N   -1.24997077179412     -0.17500575564063      0.84196387743654
  O   -1.83198059788833      0.52890052021248      1.66053759332790
  O   -1.55964947123436     -1.29984878206545      0.46608295693911
  N   -0.50961200291910      1.41581791736552     -0.84974338875770
  O   -1.68980875195364      1.41073049582332     -1.15974613643472
  O   0.38998996088958      2.10525621622743     -1.31195714407389
