13
Coordinates from ORCA-job run
  C   0.66702534465449     -0.71141632741742     -0.55927361537420
  C   0.04615499088872      0.43371924773151      0.23130561785437
  F   -0.30611005277293     -1.32606336600064     -1.30533701343093
  H   0.67666800433940      0.77140623069382      1.05360651137007
  H   1.41865423122064     -0.30634213600080     -1.24131525361544
  C   1.29109203068166     -1.68394740290055      0.34602679230391
  N   1.82825881592550     -2.45606163896472      1.04804418535900
  N   -1.25784253483146     -0.03390384628476      0.82764546614430
  O   -1.13072458270444     -0.70976798179183      1.84077594979259
  O   -2.28579856214610      0.25078496377353      0.23311867169501
  N   -0.24288813975475      1.62943489427249     -0.62801063357680
  O   -0.63818661170802      2.61070264047394     -0.01061794084180
  O   -0.06730293379270      1.52945472241542     -1.83696873768005
