13
Coordinates from ORCA-job run
  C   1.00541737565806     -0.50675844068158     -0.13877631930759
  C   -0.36179606377746      0.13248203856086     -0.30990753967854
  F   1.66537046054557     -0.35462838377554     -1.33859087501358
  H   -0.95026797556471     -0.31820809556828     -1.10618893835496
  H   1.56318268840400      0.00898959129438      0.64270822021463
  C   0.85680702454177     -1.93072596675342      0.17554398761802
  N   0.72638848543877     -3.07316705210477      0.41120331279395
  N   -0.18995280325446      1.59091422059028     -0.63646592768202
  O   -0.83970694394142      2.01637689030293     -1.58346418723269
  O   0.57443878047901      2.21499093248679      0.09171716047288
  N   -1.15664632615833      0.07458051447349      0.95898929376279
  O   -2.37160404299918      0.17432159419074      0.82914935464398
  O   -0.52163065937163     -0.02816784301589      2.00508245776313
