13
Coordinates from ORCA-job run
  C   0.64329478845553     -0.86812755996914     -0.52491341943892
  C   -0.52540054000233      0.10157575743234     -0.39491734762596
  F   0.12033415292621     -2.13924326718561     -0.53423249466699
  H   -1.17265368590405      0.04773193410691     -1.26966776242316
  H   1.12395594057852     -0.68319209710012     -1.48847473909893
  C   1.64523403393458     -0.72154330762781      0.53613754801376
  N   2.51049476955480     -0.58584878804807      1.31737127954385
  N   0.00519560337753      1.50822374066214     -0.30873123167461
  O   -0.26885960587994      2.17409118466515      0.67779693691910
  O   0.68318275295133      1.83635164910288     -1.27571382506415
  N   -1.37749274446198     -0.16850477961324      0.80133542674642
  O   -2.56449528878049      0.10962105538304      0.66540967438172
  O   -0.82279017674974     -0.61113552180848      1.79959995438789
