13
Coordinates from ORCA-job run
  C   0.76583017048478     -0.81801311541744     -0.44377094068649
  C   -0.45199246359044      0.10063266086216     -0.48061574085825
  F   0.30187325620032     -2.09887250947592     -0.65038221889072
  H   -1.03382152424914     -0.07132322826690     -1.38596145418511
  H   1.43461075162040     -0.54965379010683     -1.26418904258074
  C   1.50046540264472     -0.75999474309317      0.82336172441182
  N   2.11448071523558     -0.77291619451252      1.82369423548221
  N   -0.06856970320713      1.54727360436918     -0.44254847719233
  O   1.13078686628103      1.81068119761491     -0.44481457913652
  O   -1.00407960121681      2.33555569515493     -0.43879472382222
  N   -1.35496596546407     -0.16610712931202      0.68732180685150
  O   -1.04144758066626      0.36612167448835      1.74547075604266
  O   -2.29417032407299     -0.92238412230474      0.47122865456423
