13
Coordinates from ORCA-job run
  C   0.67581487391250     -0.83812076311269     -0.53241272448170
  C   -0.53157395308043      0.08088296955926     -0.39103085737141
  F   0.20623946745650     -2.12993762148299     -0.54569502600739
  H   -1.18175682033535      0.00340235308278     -1.26186080779767
  H   1.14310762368931     -0.62850346264573     -1.49749969131981
  C   1.67697968252849     -0.65498463459712      0.52366981795379
  N   2.54443067493324     -0.48432616725510      1.29558221189315
  N   -0.06078648567476      1.50850133695302     -0.30199777351314
  O   0.59874116383944      1.86861328459571     -1.27033807581703
  O   -0.35938575982513      2.15890052427695      0.68777071873733
  N   -1.36392412952469     -0.22983538368033      0.80947938960090
  O   -0.78440341659895     -0.65249604263325      1.80225616809548
  O   -2.56248292132025     -0.00209639306051      0.68207665002751
