14

C	-0.48042	0.156595	-1.423792
C	0.0	0.0	0.0
F	-1.789787	0.59996	-1.453066
H	1.089827	0.0	0.0
H	-0.289562	0.938794	0.484437
N	0.357354	0.997203	-2.136902
H	-0.055047	1.549014	-2.864921
H	1.230422	1.279195	-1.718257
N	-0.56903	-1.197515	-2.171662
O	0.045375	-2.149447	-1.707456
O	-1.187502	-1.178044	-3.230591
C	-0.598269	-1.089646	0.75508
N	-1.119949	-1.912996	1.40919
Br	3.444629	0.0	0.0
