14

C	-0.328999	0.145062	-1.471251
C	0.0	0.0	0.0
F	-1.654401	0.454406	-1.704809
H	1.092132	0.0	0.0
H	-0.381946	-0.938383	0.39744
N	0.503014	1.067046	-2.087895
H	1.460703	0.985741	-1.748457
H	0.464444	0.991702	-3.095381
N	-0.263257	-1.276288	-2.14832
O	-0.645611	-2.247086	-1.504192
O	0.09223	-1.295912	-3.323632
C	-0.516361	1.128817	0.75906
N	-0.937816	2.02076	1.39464
Br	3.438276	0.0	0.0
