14

C	-0.543572	0.01712	-1.410005
C	0.0	0.0	0.0
F	0.007894	-1.060469	-2.080183
H	1.089912	0.0	0.0
H	-0.29704	-0.965618	0.425328
N	-1.948083	0.039956	-1.482813
H	-2.251276	-0.022711	-2.448896
H	-2.352962	-0.703663	-0.929685
N	-0.075558	1.227461	-2.206158
O	-0.458002	1.252854	-3.376435
O	0.61819	2.063362	-1.645604
C	-0.54716	1.067066	0.827524
N	-0.980329	1.907863	1.521652
Br	3.524764	0.0	0.0
