14

C	-0.397373	0.172958	-1.464983
C	0.0	0.0	0.0
F	-1.685234	0.61558	-1.555652
H	1.091759	0.0	0.0
H	-0.308357	0.920076	0.508146
N	0.445104	1.042705	-2.210556
H	0.365097	1.972573	-1.811411
H	1.411383	0.741183	-2.08144
N	-0.357337	-1.188716	-2.158499
O	-1.417039	-1.796072	-2.263015
O	0.745884	-1.569005	-2.52595
C	-0.594175	-1.140714	0.676511
N	-1.092222	-2.044372	1.236739
Br	3.44228	0.0	0.0
