14

C	-0.361385	0.131669	-1.476018
C	0.0	0.0	0.0
F	-0.223954	1.453109	-1.803058
H	1.092332	0.0	0.0
H	-0.391355	0.844005	0.569348
N	0.369506	-0.663287	-2.378062
H	-0.034425	-1.581775	-2.471586
H	1.337042	-0.719968	-2.06927
N	-1.862028	-0.165074	-1.645991
O	-2.195267	-1.198277	-2.218743
O	-2.621123	0.652255	-1.138706
C	-0.482421	-1.261398	0.546006
N	-0.890957	-2.278165	0.968371
Br	3.432505	0.0	0.0
