17
Coordinates from ORCA-job run
  C   0.66331246195373      0.25834101078909     -0.64986538194875
  C   -0.52815341538052     -0.60524053353783     -0.20029067911722
  F   0.33552346200219      0.80755674374183     -1.89066631992775
  H   -0.74092674460310     -1.26803731755227     -1.05364830851062
  C   1.82253662646180     -0.63114161935468     -0.86034770682531
  N   2.72377515436941     -1.37138985316641     -0.99702582619769
  C   1.02321704205275      1.38081351655497      0.29982567278877
  H   1.19506879659128      0.97464168007677      1.29614311775671
  H   0.20571980885595      2.10158728676078      0.33372350625779
  H   1.92130090758951      1.89122675055994     -0.05082964094126
  C   -1.75990708351014      0.24215758715950      0.07400222023791
  H   -1.95043065282741      0.93219322674771     -0.74873071705822
  H   -1.63986377474005      0.80679377872428      1.00059591296373
  H   -2.63542396914210     -0.40366827413225      0.18107245105494
  N   -0.13596076528959     -1.32170525757643      1.00887311926713
  H   -0.95886283038619     -1.68173948221486      1.47646283386583
  H   0.45607497600250     -2.11238924358015      0.78070574633401
