17
Coordinates from ORCA-job run
  C   0.83873847965922      0.13826459615490     -0.47727926318629
  C   -0.55412076321059     -0.49772523709117     -0.36009528060258
  F   1.41652059772750     -0.31575684643772     -1.65500760158575
  H   -1.03955688381272     -0.26982272743439     -1.31628545109135
  C   1.67239827735793     -0.32968617807143      0.64727680906327
  N   2.28121067546479     -0.68378680787780      1.58665999253499
  C   0.83042542857416      1.65562920363582     -0.53488060350968
  H   1.83231271109482      2.00381410592001     -0.78988342645890
  H   0.53912125851257      2.09557860446570      0.41858510302731
  H   0.13738435350406      1.98272814303574     -1.31349743189027
  C   -1.36619037234536      0.09991804252251      0.78793966527477
  H   -2.32006932729988     -0.42656735210069      0.86358330815737
  H   -0.83876749515530     -0.02690255531381      1.73884403245617
  H   -1.57978107807728      1.16162763584738      0.64937254237978
  N   -0.38781215838430     -1.94381285419161     -0.28703749075797
  H   -0.24507573494136     -2.23427540352390      0.67400301504010
  H   -1.21573796866827     -2.41122436953954     -0.63229791885096
