17
Coordinates from ORCA-job run
  C   0.57353782762280      0.49816894182976     -0.19032800341928
  C   -0.54070845367680     -0.54840679705095      0.04803343925512
  F   0.08267233640653      1.73777244437340      0.23302605293657
  H   -0.14556954442531     -1.51018627149432     -0.30065262526116
  C   0.86962039279353      0.60232079399729     -1.62976072181039
  N   1.12109095309760      0.63996325520513     -2.77621579677359
  C   1.85245617860774      0.22652376650143      0.57806687527146
  H   2.58867345659201      1.00143944084455      0.36157435042617
  H   1.64215188151608      0.24139592578473      1.64739034470319
  H   2.26844659500444     -0.74414836288714      0.30036443798489
  C   -1.79322025160587     -0.20343288295568     -0.74803034982078
  H   -2.18178515995433      0.76943038927454     -0.43843057166527
  H   -2.55408127600730     -0.95774741034584     -0.54769358144855
  H   -1.59937972614519     -0.16950101851373     -1.82165040641049
  N   -0.89799198848005     -0.69873077625051      1.44908294121131
  H   -1.14852469642568      0.20211252146914      1.84032077809337
  H   -0.13938852492020     -1.08697395978180      1.99390283672744
