17
Coordinates from ORCA-job run
  C   0.56926131060594      0.58625792228197     -0.20868089485377
  C   -0.38577158996930     -0.56779433217104      0.13380820710169
  F   -0.11989846593886      1.77964304799085      0.04306677976292
  H   0.17862923143078     -1.49429223752182     -0.02564460580161
  C   0.89591972407893      0.56538295840698     -1.64662626683987
  N   1.18093805101653      0.51845220104681     -2.78451386540170
  C   1.83851198091497      0.59370301168220      0.61845401203693
  H   2.43657436944699     -0.29319352584388      0.39911937805425
  H   2.42416170366882      1.48326058057191      0.38173776616010
  H   1.56489527818043      0.59038563792506      1.67159997025590
  C   -1.62009056118015     -0.56586452680545     -0.76755705988328
  H   -2.29635286793473     -1.36829472759203     -0.46339309183314
  H   -2.15169041656844      0.38410714333930     -0.67488887262626
  H   -1.36567382305875     -0.71779772535143     -1.81914282648474
  N   -0.68166511073135     -0.47466453903924      1.56085328432092
  H   -1.31733753234073      0.29987228805856      1.71607304259061
  H   -1.15041128162107     -1.31916317697876      1.86473504344102
