15

C	0.0	0.0	0.0
C	-0.539213	-0.095445	-1.404315
F	1.367033	0.0	0.0
H	-0.362299	0.891981	-1.844955
H	-1.624456	-0.214623	-1.309048
C	-0.429132	1.218188	0.703594
N	-0.598792	2.259646	1.219019
N	-0.359264	-1.199886	0.887367
O	-0.831486	-2.194579	0.357323
O	-0.045726	-1.077717	2.06786
C	0.114505	-1.171099	-2.267415
H	1.204839	-1.110452	-2.234088
H	-0.193871	-2.166788	-1.95593
H	-0.197246	-1.028529	-3.30455
Br	-3.740745	0.0	0.0
