15

C	0.0	0.0	0.0
C	-0.441904	-0.013428	-1.452838
F	1.369735	0.0	0.0
H	-1.516186	-0.201917	-1.472378
H	-0.290502	1.017227	-1.793921
C	-0.433002	1.18943	0.746065
N	-0.545324	2.230733	1.278287
N	-0.374532	-1.2458	0.795858
O	-0.512164	-2.28765	0.168926
O	-0.380339	-1.123088	2.015472
C	0.359157	-0.958624	-2.348886
H	0.092209	-0.763721	-3.390443
H	0.135845	-2.000182	-2.128743
H	1.434645	-0.802349	-2.2468
Br	-3.514194	0.0	0.0
