15

C	0.0	0.0	0.0
C	-0.544103	-0.415933	-1.338152
F	1.35824	0.0	0.0
H	-0.071062	0.252562	-2.066009
H	-0.172532	-1.426642	-1.521761
C	-0.452647	1.329805	0.426621
N	-0.752025	2.436566	0.680187
N	-0.353935	-1.008284	1.103785
O	-0.315042	-0.58169	2.252094
O	-0.515839	-2.172698	0.75665
C	-2.06493	-0.343194	-1.422286
H	-2.448155	0.670394	-1.310394
H	-2.392598	-0.713025	-2.39422
H	-2.571208	-0.938014	-0.665235
Br	-5.318711	0.0	0.0
