15

C	0.0	0.0	0.0
C	-0.550235	-0.337913	-1.357261
F	1.372684	0.0	0.0
H	-0.045217	0.334435	-2.05985
H	-0.223547	-1.356763	-1.57745
C	-0.43176	1.313764	0.496059
N	-0.674134	2.41904	0.808973
N	-0.375721	-1.069317	1.033636
O	-0.21748	-2.227103	0.667483
O	-0.711767	-0.689057	2.148805
C	-2.066407	-0.184105	-1.417316
H	-2.452538	-0.565994	-2.363027
H	-2.600056	-0.716395	-0.629434
H	-2.377753	0.857058	-1.329076
Br	-5.311037	0.0	0.0
