15

C	0.0	0.0	0.0
C	-0.536816	0.331985	-1.365025
F	1.358498	0.0	0.0
H	0.028016	1.215393	-1.686176
H	-0.260294	-0.495507	-2.023023
C	-0.446016	0.927825	1.048842
N	-0.724711	1.74152	1.848769
N	-0.363086	-1.426143	0.453852
O	-0.808743	-2.199423	-0.382357
O	-0.062841	-1.687598	1.613019
C	-2.03611	0.601854	-1.380307
H	-2.283942	1.505502	-0.824228
H	-2.374337	0.735473	-2.409414
H	-2.643366	-0.192984	-0.949431
Br	-5.215097	0.0	0.0
