17

C	-0.509236	-0.007023	-1.428624
C	0.0	0.0	0.0
F	0.227904	-0.710334	-2.273896
H	1.093928	0.0	0.0
N	-1.951262	-0.488579	-1.539714
O	-2.65135	-0.336905	-0.545552
O	-2.294285	-0.947275	-2.619224
N	-0.547753	1.434881	-1.949045
O	-1.625382	2.015661	-1.917185
O	0.523108	1.86105	-2.348841
N	-0.37045	-1.339414	0.627874
O	-0.446265	-2.310004	-0.121176
O	-0.517845	-1.358361	1.844019
N	-0.442764	1.127101	0.725261
H	0.204191	1.325637	1.474739
H	-1.383316	1.015629	1.077427
Cl	3.173445	0.0	0.0
