17

C	-0.505462	0.017833	-1.433462
C	0.0	0.0	0.0
F	0.086986	1.00421	-2.099352
H	1.093274	0.0	0.0
N	-0.294704	-1.253137	-2.258318
O	0.831527	-1.397947	-2.700036
O	-1.268333	-1.978825	-2.420575
N	-2.006612	0.268826	-1.479702
O	-2.435449	0.878351	-2.449022
O	-2.655968	-0.18757	-0.545961
N	-0.393007	-1.273639	0.714855
O	-0.137216	-2.325088	0.137024
O	-0.880969	-1.173177	1.836056
N	-0.450084	1.186997	0.64042
H	0.289134	1.535971	1.235536
H	-1.277585	1.007062	1.193296
Cl	3.17015	0.0	0.0
