17

C	-0.721843	-0.016486	-1.331952
C	0.0	0.0	0.0
F	-2.040475	-0.169543	-1.141479
H	1.089939	0.0	0.0
N	-0.511375	1.328058	-2.031464
O	0.640425	1.581897	-2.344435
O	-1.510555	2.007995	-2.21228
N	-0.270192	-1.045337	-2.35325
O	-1.153199	-1.478579	-3.087034
O	0.923837	-1.289231	-2.387937
N	-0.388258	-1.304457	0.700532
O	-0.5966	-1.253625	1.908062
O	-0.433342	-2.319102	0.009961
N	-0.410596	1.161456	0.704488
H	-1.307339	1.053363	1.16233
H	0.301817	1.417167	1.377201
Cl	3.180751	0.0	0.0
