17

C	-0.411173	-0.002436	-1.449745
C	0.0	0.0	0.0
F	0.360822	-0.748252	-2.235416
H	1.093906	0.0	0.0
N	-1.854712	-0.413105	-1.690055
O	-2.124417	-0.878241	-2.788162
O	-2.622729	-0.224876	-0.753885
N	-0.308291	1.437042	-1.961726
O	0.833592	1.811479	-2.172122
O	-1.348481	2.060909	-2.123685
N	-0.413731	-1.335525	0.597442
O	-0.483875	-2.307034	-0.157671
O	-0.457313	-1.379045	1.825096
N	-0.489056	1.121058	0.695704
H	-1.486083	1.06249	0.861347
H	0.006243	1.251568	1.566416
Cl	2.681099	0.0	0.0
