12

C	-0.016142	0.001018	0.00774
C	-0.530577	0.16715	-1.410759
F	1.400892	-0.06639	-0.036683
H	0.337925	0.199595	-2.088666
H	-0.291309	0.849079	0.623103
H	-0.395759	-0.915265	0.43454
C	-1.315698	1.381287	-1.605333
N	-1.7101	2.452934	-1.882911
N	-1.297565	-1.034776	-1.897546
O	-2.102709	-0.855417	-2.801228
O	-0.936902	-2.128518	-1.479013
F	-2.396206	-0.004071	-0.028707
