12

C	-0.079582	-0.211375	0.046698
C	-0.485198	-0.334705	-1.409583
F	1.282716	0.111786	0.098273
H	-0.429647	0.631427	-1.896482
H	-0.212947	-1.159878	0.569312
H	-0.696532	0.59845	0.428176
C	-1.825872	-0.892231	-1.559669
N	-2.745783	-1.59236	-1.780396
N	0.493674	-1.26776	-2.101121
O	0.646447	-2.390714	-1.627013
O	1.081356	-0.832016	-3.089932
F	-2.148648	1.234993	-0.663467
