12

C	-0.014537	-0.004441	0.009986
C	-0.524894	0.327229	-1.380789
F	1.402473	-0.07584	-0.040588
H	0.345333	0.423108	-2.05054
H	-0.285798	0.768679	0.718567
H	-0.401273	-0.96131	0.32735
C	-1.291098	1.567325	-1.438745
N	-1.676005	2.666735	-1.593328
N	-1.308539	-0.800773	-1.999846
O	-2.11114	-0.508809	-2.875967
O	-0.962033	-1.939698	-1.709692
F	-2.392825	0.01713	-0.025873
