12

C	-0.089125	-0.210986	0.054719
C	-0.496651	-0.374231	-1.397081
F	1.28136	0.076924	0.097434
H	-0.415011	0.572509	-1.917247
H	-0.248499	-1.136513	0.610215
H	-0.684566	0.627915	0.406453
C	-1.851653	-0.900755	-1.529763
N	-2.789423	-1.583832	-1.727529
N	0.457221	-1.356849	-2.054
O	0.579742	-2.466069	-1.540433
O	1.056753	-0.972059	-3.056746
F	-2.117484	1.265228	-0.709064
