12

C	-0.103744	-0.222487	0.030773
C	-0.496419	-0.200394	-1.434084
F	1.277018	-0.002115	0.119496
H	-0.366632	0.795298	-1.840674
H	-0.310759	-1.197413	0.474863
H	-0.667728	0.596325	0.470619
C	-1.870878	-0.646986	-1.639474
N	-2.834956	-1.259964	-1.922051
N	0.423311	-1.143111	-2.190324
O	0.491131	-2.307766	-1.805401
O	1.052225	-0.674033	-3.137647
F	-2.053637	1.422207	-0.578665
