13
Coordinates from ORCA-job run
  C   -0.54911486918793      0.35519281381193     -0.13896826431902
  C   0.44622610881722     -0.39373196823682      0.73840633701536
  H   -0.49244390421973      1.41450159966790      0.11821706587797
  H   0.46969399769025     -1.46111056419032      0.52174886648358
  H   0.19090750031562     -0.22827475204189      1.78593986713649
  N   -1.88404051721246     -0.13097230660270      0.18132184697454
  H   -2.58241606529858      0.48055435308868     -0.22308151681573
  H   -2.02486059173749     -1.05503456091109     -0.21049416794402
  C   -0.17938973434149      0.21649053314648     -1.56302865609345
  N   0.06359557644890      0.06173145457814     -2.70192470042333
  N   1.83520754974221      0.11656263704577      0.53553629661299
  O   1.96326603152705      1.33206449949360      0.40669140278051
  O   2.74336891745643     -0.70797373884969      0.54963562271410
