13
Coordinates from ORCA-job run
  C   -0.69818413175766      0.35496427340669     -0.01312737054791
  C   0.83163634039265      0.37621191861916      0.08750705555835
  H   -1.10504722384208      0.49786921665843      0.99110242377001
  H   1.30884751726432      0.24872908521162     -0.88390275604878
  H   1.19681374232366      1.29068108802413      0.56200100805593
  N   -1.28112290843819     -0.85928985733703     -0.54989794718014
  H   -1.17233597447213     -1.62053935757752      0.10711579449720
  H   -0.86260454097834     -1.11381414467272     -1.43596994308543
  C   -1.09513856337197      1.50852168121808     -0.83372280808890
  N   -1.36471434508686      2.43357915787925     -1.50396103510125
  N   1.29601634336610     -0.76009999402533      0.94066683656889
  O   0.61793617438848     -1.02588428426095      1.93157263590253
  O   2.32689757021202     -1.33192878314381      0.60161610569951
