16

C	-0.401842	-0.039422	-1.493683
C	0.0	0.0	0.0
Cl	0.066915	1.5128	-2.272795
H	1.096302	0.0	0.0
C	0.333353	-1.175806	-2.194827
H	1.398907	-1.060908	-1.974385
H	-0.016261	-2.134654	-1.806828
H	0.149674	-1.141512	-3.270363
C	-1.854562	-0.178245	-1.637324
N	-3.016546	-0.346967	-1.709706
N	-0.366533	-1.192548	0.737186
H	-1.258011	-1.584764	0.463732
H	0.377913	-1.871731	0.644941
C	-0.540139	1.18657	0.65758
N	-0.974472	2.141654	1.188407
H	2.696946	0.0	0.0
