16

C	-0.305941	0.032675	-1.500085
C	0.0	0.0	0.0
Cl	-2.111552	0.075489	-1.812173
H	1.097689	0.0	0.0
C	0.359926	1.227693	-2.156232
H	0.229706	1.205579	-3.239659
H	1.42391	1.176176	-1.890153
H	-0.069135	2.14815	-1.757481
C	0.158986	-1.219865	-2.10333
N	0.49266	-2.225167	-2.612078
N	-0.417274	-1.180701	0.722856
H	0.322829	-1.869049	0.638087
H	-1.283725	-1.559547	0.360205
C	-0.489035	1.218294	0.632477
N	-0.856012	2.214234	1.139103
H	2.644784	0.0	0.0
