16

C	-0.454554	-0.077599	-1.468309
C	0.0	0.0	0.0
Cl	-0.106742	1.495286	-2.276608
H	1.095179	0.0	0.0
C	0.325134	-1.177553	-2.174842
H	0.079071	-1.198744	-3.238372
H	0.073065	-2.13181	-1.711762
H	1.388566	-0.976698	-2.021012
C	-1.90101	-0.300701	-1.553995
N	-3.05725	-0.509756	-1.596988
N	-0.352089	-1.249606	0.668318
H	-1.16101	-1.147647	1.267694
H	0.452194	-1.525136	1.225499
C	-0.521453	1.176211	0.686239
N	-0.954007	2.080565	1.302655
H	2.691387	0.0	0.0
