16

C	-0.519176	-0.007731	-1.452042
C	0.0	0.0	0.0
Cl	0.237835	-1.38981	-2.318469
H	1.094119	0.0	0.0
C	-2.028638	-0.177463	-1.525299
H	-2.358741	-0.245603	-2.563527
H	-2.519583	0.673256	-1.044708
H	-2.284776	-1.097216	-0.998263
C	-0.10692	1.222274	-2.133405
N	0.160728	2.219136	-2.6966
N	-0.38288	-1.227975	0.693428
H	0.484665	-1.620708	1.057576
H	-0.999366	-1.036042	1.472792
C	-0.495209	1.193189	0.668273
N	-0.912959	2.139826	1.23073
H	2.63576	0.0	0.0
