16

C	-0.381898	-0.01135	-1.47246
C	0.0	0.0	0.0
Cl	-2.19611	0.096969	-1.687278
H	1.096599	0.0	0.0
C	0.289623	1.141767	-2.198805
H	0.102259	1.09145	-3.273163
H	-0.089268	2.089271	-1.810675
H	1.363497	1.067669	-1.986587
C	0.013924	-1.291729	-2.06375
N	0.35595	-2.290692	-2.578217
N	-0.413908	-1.200959	0.698115
H	-1.256449	-1.058296	1.238075
H	0.345068	-1.47644	1.31226
C	-0.438849	1.239041	0.633899
N	-0.795665	2.213742	1.188613
H	2.648755	0.0	0.0
