16

C	-0.457837	0.006492	-1.479223
C	0.0	0.0	0.0
Cl	0.181344	-1.471866	-2.286778
H	1.095572	0.0	0.0
C	-1.975209	0.010872	-1.653447
H	-2.391569	0.915422	-1.205008
H	-2.409247	-0.864386	-1.165395
H	-2.235938	-0.022336	-2.713249
C	0.097835	1.168201	-2.180234
N	0.444874	2.118774	-2.77809
N	-0.341507	-1.184267	0.765037
H	-1.153154	-1.670136	0.406851
H	0.466515	-1.798574	0.711388
C	-0.526182	1.20231	0.633692
N	-0.94484	2.193224	1.111664
H	2.63032	0.0	0.0
