14
Coordinates from ORCA-job run
  C   -0.54234095867541      0.16396215883983      0.17440800233067
  C   0.63699971311404      0.38393232461881     -0.76422880122485
  Cl  -2.06186279291464      0.04514975494809     -0.76148426491017
  H   0.46005806973796      1.31505315565183     -1.30473019278357
  H   1.51698508295444      0.54137161440107     -0.11055597753359
  N   -0.67413267121367      1.33634626972880      1.01592252227005
  H   0.16279556790274      1.44180445922305      1.57925858921031
  H   -1.47099504163959      1.23723717959660      1.63427191433968
  N   -0.36871285941429     -1.12678857917786      0.83344858232567
  H   -1.22665307403851     -1.40657233444440      1.29435344951075
  H   0.35428273563434     -1.03271701960696      1.54000148240797
  N   0.77359798453546     -0.71487217136969     -1.69844630322910
  H   1.61267489356670     -0.60191242232690     -2.25110143325868
  H   0.82930335045043     -1.58199439008227     -1.18011756945514
