14
Coordinates from ORCA-job run
  C   -0.56817813756637      0.00483870337512      0.16937795122321
  C   0.49119997337502     -0.51847529946682     -0.79193626135031
  Cl  -1.96417998701052      0.65086469079761     -0.74320104248452
  H   1.27070647427308     -0.98322864289458     -0.15725291681252
  H   0.03570876127710     -1.31282299520480     -1.38521191590599
  N   -0.00391401339758      1.13390007691368      0.90241871580946
  H   -0.73479988290448      1.64130456957722      1.38731006318674
  H   0.64593867699106      0.77539511664696      1.59520624081885
  N   -1.07000572264991     -1.11456036994982      0.94081391962844
  H   -1.80121222480031     -0.80692646881090      1.57158004896933
  H   -0.31414886860705     -1.51116429779365      1.48881305289115
  N   0.97535593857713      0.53522391810842     -1.66032725211744
  H   1.29588472649291      1.30836808656945     -1.09183968791641
  H   1.74164428594991      0.19728291213212     -2.22675091593999
