18

C	-0.3538	-0.014162	-1.452548
C	0.0	0.0	0.0
Br	-2.468209	-0.670334	-1.639243
H	1.090709	0.0	0.0
N	-0.119942	1.094254	-2.193728
H	-0.276631	0.973318	-3.182545
H	-0.443285	1.943838	-1.758562
N	0.286562	-1.185943	-2.218832
O	0.279213	-1.084001	-3.442609
O	0.761665	-2.118293	-1.591397
C	-0.448681	-1.172129	0.85741
H	0.250954	-1.263007	1.688237
H	-1.459233	-1.018927	1.242477
H	-0.42458	-2.091049	0.283157
N	-0.379617	1.24389	0.693568
O	-0.278784	1.223875	1.918213
O	-0.734658	2.262922	0.080257
F	2.451763	0.0	0.0
