18

C	-0.566703	-0.032339	-1.403376
C	0.0	0.0	0.0
Br	0.357307	-1.429452	-2.428016
H	1.087941	0.0	0.0
N	-1.958757	-0.273154	-1.491273
H	-2.416206	0.477953	-0.983306
H	-2.247048	-0.222182	-2.461418
N	-0.157903	1.26045	-2.184889
O	-0.909077	1.579463	-3.106159
O	0.868223	1.831678	-1.862285
C	-0.368918	-1.227661	0.821044
H	-0.004213	-2.114365	0.304199
H	0.156143	-1.156054	1.772438
H	-1.446127	-1.32602	0.985216
N	-0.487406	1.19471	0.712539
O	-0.132457	1.343177	1.878888
O	-1.233047	1.996892	0.121781
F	2.503782	0.0	0.0
