18

C	-0.36615	-0.01131	-1.463663
C	0.0	0.0	0.0
Br	-0.294418	1.804525	-2.39479
H	1.092169	0.0	0.0
N	0.468604	-0.970369	-2.034486
H	1.443675	-0.734985	-1.805992
H	0.284132	-1.111233	-3.020021
N	-1.846279	-0.378165	-1.681897
O	-2.104778	-1.214237	-2.5433
O	-2.672163	0.228318	-1.010372
C	-0.521118	-1.228093	0.723923
H	-0.228273	-2.118568	0.166923
H	-0.056486	-1.27456	1.71074
H	-1.604066	-1.199244	0.85001
N	-0.420195	1.233236	0.736229
O	-1.39899	1.173589	1.503413
O	0.293707	2.233535	0.605964
F	2.57503	0.0	0.0
