18

C	-0.541618	-0.027437	-1.412796
C	0.0	0.0	0.0
Br	0.404221	-1.423854	-2.417622
H	1.087956	0.0	0.0
N	-1.932521	-0.265952	-1.537623
H	-2.194209	-0.204303	-2.514689
H	-2.398822	0.480961	-1.032091
N	-0.121478	1.272183	-2.172516
O	0.860101	1.881436	-1.786696
O	-0.824439	1.567709	-3.13729
C	-0.427396	-1.206793	0.82424
H	-0.10256	-2.115565	0.318309
H	0.087336	-1.151033	1.783078
H	-1.511005	-1.253153	0.976586
N	-0.480404	1.209122	0.702661
O	-0.064977	1.397942	1.843924
O	-1.282019	1.970752	0.13357
F	2.510166	0.0	0.0
