17

C	0.0	0.0	0.0
C	-0.429478	-0.027697	-1.550895
Br	1.955995	0.0	0.0
H	0.498914	-0.182478	-2.107394
C	-0.325371	1.282131	0.660712
N	-0.529316	2.279666	1.249507
N	-0.550218	-1.121117	0.696302
H	-1.576662	-0.904538	0.598024
H	-0.297006	-1.046821	1.67814
C	-1.049211	1.297353	-1.973203
H	-0.376347	2.141833	-1.804171
H	-1.970944	1.412648	-1.400967
H	-1.278986	1.233	-3.039308
N	-1.339215	-1.095746	-1.896309
H	-0.946501	-1.970349	-1.566556
H	-2.178	-0.902491	-1.330244
F	-2.821818	0.0	0.0
