17

C	0.0	0.0	0.0
C	-0.141835	0.111206	-1.582496
Br	2.074984	0.0	0.0
H	0.638025	0.807349	-1.9138
C	-0.295014	1.293695	0.626736
N	-0.493069	2.333649	1.136845
N	-0.671406	-1.036096	0.614347
H	-1.732167	-0.653437	0.522765
H	-0.604576	-1.818599	-0.036453
C	-1.461697	0.649521	-2.113665
H	-1.372842	0.700458	-3.208602
H	-1.64233	1.658193	-1.7367
H	-2.30367	0.048428	-1.779547
N	0.078437	-1.239683	-2.102351
H	1.070326	-1.419201	-2.196066
H	-0.356152	-1.323673	-3.012028
F	-2.879404	0.0	0.0
