17

C	0.0	0.0	0.0
C	-0.474488	-0.011824	-1.463588
Br	1.969988	0.0	0.0
H	-1.563283	0.062222	-1.306876
C	-0.307903	1.322691	0.594648
N	-0.511485	2.335004	1.156903
N	-0.579137	-1.090564	0.709439
H	-1.617586	-0.854782	0.553709
H	-0.371961	-0.980883	1.698245
C	-0.126107	-1.314561	-2.171419
H	0.955495	-1.400839	-2.324527
H	-0.465183	-2.175622	-1.594634
H	-0.611364	-1.327481	-3.153086
N	0.001885	1.187416	-2.145424
H	-0.664043	1.448743	-2.860582
H	0.894974	1.007207	-2.59125
F	-2.810557	0.0	0.0
