17

C	0.0	0.0	0.0
C	-0.457907	0.033875	-1.462741
Br	2.047628	0.0	0.0
H	-1.543155	0.154097	-1.310394
C	-0.265483	1.307702	0.636451
N	-0.444151	2.301048	1.239887
N	-0.5766	-1.098251	0.680803
H	-0.408447	-0.989294	1.676104
H	-1.620918	-0.860512	0.502002
C	-0.180614	-1.28176	-2.176839
H	-0.644784	-1.253948	-3.16856
H	-0.593368	-2.120939	-1.615606
H	0.896107	-1.440152	-2.301945
N	0.072639	1.218049	-2.127412
H	0.981509	1.015354	-2.52872
H	-0.553056	1.483036	-2.876985
F	-2.797057	0.0	0.0
