12

C	0.0	0.0	0.0
C	-0.577723	0.27136	-1.389998
Br	1.951721	0.0	0.0
H	0.057371	0.998257	-1.902217
H	-0.323374	-0.978999	0.35311
H	-1.570369	0.700074	-1.223237
C	-0.381056	1.031925	0.964689
N	-0.606352	1.875142	1.751179
N	-0.640027	-0.984569	-2.133977
H	-1.566864	-1.367415	-1.968767
H	-0.566127	-0.793231	-3.125068
Br	-3.746493	0.0	0.0
