12

C	0.0	0.0	0.0
C	-0.480717	-0.260218	-1.458318
Br	1.95084	0.0	0.0
H	-0.206293	-1.294088	-1.691366
H	-0.335621	-0.782948	0.682202
H	0.123338	0.384279	-2.103442
C	-0.431668	1.306559	0.479742
N	-0.728721	2.393056	0.813797
N	-1.865749	-0.04035	-1.737414
H	-2.137336	0.92434	-1.60062
H	-2.521404	-0.574706	-1.172999
Br	-4.729902	0.0	0.0
