12

C	0.0	0.0	0.0
C	-0.551263	-0.050653	-1.416317
Br	1.956941	0.0	0.0
H	-1.637815	0.008576	-1.283736
H	-0.316825	-0.890115	0.542618
H	-0.211913	0.838417	-1.963468
C	-0.393571	1.209365	0.718444
N	-0.626971	2.19646	1.310387
N	-0.192752	-1.317319	-2.040724
H	0.618204	-1.211398	-2.635068
H	-0.967789	-1.640805	-2.603173
Br	-3.802804	0.0	0.0
