12

C	0.0	0.0	0.0
C	-0.577848	-0.112691	-1.414375
Br	1.948064	0.0	0.0
H	-1.544982	-0.611044	-1.300947
H	-0.298062	-0.86732	0.591364
H	0.095171	-0.737529	-2.007551
C	-0.41174	1.209365	0.706811
N	-0.64145	2.194665	1.303335
N	-0.697468	1.208338	-2.021257
H	-1.57884	1.591306	-1.685531
H	-0.796262	1.097761	-3.023475
Br	-3.682619	0.0	0.0
