12

C	0.0	0.0	0.0
C	-0.503076	-0.072488	-1.451958
Br	1.955273	0.0	0.0
H	0.035753	0.677168	-2.039239
H	-0.343079	-0.860325	0.574416
H	-1.563851	0.186376	-1.412911
C	-0.385003	1.237631	0.674677
N	-0.602397	2.244784	1.239018
N	-0.376414	-1.378799	-2.06926
H	-1.077209	-1.99092	-1.666588
H	0.542868	-1.770865	-1.899392
Br	-3.63421	0.0	0.0
