12

C	0.0	0.0	0.0
C	-0.479137	-0.105174	-1.474675
Br	1.951047	0.0	0.0
H	-0.128893	-1.075297	-1.842852
H	-0.331793	-0.851136	0.595673
H	0.063223	0.665046	-2.032474
C	-0.424709	1.247567	0.622548
N	-0.709496	2.291369	1.08058
N	-1.88181	0.036583	-1.717313
H	-2.47791	-0.626857	-1.233334
H	-2.242577	0.942964	-1.44727
Br	-4.775927	0.0	0.0
