12

C	0.0	0.0	0.0
C	-0.493723	-0.085457	-1.455969
Br	1.954959	0.0	0.0
H	0.025662	0.682643	-2.036358
H	-0.34496	-0.856054	0.579388
H	-1.560728	0.14297	-1.422317
C	-0.388891	1.246569	0.654628
N	-0.587504	2.28715	1.162471
N	-0.31888	-1.383579	-2.077193
H	-0.991537	-2.026175	-1.675249
H	0.615455	-1.73932	-1.910983
Br	-3.624342	0.0	0.0
