12

C	0.0	0.0	0.0
C	-0.454306	-0.305395	-1.474845
Cl	1.7861	0.0	0.0
H	-0.397403	-1.39573	-1.579903
H	-0.370513	-0.731962	0.714135
H	0.329569	0.11593	-2.113286
C	-0.405006	1.344026	0.406044
N	-0.609083	2.461528	0.703485
N	-1.73365	0.177673	-1.907564
H	-2.485064	-0.034949	-1.197949
H	-1.708323	1.1926	-1.927383
H	-3.500757	0.0	0.0
