12

C	0.0	0.0	0.0
C	-0.545424	0.171614	-1.432364
Cl	1.785436	0.0	0.0
H	-1.238517	1.018271	-1.419036
H	-0.325131	-0.96095	0.390154
H	0.288981	0.380982	-2.108829
C	-0.417234	1.069065	0.913558
N	-0.525349	1.962261	1.670258
N	-1.194872	-1.079739	-1.811656
H	-1.498448	-0.988476	-2.778868
H	-2.055335	-1.030535	-1.229634
H	-2.846919	0.0	0.0
