12

C	0.0	0.0	0.0
C	-0.54635	0.230155	-1.422922
Cl	1.786314	0.0	0.0
H	-1.244952	1.071271	-1.368228
H	-0.329583	-0.972389	0.355719
H	0.285269	0.469296	-2.090384
C	-0.409586	1.041601	0.94835
N	-0.517482	1.917436	1.725361
N	-1.200312	-1.000783	-1.853803
H	-2.063147	-0.969222	-1.273353
H	-1.498518	-0.869527	-2.818576
H	-2.860878	0.0	0.0
