18

C	-0.584376	-0.022859	-1.413853
C	0.0	0.0	0.0
Br	0.118786	-1.48355	-2.468235
H	1.092498	0.0	0.0
N	-2.007464	-0.114096	-1.39446
H	-2.378996	0.790286	-1.126077
H	-2.350215	-0.320108	-2.325163
N	-0.116867	1.284023	-2.126348
O	1.069942	1.408643	-2.381545
O	-0.991782	2.136694	-2.314895
N	-0.402014	-1.235586	0.653559
H	-1.321949	-1.1467	1.067083
H	0.279184	-1.457256	1.368629
C	-0.440019	1.266139	0.74459
H	-0.107768	2.182876	0.251932
H	0.026658	1.243674	1.731908
H	-1.527189	1.305597	0.883156
Br	3.599975	0.0	0.0
