18

C	-0.276347	-0.040214	-1.505689
C	0.0	0.0	0.0
Br	-0.192848	1.823662	-2.34921
H	1.104828	0.0	0.0
N	0.606771	-0.938459	-2.083489
H	0.499893	-1.046894	-3.081294
H	1.568295	-0.741893	-1.800165
N	-1.714214	-0.446745	-1.826845
O	-2.605553	0.132083	-1.223895
O	-1.875871	-1.314243	-2.680535
N	-0.519867	-1.283649	0.507317
H	-0.405308	-1.276743	1.51529
H	0.089325	-2.014112	0.153239
C	-0.551869	1.144916	0.81692
H	-0.179371	1.037562	1.840362
H	-1.641841	1.13001	0.827032
H	-0.200324	2.103829	0.440892
Br	3.561343	0.0	0.0
