18

C	-0.563871	-0.000385	-1.419047
C	0.0	0.0	0.0
Br	0.36034	-1.474832	-2.466299
H	1.093993	0.0	0.0
N	-1.953674	-0.116341	-1.413541
H	-2.195645	-0.869323	-0.779898
H	-2.340258	-0.241501	-2.337398
N	-0.202243	1.2351	-2.227652
O	-0.906465	1.460377	-3.210166
O	0.766172	1.889951	-1.868917
N	-0.516604	-1.238304	0.623361
H	0.127878	-1.98578	0.384457
H	-0.44432	-1.121031	1.62785
C	-0.503951	1.194902	0.793461
H	-1.589132	1.173486	0.899313
H	-0.044228	1.169189	1.783515
H	-0.203537	2.131738	0.331358
Br	3.6236	0.0	0.0
