18

C	-0.545154	-0.048381	-1.436025
C	0.0	0.0	0.0
Br	0.259439	-1.491032	-2.460309
H	1.092029	0.0	0.0
N	-1.956633	-0.228687	-1.456695
H	-2.287185	-0.311977	-2.41017
H	-2.392864	0.588791	-1.045979
N	-0.13095	1.266093	-2.155332
O	-1.047877	2.058578	-2.391845
O	1.05355	1.455946	-2.37059
N	-0.407827	-1.18318	0.750663
H	0.300642	-1.89591	0.628922
H	-1.287078	-1.533902	0.389484
C	-0.482431	1.258446	0.72019
H	-0.197027	2.17821	0.205022
H	-1.566432	1.249752	0.880101
H	-0.004721	1.257418	1.699886
Br	3.606516	0.0	0.0
