18

C	-0.538962	0.006807	-1.430242
C	0.0	0.0	0.0
Br	0.378228	-1.489212	-2.453445
H	1.093994	0.0	0.0
N	-1.931516	-0.08102	-1.458572
H	-2.291638	-0.196456	-2.395095
H	-2.198864	-0.835492	-0.835089
N	-0.124586	1.228796	-2.234347
O	0.85472	1.857587	-1.857262
O	-0.80994	1.479352	-3.224057
N	-0.536517	-1.231223	0.615889
H	0.105607	-1.985281	0.390905
H	-0.484955	-1.111666	1.621517
C	-0.506228	1.207209	0.778753
H	-1.596121	1.201257	0.853069
H	-0.071535	1.175441	1.78197
H	-0.175083	2.136284	0.3174
Br	3.625723	0.0	0.0
