18

C	-0.263838	0.197972	-1.508847
C	0.0	0.0	0.0
Br	-2.082399	0.842936	-1.857723
H	1.102581	0.0	0.0
N	0.678629	1.047007	-2.180877
H	1.608316	0.839918	-1.797988
H	0.463697	2.016647	-1.984424
N	-0.110129	-1.164729	-2.226327
O	0.899045	-1.776912	-1.895061
O	-0.906835	-1.515666	-3.088327
N	-0.531951	-1.200822	0.60275
H	-0.018349	-2.007551	0.270718
H	-1.516557	-1.309706	0.378688
C	-0.421521	1.216401	0.81135
H	-1.501638	1.233552	0.971329
H	-0.123815	2.151863	0.334321
H	0.077171	1.152537	1.778711
Br	3.571994	0.0	0.0
