15
Coordinates from ORCA-job run
  C   -0.51554388183018     -0.48927737566211      0.74155952303420
  C   0.69870926073002      0.36396083378604      0.41273110390771
  Br  -1.54450574542457      0.49043487198625      2.08197100768957
  H   1.28450138039194      0.58416955270573      1.30583747453830
  H   -0.13199377066251     -1.36641042293854      1.26228339102425
  C   -1.40398970079825     -0.90798476549271     -0.41494188469906
  H   -2.16200373426571     -1.59792032117990     -0.04179910680620
  H   -0.81292549770578     -1.42662451432562     -1.17284499531467
  H   -1.89922844742020     -0.05602208445794     -0.87453132731255
  N   0.36248346708165      1.68051564940126     -0.20892681892819
  O   0.72299006635630      2.68017517818063      0.40425777757466
  O   -0.24196811768926      1.64552620506792     -1.27559868122202
  N   1.63821840871276     -0.35708760543058     -0.53362985807854
  O   1.71509232975296     -1.57074828591515     -0.37782186439502
  O   2.29016398277084      0.32829308427473     -1.30854574101244
