15
Coordinates from ORCA-job run
  C   -0.59798812204677     -0.54456371482153      0.63119625468810
  C   0.67871713205143      0.27146283321024      0.50743312542692
  Br  -1.69242625523450      0.32707177992750      1.99318586237022
  H   1.20656712475682      0.32933866434690      1.45984433271214
  H   -0.30012412808049     -1.49597474230071      1.07146381751134
  C   -1.39924555041835     -0.77874868157255     -0.63578366567686
  H   -1.81240899733166      0.14582321345147     -1.03107265515149
  H   -2.21703587875168     -1.46475656007164     -0.41109209961067
  H   -0.76727615914935     -1.24033879704648     -1.39811548347384
  N   0.46225674762691      1.67990788345147      0.05822778079677
  O   -0.10968195233613      1.83522650978467     -1.01526355954277
  O   0.88184407177186      2.55806655790511      0.80562424622739
  N   1.64376470229392     -0.37724180177539     -0.46513085339288
  O   1.69778184234824     -1.60045802913539     -0.40360780423178
  O   2.32625542249976      0.35618488464633     -1.16590929865260
