15
Coordinates from ORCA-job run
  C   -0.66106829698001     -0.22521360316954      0.60139816747038
  C   0.26301385098276      0.64295528277719     -0.21834819832110
  Br  -2.06955470322666      0.93886106730710      1.27906203635163
  H   -0.23342021635938      1.19299656433642     -1.01442310612303
  H   -0.11657427335720     -0.58406960726795      1.47450945848731
  C   -1.25057702528720     -1.36009232915364     -0.21648750282692
  H   -0.46335216437105     -2.05824357642802     -0.51268725164259
  H   -1.97877926104713     -1.90748937838874      0.38194285181661
  H   -1.75037439343917     -0.98631352522150     -1.11224074434646
  N   1.30808171266247     -0.22464763140963     -0.86647099105789
  O   2.05804751472622     -0.83277545116504     -0.10932847602826
  O   1.28493540098916     -0.28058506127043     -2.09183588938054
  N   1.01148821478581      1.65024955813412      0.61150785221922
  O   1.31135134160951      2.68784919666670      0.02628727154507
  O   1.28778229831186      1.34551849425295      1.76511452183656
