15
Coordinates from ORCA-job run
  C   -0.39974247367552     -0.68656544688892      0.51561266223371
  C   0.67569255394647      0.01824551086040     -0.29183436964120
  Br  -0.51633807940891     -0.03873465995771      2.34509873799826
  H   0.85038154390814     -0.53071416916610     -1.21922325799099
  H   -0.07404333337694     -1.72268273271181      0.61156632716698
  C   -1.74903613537585     -0.59248484519252     -0.17757297698435
  H   -1.66984659022193     -0.93641848108082     -1.21343520637370
  H   -2.47623197957913     -1.21573690353851      0.34257249704106
  H   -2.11815513807578      0.43434270035834     -0.17621818173371
  N   2.00641709737293      0.04472166406431      0.41494910501864
  O   2.62281871069369      1.09844396060363      0.46527692580477
  O   2.36681286956838     -1.04987677894012      0.82938039311033
  N   0.27371507333946      1.39563959464659     -0.70563411548413
  O   0.06364213339940      2.21717320255370      0.17756943063099
  O   0.14391374748559      1.56364738438955     -1.91810797079667
