15
Coordinates from ORCA-job run
  C   -0.72549816504250     -0.19321254940691      0.53579851859382
  C   0.28477307544124      0.63110084373910     -0.22543294837519
  Br  -2.20321039119005      0.99751756419979      0.97720794178915
  H   -0.11862211889782      1.12835248571833     -1.10450688680885
  H   -0.28297841137767     -0.49471568148865      1.48494324168072
  C   -1.21588757093308     -1.38036616964402     -0.27350875598403
  H   -0.39919194152909     -2.08908427927539     -0.43355557299585
  H   -2.00817268385122     -1.89624772176673      0.26886318344320
  H   -1.60861009620636     -1.06562461435516     -1.24234480285707
  N   1.39738691174948     -0.26594172028483     -0.69736259048270
  O   1.51119931403364     -0.39814306689749     -1.91177997516312
  O   2.05933249130204     -0.81908480937978      0.17526603182376
  N   0.93398492185507      1.69227078992909      0.62074769089966
  O   1.07600498055657      1.46107191350173      1.81511780258345
  O   1.30148968408973      2.69310701541090      0.01054712185305
