15
Coordinates from ORCA-job run
  C   -0.85809547864900     -0.12560706142084      0.31663636846495
  C   0.58263196869790      0.33280092880470      0.17763299502350
  Br  -2.02008213041162      0.74135591664151     -0.98026203462094
  H   1.24341881190344     -0.30142091232594      0.77183652967716
  H   -1.20269282444200      0.23226715485966      1.28804253522045
  C   -0.99418178759924     -1.63648092135344      0.21330369463663
  H   -0.70996955492489     -1.99529841772000     -0.77499026522805
  H   -0.35539512841119     -2.12181967602326      0.95728077439378
  H   -2.02856837688162     -1.92228138505305      0.40502015506752
  N   0.84240006867224      1.73664001663120      0.66013588725595
  O   -0.09729484734377      2.38875867556353      1.09834673155784
  O   2.01699517638382      2.08132170399271      0.60113020703016
  N   1.08419873864702      0.23588034941692     -1.23532930638266
  O   1.07331161967710      1.24794256163278     -1.92072776713059
  O   1.42332374468180     -0.89305893364647     -1.57805650496570
