15
Coordinates from ORCA-job run
  C   -0.50697466733682     -0.47361564604185      0.75577597358960
  C   0.69875545241361      0.38060306291710      0.39821483652362
  Br  -1.54085337292512      0.53544799464883      2.06933077351734
  H   1.29899463884672      0.60831264351996      1.27963680966228
  H   -0.11176382640959     -1.33005084104119      1.30173797004956
  C   -1.39220479702572     -0.93940296032827     -0.38499948547473
  H   -1.89596334228732     -0.10860354311932     -0.87261434327068
  H   -2.14214797377422     -1.62534028936402      0.01116937857457
  H   -0.79585839461612     -1.47770326638151     -1.12544664236036
  N   0.35431245808346      1.69229466884600     -0.22861315831818
  O   -0.31648497299303      1.65490434355987     -1.25439338365691
  O   0.77937537522048      2.69322872350328      0.33999496045631
  N   1.61991121067321     -0.35587852203738     -0.55419661915820
  O   2.18814326127303      0.29690382915935     -1.41778636680593
  O   1.76275895085744     -1.55010019784085     -0.31681070332829
