15
Coordinates from ORCA-job run
  C   -0.70566767862875     -0.17882699810830      0.56570214937709
  C   0.30938383154777      0.62347415432447     -0.21234295192420
  Br  -2.08409476421423      1.07160906167211      1.14429054022730
  H   -0.11044403390967      1.18589186792147     -1.04309611168823
  H   -0.23234786687586     -0.55100288633704      1.47397147968973
  C   -1.30958978233719     -1.29447733253745     -0.26790223562310
  H   -2.09765487530801     -1.79285967604049      0.29655218282643
  H   -1.73884675338785     -0.90994212117068     -1.19513856541599
  H   -0.54570726214933     -2.03791606515594     -0.51020179797833
  N   1.34133472974512     -0.30935428740866     -0.78642345825237
  O   1.39227332067329     -0.37766884510828     -2.01036577697469
  O   2.00713192050883     -0.94917964871402      0.02156645200510
  N   1.06375375652636      1.60363254245870      0.64481684906406
  O   1.25812754299099      1.30416905241422      1.81635229749148
  O   1.45234791481855      2.61345118178988      0.06321894717573
