15
Coordinates from ORCA-job run
  C   -0.58622415348015     -0.51836778079100      0.66357100260139
  C   0.70623825266229      0.25949817184471      0.47471814346211
  Br  -1.59836623309593      0.40289118293114      2.05617732192838
  H   1.27418087430011      0.31708788825906      1.40380522787263
  H   -0.29669810200610     -1.47157076022666      1.10552455444916
  C   -1.44585369858040     -0.74727967042372     -0.56553122198166
  H   -1.84946810089414      0.18313239374245     -0.95702903605272
  H   -2.27226124211793     -1.40671776362540     -0.29708589208424
  H   -0.85932858947157     -1.23681061446983     -1.34648635646185
  N   0.50979099914543      1.66636516240468      0.01170668373096
  O   0.98037081640235      2.54416075122219      0.72854719806362
  O   -0.09841550572248      1.82071628334858     -1.04183377329805
  N   1.61281544405215     -0.43024730539271     -0.52560028486729
  O   1.63243090367470     -1.65373437655027     -0.45055095933390
  O   2.28978833513165      0.27387643772677     -1.26093260802853
