14
Coordinates from ORCA-job run
  C   0.55015268998988     -0.41081686796135      0.84647636019593
  C   -0.72495334103046      0.01887879601533      0.12034040295732
  Cl  0.57457128185599      0.21692913620611      2.51501195440498
  H   -1.58629428145165     -0.27830202598818      0.73303396921433
  H   0.53031981610060     -1.50290727168649      0.96275868726981
  N   1.68891772391342      0.09295948306229      0.11743337989398
  H   2.55153527936733     -0.20306292731322      0.55593761462958
  H   1.63308778930597     -0.29609078210482     -0.81814897149896
  N   -0.68320851751170     -0.69058639183815     -1.17698669433768
  H   -1.35230749747529     -0.26383980610120     -1.80660517721228
  H   -0.96203952023773     -1.65943447508889     -1.05418418472848
  N   -0.74857577393744      1.44580274872879     -0.01267603691481
  H   0.09562622443532      1.76563287760675     -0.46875753756901
  H   -1.56683187332425      1.76383750646306     -0.51363376630470
