14
Coordinates from ORCA-job run
  C   0.71433519420516     -0.62475048782302      0.48498875741721
  C   -0.67800586454291     -0.03941816945387      0.14847158198423
  Cl  0.71049186166618     -1.18551899606396      2.24554855063951
  H   -1.30283828321467     -0.07512995345541      1.04110574468396
  H   0.85174467123978     -1.55467847308142     -0.06273509802764
  N   1.76111597845729      0.27376628307594      0.17452882079610
  H   1.63198496571553      1.15344391452667      0.65831397517123
  H   2.66731980412875     -0.11845341699230      0.39162027387182
  N   -1.29431040979994     -0.93273150239042     -0.82704724997278
  H   -0.81132300627065     -0.85700012684996     -1.71672126650870
  H   -2.26070879730441     -0.66824562684845     -0.97956263702188
  N   -0.54101080725497      1.37270302120160     -0.18778659436271
  H   -1.45568317977210      1.78028839345798     -0.33790112010836
  H   0.00688787274697      1.47772514069662     -1.03382373856198
