14
Coordinates from ORCA-job run
  C   0.77319201983661     -0.50505237400896      0.35918216293353
  C   -0.60833029419606      0.00770767302310     -0.05230585821028
  Cl  0.57385357837758     -1.78511108277431      1.63556714990395
  H   -1.10414362848232      0.37062559675318      0.86308092404193
  H   1.22782540724519     -1.01020681397038     -0.49392726568899
  N   1.60928067847337      0.57371564758659      0.78228096997807
  H   2.56560602639495      0.26579207300974      0.90124337964554
  H   1.28575802378735      0.93418486834382      1.67304900313914
  N   -1.41144847941647     -1.07463617575184     -0.57659455928640
  H   -2.39679082994910     -0.87305060874232     -0.47546512513157
  H   -1.20561443675700     -1.15956771596132     -1.56580423945736
  N   -0.38341528906007      1.03502975757938     -1.06344820054934
  H   0.32195057196912      1.68817496227890     -0.74513457749993
  H   -1.24672334822317      1.53339419263440     -1.24272376381830
