14
Coordinates from ORCA-job run
  C   0.57316915360318     -0.30654011208581      0.74729694447546
  C   -0.32903808660823      0.38950936204429     -0.27613554895969
  Cl  0.99780857915035      1.00310449467101      2.01795135674430
  H   0.12881191952549      1.36107685904410     -0.51150674930874
  H   -0.01170200867777     -1.01216225356828      1.33745420496816
  N   1.68634618776726     -0.93133257354104      0.17076184155624
  H   2.13263580183600     -0.36808369595462     -0.53849959712221
  H   2.35251177696979     -1.25888195330227      0.85531120043657
  N   -1.65433932530927      0.51716579190924      0.33297570576513
  H   -2.24896507698968      1.06273354628476     -0.28097010827810
  H   -1.58261487927027      1.02898861221602      1.20654526594002
  N   -0.35022825936622     -0.36063005308878     -1.51264404199064
  H   -0.90646767812217      0.13627200922936     -2.19895325632502
  H   -0.78892810450845     -1.26022003385799     -1.34958721790148
