17

C	-0.536501	0.039696	-1.428751
C	0.0	0.0	0.0
F	0.060532	1.129957	-2.059105
H	1.099273	0.0	0.0
C	-0.165374	-1.17425	-2.184586
N	0.087985	-2.155103	-2.77653
N	-1.959122	0.231675	-1.508057
H	-2.450341	-0.648981	-1.549168
H	-2.226835	0.746397	-0.671723
C	-0.494423	-1.225971	0.749689
H	-0.043266	-1.240545	1.745878
H	-1.584954	-1.214409	0.857992
H	-0.189135	-2.145425	0.245215
N	-0.519523	1.219006	0.647983
H	0.031232	1.994572	0.291488
H	-0.28992	1.15326	1.633833
Cl	3.47214	0.0	0.0
