17

C	-0.260932	0.02247	-1.523005
C	0.0	0.0	0.0
F	-0.093358	-1.283963	-2.04269
H	1.099255	0.0	0.0
C	-1.66752	0.371163	-1.838126
N	-2.791613	0.651475	-2.030641
N	0.625668	0.948486	-2.114403
H	1.572673	0.775376	-1.77202
H	0.598925	0.898059	-3.124189
C	-0.586869	-1.216524	0.681319
H	-0.212371	-2.137793	0.237505
H	-0.302876	-1.185305	1.733849
H	-1.682222	-1.213232	0.619082
N	-0.441769	1.219893	0.659285
H	0.08122	2.0038	0.288233
H	-1.427314	1.384902	0.479289
Cl	3.454619	0.0	0.0
