17

C	-0.498592	0.047414	-1.439831
C	0.0	0.0	0.0
F	-0.077321	1.194385	-2.067641
H	1.096454	0.0	0.0
C	0.02378	-1.091666	-2.24324
N	0.301631	-2.037364	-2.881897
N	-1.951642	0.080321	-1.481878
H	-2.239004	0.242836	-2.442166
H	-2.31509	-0.825845	-1.205262
C	-0.457625	-1.287018	0.692826
H	-0.17415	-2.18268	0.13442
H	-1.540966	-1.292889	0.861041
H	0.034247	-1.342529	1.665379
N	-0.429902	1.222606	0.661686
H	0.201338	1.408056	1.431569
H	-1.376373	1.124684	1.012575
Cl	3.469281	0.0	0.0
