17

C	-0.307419	0.037043	-1.49537
C	0.0	0.0	0.0
F	-0.084039	-1.253956	-2.031989
H	1.106716	0.0	0.0
C	-1.732376	0.320023	-1.790364
N	-2.865171	0.493758	-2.043808
N	0.527225	1.009614	-2.095017
H	0.449719	0.99445	-3.103848
H	1.492374	0.840381	-1.808234
C	-0.578526	-1.209048	0.698751
H	-0.199309	-2.129257	0.256616
H	-0.281067	-1.194393	1.751154
H	-1.671769	-1.196312	0.648132
N	-0.541787	1.234316	0.584407
H	-0.269532	1.245206	1.562352
H	-0.054143	2.011376	0.149879
Cl	3.47016	0.0	0.0
