18

C	0.0	0.0	0.0
C	-0.634459	-0.061842	-1.37631
F	1.371772	0.0	0.0
H	-1.698491	-0.285873	-1.198711
N	-0.5047	1.103536	0.71132
H	-0.016783	1.943555	0.436544
H	-0.407346	0.942403	1.705418
N	-0.362335	-1.253621	0.810359
O	-0.852313	-2.204173	0.221002
O	-0.060301	-1.21111	2.000517
N	-0.089811	-1.150423	-2.253626
O	-0.719368	-1.353188	-3.289516
O	0.933485	-1.748615	-1.932627
C	-0.517773	1.2599	-2.117233
H	0.518134	1.606588	-2.166667
H	-0.902549	1.132381	-3.128318
H	-1.145347	1.991111	-1.610306
Cl	-3.766044	0.0	0.0
