18

C	0.0	0.0	0.0
C	-0.591418	0.072195	-1.401337
F	1.347213	0.0	0.0
H	-1.661703	-0.145284	-1.309999
N	-0.525588	1.009991	0.810746
H	-1.550613	0.95798	0.741862
H	-0.248486	0.831392	1.77045
N	-0.298594	-1.415504	0.612848
O	0.080513	-1.549151	1.775437
O	-0.85482	-2.267568	-0.066034
N	-0.042672	-0.957514	-2.346809
O	0.998477	-1.553859	-2.084813
O	-0.686795	-1.099444	-3.384397
C	-0.37216	1.439292	-2.028538
H	0.692392	1.684869	-2.064685
H	-0.782761	1.438192	-3.038285
H	-0.888785	2.192562	-1.435737
Cl	-3.57198	0.0	0.0
