18

C	0.0	0.0	0.0
C	-0.294613	-0.218462	-1.492467
F	1.395825	0.0	0.0
H	0.310853	-1.079366	-1.764965
N	-0.578687	1.08875	0.609861
H	-1.565136	1.146355	0.35102
H	-0.50916	1.013045	1.617224
N	-0.272254	-1.344192	0.76351
O	-0.521924	-1.238336	1.958376
O	-0.136628	-2.395568	0.148395
N	0.360924	0.923494	-2.227871
O	1.375869	0.660621	-2.875711
O	-0.1784	2.024743	-2.172416
C	-1.705272	-0.370712	-1.994078
H	-1.657037	-0.587669	-3.065605
H	-2.211542	-1.185184	-1.483059
H	-2.30855	0.515078	-1.826018
Cl	-4.111637	0.0	0.0
