18

C	0.0	0.0	0.0
C	-0.590224	-0.271581	-1.375646
F	1.347439	0.0	0.0
H	-1.669252	-0.403216	-1.24026
N	-0.52423	1.183258	0.531934
H	-1.54878	1.117054	0.473853
H	-0.250399	1.247844	1.506543
N	-0.301483	-1.214545	0.942959
O	0.064805	-1.054277	2.106348
O	-0.845767	-2.212667	0.490455
N	-0.096496	-1.535383	-2.012617
O	0.998542	-1.993078	-1.697332
O	-0.822435	-1.995766	-2.891094
C	-0.287568	0.862251	-2.341215
H	-0.704408	1.78884	-1.950785
H	0.791694	0.983736	-2.46491
H	-0.74488	0.642198	-3.306896
Cl	-3.591937	0.0	0.0
