18

C	0.0	0.0	0.0
C	-0.283891	0.231178	-1.496961
F	1.395888	0.0	0.0
H	0.298177	-0.512196	-2.034798
N	-0.568667	0.83572	0.948213
H	-0.882295	1.697204	0.52268
H	-1.345178	0.380439	1.415655
N	-0.32755	-1.466062	0.337248
O	0.022408	-2.294042	-0.497015
O	-0.83308	-1.707554	1.425391
N	0.379929	1.533139	-1.850337
O	1.307734	1.50273	-2.656439
O	-0.066353	2.558704	-1.331542
C	-1.720821	0.26462	-1.939936
H	-2.300072	1.02471	-1.424158
H	-1.749232	0.438748	-3.019386
H	-2.213266	-0.678695	-1.713141
Cl	-4.250063	0.0	0.0
