15
Coordinates from ORCA-job run
  C   0.86229063887198     -0.27185059963611     -0.24693317873013
  C   -0.67983491429031     -0.32751528897030     -0.35432951650826
  Br  1.56272394156689     -2.00889925424514     -1.03099984282839
  H   -0.92836721079261     -0.62237200013167     -1.37808911198553
  C   1.38542887485402      0.76926034917958     -1.13062558817047
  N   1.78213265944159      1.62395846890477     -1.83300490933389
  N   1.27447026958383     -0.03882343668055      1.08179170087505
  H   0.96341572316363     -0.77558180336491      1.70534855319403
  H   2.27591146828271      0.08233346946857      1.16231236479164
  C   -1.32143612560509      1.02501091164487     -0.02300819782078
  H   -2.40760290985517      0.94011132236240     -0.08937298834838
  H   -0.98982816720001      1.78259421226797     -0.73521654622583
  H   -1.04888457889976      1.33960177271148      0.98375924126962
  C   -1.17088627091482     -1.36419139671973      0.55514407461617
  N   -1.55953339820688     -2.15363672679123      1.33322394520514
