15
Coordinates from ORCA-job run
  C   0.85200336897766      0.17669941366396     -0.03351993301495
  C   -0.63168019858593     -0.05686857049466      0.33650184155948
  Br  1.03204877931209      1.76442533117591     -1.16411625173052
  H   -0.63023715912241     -0.96032927297820      0.96387565107437
  C   1.63014452207772      0.44317316270324      1.18685105536224
  N   2.27586312582058      0.56179485726941      2.16332767514686
  N   1.33389643359260     -0.95996235790808     -0.78697290892069
  H   2.27581224627591     -0.78526409972694     -1.11939562841517
  H   1.35890887517491     -1.77598757775427     -0.18124898625864
  C   -1.53505461717520     -0.29393078234688     -0.87498321817167
  H   -1.10797503728139     -1.07193042792229     -1.50593637787575
  H   -1.64346307414138      0.61946587744339     -1.45905370179593
  H   -2.52354925563626     -0.60485409359407     -0.53215281456413
  C   -1.13134057355924      1.03905972971805      1.16739242446169
  N   -1.55737743572965      1.90350881075143      1.83843117314280
