15
Coordinates from ORCA-job run
  C   0.87397271409397     -0.10245199561643     -0.20232249566975
  C   -0.63406075775621     -0.39234625324171     -0.02223526247181
  Br  1.23228200636187     -0.12128526497346     -2.20506374272362
  H   -0.81713627837541     -1.37062522533780     -0.48451076268247
  C   1.20426856446529      1.25371659585469      0.23252143821075
  N   1.45334448261472      2.34440807897080      0.59271976612639
  N   1.65258313180510     -1.04405726306838      0.49947282426670
  H   2.64478299693995     -0.85194636215081      0.44607375752553
  H   1.46444554888769     -1.99280425870982      0.19938128675372
  C   -1.56351776738235      0.65156367988432     -0.64520271062461
  H   -1.37969000526771      1.63598011183868     -0.21069527518974
  H   -1.41992322173867      0.70289594674610     -1.72336222875281
  H   -2.59984486519025      0.37722559724136     -0.44232677034691
  C   -0.91250498982608     -0.50932622042265      1.41381331855057
  N   -1.19800155963192     -0.58094716701488      2.55073685702807
