15
Coordinates from ORCA-job run
  C   0.91843650783769      0.27394947348081      0.01494620643964
  C   -0.55157170156137     -0.10756242657680      0.36643730535338
  Br  0.92234148482745      2.00039887643828     -0.92399219105555
  H   -0.46522268047506     -1.03887569509243      0.94409636786823
  C   1.66405512059384      0.44823101506531      1.26534438167618
  N   2.24067114982665      0.52476180496289      2.28683496711378
  N   1.62771437370289     -0.66840325263772     -0.80840338447193
  H   1.72462268687523     -1.56151519250455     -0.33737200651739
  H   1.17775217657781     -0.78824466820847     -1.70671681618722
  C   -1.43903745378276     -0.36338178059644     -0.85188263970653
  H   -2.42976209904058     -0.67661217149325     -0.51896161109240
  H   -1.54676757049296      0.53926683676063     -1.45308340012589
  H   -1.02696947669556     -1.16311966088001     -1.46944276418594
  C   -1.15374542795299      0.89331005082879      1.24736094439245
  N   -1.66351709024029      1.68979679045295      1.94383464049919
