15
Coordinates from ORCA-job run
  C   0.87510835269671     -0.10605737317401     -0.19733030031839
  C   -0.63267414093980     -0.39434716479696     -0.01110863757537
  Br  1.23850881303378     -0.18505824643917     -2.19691982709779
  H   -0.81200585595031     -1.38793458351809     -0.44102645886388
  C   1.19910503813192      1.26381939981573      0.19742913106310
  N   1.43774032431001      2.36562627280901      0.52999312067684
  N   1.65446625580323     -1.02362211503922      0.53522374550840
  H   2.64647537099726     -0.83187369105310      0.47562600872298
  H   1.46809689879918     -1.98167568555826      0.26459431974718
  C   -1.56372442217803      0.62561747642685     -0.67034732550807
  H   -2.59980176193441      0.35460562796508     -0.46159452114972
  H   -1.38434072286016      1.62422275917239     -0.26755098148074
  H   -1.41714469849566      0.64230972021953     -1.74921675410911
  C   -0.91314623566194     -0.46411354593428      1.42755690067810
  N   -1.19666321575178     -0.49951885089551      2.56667157970646
