15
Coordinates from ORCA-job run
  C   0.84953501998706     -0.16760849370021     -0.29997203562422
  C   -0.66815554034339     -0.39904267730615     -0.11449586034322
  Br  1.25858125976120     -0.18721875919074     -2.21942029490698
  H   -0.87816649576172     -1.35591419440519     -0.60459880250625
  C   1.22336855678999      1.16648534849216      0.19656080781747
  N   1.53423141825788      2.20585619729802      0.65199217242755
  N   1.58103056275846     -1.25652648341309      0.29840993269043
  H   2.57518475114826     -1.15109772617106      0.12937208148912
  H   1.42320493123751     -1.26689917670942      1.30245130960098
  C   -1.55484882536187      0.71039721167558     -0.68131428540691
  H   -2.60340692601122      0.46361120665846     -0.50731013840739
  H   -1.39620323034390      0.81154400879202     -1.75467228000568
  H   -1.34178272350587      1.66489387638624     -0.19651674928410
  C   -0.91563071572563     -0.56169635392462      1.32193561768677
  N   -1.08694204288677     -0.67578398448203      2.47857852477242
