15
Coordinates from ORCA-job run
  C   0.84825850120671      0.20132693254832     -0.00835375002085
  C   -0.62626605199305     -0.12284096934857      0.32810951343123
  Br  0.98000705215040      1.93938640039248     -0.89908141862675
  H   -0.59716356080797     -1.10644088914275      0.81950518136691
  C   1.62655195131432      0.31045108855983      1.23601881266785
  N   2.27403016642329      0.30495679198690      2.21846046146338
  N   1.35488100539932     -0.80164427032721     -0.91872286252543
  H   2.29145698934856     -0.55812537257471     -1.22161023276204
  H   1.40044761982930     -1.69643788039220     -0.43844596331829
  C   -1.53117478013751     -0.20716451442711     -0.90253350745975
  H   -1.66964854568395      0.77835863517921     -1.34616652464653
  H   -1.08679516505132     -0.87191740106911     -1.64175208477927
  H   -2.50789969008037     -0.59334067971804     -0.60552573495880
  C   -1.15066419983526      0.83074687057657      1.30645596140345
  N   -1.60702129208246      1.59268525775640      2.07464214876488
