15
Coordinates from ORCA-job run
  C   0.87318555397123     -0.07676271434156     -0.21435696752827
  C   -0.62280748336712     -0.41105808193661     -0.01188880299428
  Br  1.20238543747538     -0.09288484813385     -2.22336022147495
  H   -0.78278355219236     -1.39654576668329     -0.46737942307690
  C   1.16879080409554      1.29045921837026      0.21036816470231
  N   1.39027914942665      2.38888313200092      0.56532545014117
  N   1.68977083446343     -0.99159329798560      0.47843817138472
  H   1.52758497791612     -1.94686021958321      0.18419009716587
  H   2.67462963004132     -0.76874374170735      0.41456901444914
  C   -1.59208587450808      0.60138648521553     -0.62587210922484
  H   -2.61658132984609      0.29856810967265     -0.40396023628734
  H   -1.46753239367280      0.64929969421445     -1.70668756356353
  H   -1.42958390589535      1.59380365046422     -0.20085711798259
  C   -0.87619517080679     -0.53033752795982      1.42863312347998
  N   -1.13805667710107     -0.60761409160674      2.57083842080951
