15
Coordinates from ORCA-job run
  C   0.86118111498771     -0.36938742077532     -0.41926887289163
  C   -0.69101338819018     -0.35145024743099     -0.27582073731232
  Br  1.34814044908948     -2.10702447733360     -1.22026517876493
  H   -1.12395522654509     -0.61163724605214     -1.24734220320988
  C   1.24869039104930      0.66848911543546     -1.37735625584119
  N   1.51114399637520      1.53524531599810     -2.12647073391694
  N   1.62021575907495     -0.20809592695205      0.78402172632928
  H   1.58529821558159      0.74413957661570      1.12611950644320
  H   1.32337846806502     -0.86176284926514      1.49971395746224
  C   -1.20766236655963      1.01958196584058      0.17401196215067
  H   -0.94316102182977      1.78681514238035     -0.55552755662569
  H   -2.29460212556793      0.99131523148912      0.26485762038600
  H   -0.79822099018027      1.29167853381247      1.14845256035461
  C   -1.07507195354284     -1.37505413671164      0.69617714006636
  N   -1.36336132180755     -2.15185257705088      1.52869706537022
