15
Coordinates from ORCA-job run
  C   0.88254164364835      0.08058724307534      0.09610080266968
  C   -0.63144758032137     -0.06033418270779      0.37760128686352
  Br  1.19736749429551      1.83739959558347     -0.85362369979060
  H   -0.70743102216277     -0.95751864570683      1.00525983589353
  C   1.61462329442084      0.19542813874418      1.35732303207755
  N   2.19772582428092      0.25563244412074      2.37598314260014
  N   1.35479136643340     -1.04299475075328     -0.62887074502103
  H   0.97324168171510     -1.06281928526851     -1.56639367153977
  H   2.36597758718548     -1.05115718062328     -0.68536943823247
  C   -1.47542744035400     -0.26496229526412     -0.88185007762156
  H   -2.52958024475801     -0.31886688334263     -0.60626161434089
  H   -1.21323357933632     -1.20566921539874     -1.36880502153799
  H   -1.34442832223082      0.56375382555554     -1.57862279166315
  C   -1.12283963970679      1.07190928936614      1.16287460340883
  N   -1.56088106310953      1.95961190261978      1.79465435623421
