15
Coordinates from ORCA-job run
  C   0.82731549024135     -0.23754914215484     -0.36966643163676
  C   -0.71822227678933     -0.27099673069110     -0.32555240882487
  Br  1.41330602421585     -1.85401273528944     -1.45034761398485
  H   -1.07370562635949     -0.41483170189062     -1.35008967877210
  C   1.27876245683554      0.91253013422863     -1.15235307863906
  N   1.62237699890273      1.85286980037969     -1.76800104392200
  N   1.37580106554014     -0.19101474611649      0.92938152341121
  H   2.38243176697933     -0.08765297955506      0.92174343356501
  H   1.11573286280100     -1.00562321777854      1.47476921525473
  C   -1.29803948333593      1.02278853088970      0.25839846347367
  H   -0.93231826136312      1.18136311976162      1.27191072558368
  H   -1.01287815808419      1.87518729997936     -0.35995271067397
  H   -2.38717915754683      0.95876895365736      0.27746604137713
  C   -1.13525934305650     -1.42451110417241      0.47329279081359
  N   -1.45712435898058     -2.31531548124786      1.16800077297459
