15
Coordinates from ORCA-job run
  C   0.93823037376114      0.18805241311409      0.05380932573836
  C   -0.57706111582331     -0.03995997576489      0.33914378883253
  Br  1.15267862637377      1.86233827873300     -0.95321900612929
  H   -0.60863134548475     -0.94862751343062      0.95706683626118
  C   1.63280172158813      0.35113284118575      1.33473628346215
  N   2.16103182144470      0.42354739376642      2.38217058719100
  N   1.59646989781520     -0.85215442068765     -0.69025092590064
  H   1.18280827726876     -0.97178615530845     -1.60580352325667
  H   1.58531078001820     -1.72758454066457     -0.17818803490265
  C   -1.42166535468573     -0.26688741830490     -0.91488849486029
  H   -2.45359473206188     -0.47048533117620     -0.62471271541745
  H   -1.05719526057707     -1.12896067090940     -1.47587422947002
  H   -1.41152217590487      0.61361092075314     -1.55706648652796
  C   -1.12598147492032      1.04994037998740      1.14609873270431
  N   -1.59368003881198      1.91682379870689      1.78597786227543
