15
Coordinates from ORCA-job run
  C   0.89711842437232     -0.31233356644650     -0.20827179853282
  C   -0.63293253795548     -0.43009059617567     -0.37815635381894
  Br  1.73630082954071     -1.98644112086734     -0.77971129238614
  H   -0.82537371313105     -0.66042688912361     -1.43190153977169
  C   1.39748256976247      0.73158416070384     -1.11964582197857
  N   1.78142639597727      1.61820873209994     -1.79103787593991
  N   1.23499479545690     -0.10074325299883      1.17792927838898
  H   0.93660912534042      0.82453906023078      1.46943039243250
  H   2.23696692508613     -0.16940169051670      1.31453686713916
  C   -1.35596122085706      0.87018364088405     -0.00293319368192
  H   -2.41768576655123      0.77284717393946     -0.23443096098334
  H   -1.27057304005596      1.07341881323408      1.06582056255022
  H   -0.95811572329543      1.71297938099522     -0.57196681523943
  C   -1.14180203238470     -1.54131223329023      0.42758209572813
  N   -1.61845503130531     -2.40501161266852      1.06375645609378
