15
Coordinates from ORCA-job run
  C   0.92614870197660     -0.05097156831713     -0.28908926855421
  C   -0.58329527828256     -0.39766277801361     -0.11844365260420
  Br  1.30713331805231     -0.04275908962827     -2.22237983013699
  H   -0.73302728107771     -1.35760800521466     -0.62767262060857
  C   1.17715336491975      1.29767684716318      0.22503158163218
  N   1.33779489671899      2.37313842201546      0.67114133175879
  N   1.85139794150335     -0.96489620639572      0.32114872031559
  H   1.68009445179524     -1.91321725361924      0.00664476910256
  H   1.78291248425179     -0.92013350214904      1.33269073086471
  C   -1.55704985015671      0.64468974965268     -0.67038402625504
  H   -1.42088273091136      1.60361373923768     -0.16710164930804
  H   -1.40284944081764      0.77812013452112     -1.74070782492879
  H   -2.58355053559699      0.31283254848120     -0.50508363072448
  C   -0.81191066059104     -0.60672966651360      1.31478625778691
  N   -0.96906938178402     -0.75609337122006      2.46941911165958
