15
Coordinates from ORCA-job run
  C   0.86532235543506     -0.29879493360902     -0.32862473252867
  C   -0.67374562393245     -0.42111069180089     -0.31025196854183
  Br  1.63109725845372     -1.94861813577527     -1.05311250006377
  H   -0.99576873213950     -0.61628698284414     -1.33914015330395
  C   1.24398413549447      0.77602485194849     -1.26246432934715
  N   1.53186661402464      1.68422808865498     -1.95290067870984
  N   1.37274272212573     -0.12822094669819      1.01080672533323
  H   2.38380895172755     -0.19830337364049      1.02016649091674
  H   1.11369297979778      0.78697147719977      1.36492874152816
  C   -1.34703377373716      0.86071048411872      0.19775056227729
  H   -1.13100428766797      1.02548955580877      1.25464305725649
  H   -2.42906534791878      0.76545605093550      0.09490471511354
  H   -1.02335444964465      1.72572563439376     -0.38488941228255
  C   -1.07556515110754     -1.56258043223068      0.51344562124780
  N   -1.46697765091090     -2.45069064646132      1.17373786110452
