15
Coordinates from ORCA-job run
  C   0.84994397677790     -0.14763011826441     -0.30914795936012
  C   -0.65892867974690     -0.41638094856150     -0.10443900772305
  Br  1.23609363978062     -0.16630384870265     -2.23345590702957
  H   -0.85034128268699     -1.38082169477689     -0.58724120788640
  C   1.19651688655663      1.19777972944362      0.17668466367714
  N   1.48905540667572      2.24628570801579      0.62324744886592
  N   1.61595356471575     -1.21481850155868      0.28517780424132
  H   2.60497591112074     -1.08506087897626      0.10384150954615
  H   1.47034394078808     -1.22476227180146      1.29102847438924
  C   -1.58013794260157      0.66721416663571     -0.66602194521199
  H   -2.61995787014063      0.39444094391155     -0.47886311102094
  H   -1.43631958521459      0.76726581960409     -1.74152454255304
  H   -1.38611789603487      1.62905308457754     -0.18791751142530
  C   -0.88622165533895     -0.57775691391663      1.33545739807667
  N   -1.04485841465093     -0.68950427562983      2.49417389341395
