15
Coordinates from ORCA-job run
  C   0.87393550053312     -0.09973085778165     -0.20343625673279
  C   -0.63069621560686     -0.39898760773925     -0.01028291766096
  Br  1.22325077794062     -0.16293563964803     -2.20802903765634
  H   -0.80659379974820     -1.38939565127016     -0.44879835723714
  C   1.19317594092532      1.26990612643066      0.19575842130441
  N   1.43262117188043      2.37130821097545      0.52942968355949
  N   1.66413359656718     -1.01656074415223      0.51660178163173
  H   1.48226393747945     -1.97455922175703      0.24319577897014
  H   2.65442341930532     -0.81734835917347      0.45571137133309
  C   -1.57221275142956      0.62160883289332     -0.65349819607964
  H   -1.43393608849550      0.64870919181971     -1.73323759435073
  H   -2.60516342782517      0.34325730309637     -0.43912023676862
  H   -1.39498033517023      1.61754093991489     -0.24320964833862
  C   -0.90154779959070     -0.48421217139674      1.42951264141725
  N   -1.17667392676511     -0.52860035221178      2.57040256660881
