15
Coordinates from ORCA-job run
  C   0.87180134240367      0.12211557949897      0.14130658497809
  C   -0.63714862356270     -0.14888871660320      0.34339014956351
  Br  1.09769830649814      2.00685150904756     -0.55520236869281
  H   -0.67216970331333     -1.12367042592507      0.84661341885607
  C   1.55749946851786      0.11094158360635      1.43332685462995
  N   2.10756053705534      0.06480258288392      2.47099730823651
  N   1.43894662949733     -0.86228908147465     -0.70738403480387
  H   1.08706480837640     -0.77971698184339     -1.65310401639051
  H   2.44969408164885     -0.79958020474953     -0.72613226169766
  C   -1.42646241334336     -0.23822390503691     -0.96416901679524
  H   -1.08835448360225     -1.08948118433855     -1.55727081102534
  H   -1.32816124806076      0.68100660846822     -1.54282444229006
  H   -2.48295101282636     -0.39137040403039     -0.73943984767763
  C   -1.22803793263717      0.83827543469513      1.24692589367713
  N   -1.74797975665167      1.61022760580155      1.96296658943187
