15
Coordinates from ORCA-job run
  C   0.85580553903753     -0.22856078578407     -0.30552581459585
  C   -0.68006336013749     -0.40653254508006     -0.25840611451057
  Br  1.62190859139600     -1.97549025041211     -1.00287506450937
  H   -0.99474837463547     -0.80895290866628     -1.22577564583742
  C   1.21127196073765      0.76064005052372     -1.32215499156067
  N   1.47355941826284      1.57065610610224     -2.13247469118147
  N   1.36534099385868      0.15588090062493      0.95208605262872
  H   2.35726460067202      0.35462815086285      0.92544052624451
  H   1.16996979768125     -0.53885170978922      1.66468861405221
  C   -1.39718486929399      0.91948329462046      0.02140925674657
  H   -2.47467296321653      0.75046212807592      0.06101740673720
  H   -1.06668750592131      1.33896356188148      0.97086849826563
  H   -1.18856296824175      1.63488558142181     -0.77580175309943
  C   -1.00103139579028     -1.39083223765664      0.77652180187120
  N   -1.25016946440917     -2.13537933672502      1.64998191874872
