15
Coordinates from ORCA-job run
  C   0.85857346828677      0.15013186016888      0.00143984203405
  C   -0.64094702439529     -0.06094197297437      0.31683770721137
  Br  1.11845370198092      1.80747953019855     -1.00676449072313
  H   -0.68372017435210     -1.00713331238297      0.87605244891962
  C   1.61089236375336      0.30268411481049      1.25712019852878
  N   2.23042081722705      0.32770054898021      2.25714695006441
  N   1.32553058645423     -0.94523748471287     -0.81982958353778
  H   1.31177693579323     -1.80212268797145     -0.27295011761091
  H   2.28018861693437     -0.77680469812601     -1.11731303013793
  C   -1.51872710166861     -0.18004765065862     -0.93016933303895
  H   -1.58318652682970      0.77618741054195     -1.44841924570780
  H   -2.52510513858075     -0.48222432706047     -0.63496337498973
  H   -1.09920328477703     -0.92417062331189     -1.60550246421373
  C   -1.12928487880593      0.98836115018688      1.21224820500492
  N   -1.55566236102051      1.82613814231169      1.91606628819680
