15
Coordinates from ORCA-job run
  C   0.88228629452981      0.08380499232637      0.09931886310241
  C   -0.63015586936930     -0.08039926130330      0.37663889917949
  Br  1.18217185053748      1.88050551163072     -0.77878829415237
  H   -0.69807948659321     -1.00170379724407      0.96930887181271
  C   1.61498310261212      0.15267168878962      1.36350280132970
  N   2.19781682346298      0.17377668631135      2.38392439069156
  N   1.36235170464412     -1.00524044351710     -0.67146760886422
  H   2.37340722886281     -1.00238137159279     -0.73036834850686
  H   0.97857446162672     -0.99065646526891     -1.60818639057483
  C   -1.47382687236307     -0.24292852369493     -0.88926795219612
  H   -1.20536194644170     -1.16212391305817     -1.41236081438292
  H   -1.34956169786897      0.61307053312789     -1.55343944393103
  H   -2.52725196487553     -0.31505889868472     -0.61517369100026
  C   -1.13087792956618      1.01750500395151      1.20362617870078
  N   -1.57847569919808      1.88015825822653      1.86273253879196
