15
Coordinates from ORCA-job run
  C   0.88771250763774     -0.22077197329385     -0.20024203334826
  C   -0.64087265566987     -0.40362935882652     -0.35050153100308
  Br  1.74451503851266     -1.95067883793131     -0.83094783000341
  H   -0.82931539641338     -0.78776968327468     -1.35731189312725
  C   1.36447708717789      0.79112454602227     -1.14214541034807
  N   1.72684241102213      1.62106629596134     -1.89134204045423
  N   1.23286474400248      0.13823250023157      1.11952706671800
  H   2.21904602358672      0.34133270904609      1.22132344571780
  H   0.95509819149676     -0.57354481215896      1.78645718171002
  C   -1.39402917442786      0.91509631930589     -0.13837875228507
  H   -1.09097674327933      1.64587063476161     -0.89001818230851
  H   -1.18686965497336      1.31746314657357      0.85246467992504
  H   -2.46710429299734      0.74236987904209     -0.23705742283094
  C   -1.08442083187853     -1.40788355070879      0.61768229546222
  N   -1.43696725379671     -2.16827781475032      1.44049042617574
