15
Coordinates from ORCA-job run
  C   0.93039273258601      0.23125476932611      0.02137752286964
  C   -0.56175439956439     -0.06699239458386      0.35994860190674
  Br  1.03134471504427      1.91401657850561     -0.98856382361936
  H   -0.52922690631936     -0.97632766740353      0.97681884661838
  C   1.66113178182835      0.42456076888511      1.27776483081975
  N   2.21939165702968      0.51931048844507      2.30782030484006
  N   1.60927835866155     -0.77682758971821     -0.74815622871895
  H   1.65291768782549     -1.65335001718154     -0.23965564768679
  H   1.17124878110381     -0.91203476496963     -1.65012040287475
  C   -1.43915209846168     -0.33223811332306     -0.86370028792901
  H   -2.44801229452898     -0.58872165767398     -0.53710597232444
  H   -1.49702215106591      0.54946818734663     -1.50155723595615
  H   -1.05241305336943     -1.17282803650254     -1.44190014924413
  C   -1.13152462626132      0.99670073024620      1.18719468138299
  N   -1.61560018450809      1.84400871860161      1.84083495991603
