15
Coordinates from ORCA-job run
  C   0.82346338387579     -0.32209952200704     -0.40564566237394
  C   -0.71958767548195     -0.28290510033858     -0.36160764043268
  Br  1.39486852177444     -1.87782158465278     -1.44825921892164
  H   -1.07255597901996     -0.24912996025613     -1.39827995987582
  C   1.30756555005092      0.86320079940890     -1.13457817096202
  N   1.68932497563200      1.84932073708166     -1.65048651430745
  N   1.36175697164022     -0.46163722543802      0.92492988644427
  H   1.20682862400245      0.39100898976743      1.45308761219464
  H   2.35913736936544     -0.63800990475934      0.88980949561396
  C   -1.24292280814204      0.94672138767017      0.39251295137144
  H   -0.83764160645721      1.86564901556190     -0.03604643688904
  H   -2.33043900448390      0.98370811538540      0.31285046413536
  H   -0.99369645429292      0.89272073427455      1.45352884800597
  C   -1.23387843220998     -1.50789277443703      0.25282764646727
  N   -1.71222343625330     -2.45483370726109      0.75535669952969
