15
Coordinates from ORCA-job run
  C   0.92183282571764     -0.01524139444237     -0.30606832172620
  C   -0.57283218641942     -0.41290573144279     -0.11755625223902
  Br  1.26741289850535      0.04640536610148     -2.24524232396697
  H   -0.70232753278286     -1.36365864535150     -0.64903605581228
  C   1.14026042260332      1.32969219200388      0.23225349596807
  N   1.27431915359835      2.40145533928458      0.69555499566450
  N   1.88604463615777     -0.91242886489802      0.26763220453284
  H   1.83328879903154     -0.89264656431837      1.28089073238569
  H   1.73919925525828     -1.85846294793039     -0.06547559687678
  C   -1.58791075148171      0.61232162512409     -0.62514214090842
  H   -1.45573791964415      0.77938791980222     -1.69362724266987
  H   -2.60056420496758      0.24370791387818     -0.45300353046769
  H   -1.47355178432401      1.56117835863715     -0.09816285427006
  C   -0.76862388398725     -0.66658109262583      1.31332239423358
  N   -0.89880972726527     -0.85522347382231      2.46566049615262
