15
Coordinates from ORCA-job run
  C   0.87274951025466     -0.08232750942769     -0.21535788513260
  C   -0.62212936682185     -0.41286965937361      0.00068325204861
  Br  1.19530885442326     -0.15096271165761     -2.22481354767788
  H   -0.78329971737646     -1.40861332775702     -0.43137599818065
  C   1.16770883900222      1.29661325617906      0.17000829456102
  N   1.38901629281405      2.40527089595222      0.49210323725871
  N   1.69283590832610     -0.97696923207449      0.49882934829350
  H   1.52707905370491     -1.94067284450942      0.23558879704257
  H   2.67768938852385     -0.75742628987760      0.42160782121439
  C   -1.59387810402996      0.58485232187848     -0.63330587484035
  H   -2.61773810237473      0.28249919345206     -0.40803232225512
  H   -1.46744868488000      0.61377531165098     -1.71447267905681
  H   -1.43565579170289      1.58511698881397     -0.22576505972630
  C   -0.87075040461576     -0.49722185556554      1.44442344179396
  N   -1.13048767524739     -0.54306453768376      2.58887917465696
