15
Coordinates from ORCA-job run
  C   0.96203350466406     -0.27881002145462     -0.22370774371107
  C   -0.58016426852995     -0.43508877625614     -0.38981835806447
  Br  1.78352906068619     -1.96782781432633     -0.83214645978531
  H   -0.77891576931055     -0.76909939403530     -1.41347793048207
  C   1.42087566094204      0.77409374067122     -1.13269418259100
  N   1.73740806402064      1.64743897509721     -1.85276956738780
  N   1.44184465317247     -0.00320148750361      1.09698982613605
  H   1.23663026337498      0.94669350954619      1.38106481168229
  H   1.07905665935481     -0.66931296090746      1.76955151446985
  C   -1.32079915849455      0.87873690919489     -0.11746074235576
  H   -0.99886339450255      1.65212647945888     -0.81681741338395
  H   -2.39430739719217      0.72779267492236     -0.24129061784509
  H   -1.14762445073194      1.22147621414409      0.90419149596753
  C   -1.03935397621380     -1.47044110207873      0.53628676185097
  N   -1.40234945123970     -2.25457694647265      1.33209860549983
