15
Coordinates from ORCA-job run
  C   0.87328717095747     -0.08316564704869     -0.21492612743981
  C   -0.62117812071321     -0.41328439234857      0.00547742893454
  Br  1.19544696670928     -0.17599709756898     -2.22304714154638
  H   -0.78080027047672     -1.41417743435146     -0.41511643599716
  C   1.16617366413529      1.30067107430083      0.15420394967423
  N   1.38225951022253      2.41395734736101      0.46347523821589
  N   1.69474625642005     -0.96772109825685      0.51023129913656
  H   2.67929101603018     -0.74818485502530      0.42992726911186
  H   1.52971715884803     -1.93513396088185      0.26021624225792
  C   -1.59489110737394      0.57549714403571     -0.63953150230289
  H   -1.46911685382762      0.59230510390903     -1.72110028675974
  H   -1.43815320724518      1.58065982313828     -0.24353724251340
  H   -2.61818220192770      0.27402355231179     -0.41017690876149
  C   -0.86959875895506     -0.48186479931327      1.45019047652864
  N   -1.13001294235391     -0.51658082640706      2.59471423965497
