15
Coordinates from ORCA-job run
  C   0.85726783205889     -0.19548497620641     -0.31946304578876
  C   -0.68089760907611     -0.35858400839993     -0.32615536558862
  Br  1.61994916263545     -1.83573338647442     -1.24114181603940
  H   -0.98024886962722     -0.62023062564629     -1.34533282104009
  C   1.24465069415338      0.92346984639894     -1.17772277482908
  N   1.55118375665884      1.83779008197763     -1.84953846899844
  N   1.34487193828085      0.00189807266294      0.98952369614660
  H   1.13143709232700     -0.78593918661100      1.59150063262923
  H   2.33865885564462      0.19217938621905      1.00885025776918
  C   -1.38974794151007      0.92545084156472      0.12041461590391
  H   -1.15892001649378      1.74068578809869     -0.56736180426247
  H   -2.46947013887921      0.76656228894868      0.11796693268220
  H   -1.07280167617564      1.20669596345469      1.12393312007020
  C   -1.03251951854713     -1.47178496528752      0.55712697325107
  N   -1.30341356144986     -2.32597512069976      1.31639986809447
