15
Coordinates from ORCA-job run
  C   0.85715801306853      0.15810920824588      0.00785868163200
  C   -0.64044574041194     -0.07771143756165      0.31472836493588
  Br  1.10191446344985      1.85292232880262     -0.94015154605200
  H   -0.67487613180830     -1.04253287737320      0.84169853412269
  C   1.60799166157112      0.27226786003667      1.26863706841350
  N   2.22872635036658      0.26704971557118      2.26822382179837
  N   1.33443993058710     -0.90260689270396     -0.85201731713971
  H   1.32521480561603     -1.77928766212489     -0.33736274140470
  H   2.28873434140176     -0.71634338476366     -1.13994948709951
  C   -1.51626010705162     -0.16241160612495     -0.93657696056023
  H   -1.08902782861661     -0.87845467687593     -1.63691047899955
  H   -1.58976534308067      0.81053411148915     -1.42143579777057
  H   -2.51979009791398     -0.48450745367884     -0.65288702280661
  C   -1.13922797477542      0.93682836160526      1.24371690815034
  N   -1.57478634240241      1.74914440545633      1.97142797278011
