15
Coordinates from ORCA-job run
  C   0.86675374706719     -0.28068707024199     -0.34283611956844
  C   -0.67375404096442     -0.38445312874280     -0.35570895500254
  Br  1.62259863476775     -1.86757353478110     -1.20589947574930
  H   -0.98306372728074     -0.48830799499832     -1.40157886747637
  C   1.27226925811121      0.87018015671101     -1.16857501559357
  N   1.58397554836335      1.83446908556751     -1.76626763488405
  N   1.35757680978179     -0.24063132292799      1.01259619336621
  H   2.36822362894414     -0.31566076698904      1.02791728807813
  H   1.09605022894205      0.63708551942895      1.44991297550374
  C   -1.34060746227936      0.85821486505217      0.24901205851867
  H   -2.42222271829589      0.78291227722271      0.12704935637641
  H   -1.00195546075919      1.76485328652535     -0.25665271912094
  H   -1.13593193086048      0.93372082100312      1.31828342834610
  C   -1.09910052608341     -1.58572670363215      0.36460605262056
  N   -1.50781198945398     -2.51939548919743      0.94714143458540
