15
Coordinates from ORCA-job run
  C   0.84899280310745     -0.12324773286755     -0.32348218957873
  C   -0.64903074082901     -0.43303138877850     -0.09762502120660
  Br  1.20564101926518     -0.12039972626785     -2.25373666871828
  H   -0.82279655863371     -1.39821513305005     -0.58559046760353
  C   1.16646973759480      1.22841714995112      0.16465317570171
  N   1.43154285223742      2.28371207690777      0.61244505126145
  N   1.65190128322961     -1.17321125734397      0.25225450369604
  H   1.52255720808922     -1.19269328899920      1.26017035520721
  H   2.63418484811314     -1.01664416323801      0.05602560245437
  C   -1.60677983320753      0.63073963569818     -0.63574681006500
  H   -2.63610479924635      0.32991950102864     -0.43415953642576
  H   -1.42969910235224      1.59364583261563     -0.15313883067145
  H   -1.48302206359179      0.74272501257080     -1.71262520504765
  C   -0.84914074786273     -0.61218972122123      1.34426516708254
  N   -0.98571590591345     -0.73852679700578      2.50429087391368
