15
Coordinates from ORCA-job run
  C   0.92359914765470     -0.02396482321988     -0.30138769316853
  C   -0.57327577627564     -0.41302178479172     -0.11183435459251
  Br  1.27737736517133      0.00031587568460     -2.23993400164182
  H   -0.70291570387803     -1.37428587709195     -0.62410363034246
  C   1.14361800164493      1.33004729013491      0.21266138100502
  N   1.27601748622092      2.40995391474494      0.65741330999284
  N   1.88215675088839     -0.91343089128064      0.29311404969905
  H   1.82600124083038     -0.87407602487320      1.30564206717788
  H   1.73353106092430     -1.86515575156455     -0.02250850371628
  C   -1.58307241798306      0.60405288742539     -0.64557980259003
  H   -1.45016414064296      0.74264319868848     -1.71812385170551
  H   -1.46372470079383      1.56583399184724     -0.14350830548409
  H   -2.59752625887229      0.24522709168813     -0.46355676081768
  C   -0.77627938151251     -0.63640037814297      1.32303739161699
  N   -0.91334267337662     -0.79773871924878      2.47866870456712
