15
Coordinates from ORCA-job run
  C   0.93511426705942      0.20800587138896      0.04398521758768
  C   -0.56898760232471     -0.06554995975992      0.34849438467915
  Br  1.09207563561084      1.92047223621756     -0.90748027574366
  H   -0.56790740309509     -0.99517718462400      0.93528294655851
  C   1.64877238279697      0.34333341662195      1.31761521874285
  N   2.19154882659739      0.39282149700073      2.35903020657493
  N   1.60282962929455     -0.79005216425714     -0.74765940367092
  H   1.62014740499424     -1.68294462190639     -0.26735364014044
  H   1.17631600714761     -0.88620827726570     -1.66002743546053
  C   -1.43159231753449     -0.26981034285884     -0.89715171687834
  H   -1.05781317506203     -1.10338295116276     -1.49394733840220
  H   -2.45284986158808     -0.50761576160909     -0.59554551392576
  H   -1.45410728636245      0.63193281034374     -1.50883627560943
  C   -1.12829623587987      0.98335205336646      1.20131586509211
  N   -1.60625027165430      1.81982337850444      1.87327776059605
