16

C	0.0	0.0	0.0
C	-0.365657	-0.130442	-1.519022
Cl	1.820373	0.0	0.0
H	0.458022	0.311373	-2.077358
N	-0.447931	1.310368	0.389428
H	-0.116693	1.492949	1.332003
H	-1.477754	1.154092	0.408806
N	-0.465494	-1.153081	0.707214
H	-1.496386	-1.013154	0.626122
H	-0.189389	-1.055119	1.679165
C	-1.583592	0.512801	-2.01657
N	-2.308215	1.105776	-2.72853
N	-0.355826	-1.57975	-1.930416
O	-1.413643	-2.197321	-1.930297
O	0.745123	-2.037945	-2.237343
F	-2.683768	0.0	0.0
