16

C	0.0	0.0	0.0
C	-0.532519	0.105783	-1.447739
Cl	1.783119	0.0	0.0
H	-1.633811	0.054848	-1.284305
N	-0.474131	1.173954	0.687174
H	-0.184715	1.104556	1.657875
H	-1.501425	1.041587	0.635463
N	-0.468467	-1.292258	0.446811
H	-1.492814	-1.144038	0.47265
H	-0.124816	-1.448717	1.389138
C	-0.024964	-0.944223	-2.313836
N	0.339934	-1.782896	-3.050513
N	-0.223825	1.439843	-2.058788
O	0.892704	1.601686	-2.550362
O	-1.115276	2.282265	-2.029203
F	-2.805642	0.0	0.0
