16

C	0.0	0.0	0.0
C	-0.535046	0.179657	-1.438871
Cl	1.785675	0.0	0.0
H	-1.637264	0.142628	-1.270125
N	-0.46744	1.139493	0.747342
H	-1.494611	1.014594	0.692437
H	-0.17403	1.019556	1.711059
N	-0.471344	-1.310591	0.386031
H	-1.496159	-1.161372	0.407971
H	-0.143279	-1.501284	1.327543
C	-0.060191	-0.846109	-2.351935
N	0.267977	-1.664929	-3.127104
N	-0.196904	1.529877	-1.995683
O	0.905979	1.674796	-2.522557
O	-1.052092	2.40277	-1.889852
F	-2.80595	0.0	0.0
