16

C	0.0	0.0	0.0
C	-0.164061	-0.171201	-1.603802
Cl	1.84795	0.0	0.0
H	0.451296	-1.023679	-1.894956
N	-0.512767	1.206057	0.51496
H	-0.231779	1.987857	-0.065018
H	-1.546454	1.043411	0.448751
N	-0.519467	-1.095421	0.714172
H	-0.310074	-1.95878	0.224401
H	-1.553657	-0.920571	0.659885
C	0.279952	1.020641	-2.313684
N	0.654669	1.997989	-2.848424
N	-1.541018	-0.543861	-2.102644
O	-1.812805	-1.737526	-2.009105
O	-2.220363	0.316063	-2.645038
F	-2.761434	0.0	0.0
