16

C	0.0	0.0	0.0
C	-0.231047	-0.052212	-1.56513
Cl	1.873074	0.0	0.0
H	0.309214	0.7934	-1.993761
N	-0.489404	1.221283	0.530569
H	-1.521476	1.081291	0.463066
H	-0.187342	2.002908	-0.039537
N	-0.494831	-1.082563	0.751622
H	-1.517035	-0.893894	0.739018
H	-0.340028	-1.942358	0.238353
C	-1.596922	-0.024882	-2.107917
N	-2.423147	0.026538	-2.945784
N	0.421182	-1.250057	-2.216951
O	1.280538	-1.029352	-3.065668
O	0.042493	-2.365405	-1.865498
F	-2.736586	0.0	0.0
