16

C	0.0	0.0	0.0
C	-0.606144	-0.119926	-1.420792
Cl	1.801373	0.0	0.0
H	-1.711906	0.0464	-1.145652
N	-0.393005	1.293493	0.505788
H	0.405835	1.849661	0.78862
H	-1.125904	1.169775	1.191807
N	-0.519217	-1.147115	0.689772
H	-0.258331	-1.105056	1.668193
H	-1.545966	-0.998586	0.607505
C	-0.501058	-1.407949	-2.09232
N	-0.455892	-2.368249	-2.769718
N	-0.192806	0.95486	-2.404532
O	-0.665802	0.845837	-3.535024
O	0.525529	1.870335	-2.024427
F	-2.817735	0.0	0.0
