16

C	0.0	0.0	0.0
C	-0.510325	0.084827	-1.474156
Cl	1.782689	0.0	0.0
H	-1.611703	0.148228	-1.297501
N	-0.46634	1.065179	0.838008
H	-1.49268	0.962785	0.757502
H	-0.200302	1.965377	0.455548
N	-0.491135	-1.274656	0.447328
H	-0.229061	-1.345315	1.426569
H	-1.517385	-1.12511	0.408002
C	-0.140942	-1.069552	-2.27563
N	0.110298	-1.997794	-2.950081
N	-0.042049	1.329821	-2.152119
O	-0.53248	2.387729	-1.75532
O	0.806464	1.242532	-3.038706
F	-2.801518	0.0	0.0
