16

C	0.0	0.0	0.0
C	-0.622212	-0.104419	-1.42759
Cl	1.825763	0.0	0.0
H	-0.967999	0.88864	-1.705687
N	-0.505742	1.180268	0.596375
H	-1.539448	0.952782	0.542011
H	-0.221263	1.190295	1.571856
N	-0.330437	-1.224871	0.707138
H	0.198534	-1.254683	1.569889
H	-0.054903	-2.027637	0.153708
C	-1.701185	-1.091117	-1.555566
N	-2.261111	-2.017417	-2.024833
N	0.43198	-0.477379	-2.44139
O	0.791814	0.398289	-3.227245
O	0.869097	-1.623935	-2.407731
F	-2.71961	0.0	0.0
