15

C	-0.308363	-0.04917	-1.505433
C	0.0	0.0	0.0
Br	-2.251643	-0.313887	-1.807801
H	1.094841	0.0	0.0
C	0.009848	1.198294	-2.217671
N	0.249112	2.092505	-2.945393
N	0.406159	-1.191759	-1.997628
H	1.384933	-1.109478	-1.704895
H	0.357649	-1.229957	-3.008849
C	-0.490191	-1.186861	0.680058
N	-0.850369	-2.144604	1.256761
N	-0.503471	1.241318	0.660193
O	-1.316806	1.124405	1.573477
O	-0.042659	2.295986	0.233709
Br	3.284998	0.0	0.0
