18

C	0.0	0.0	0.0
C	-0.311863	0.041887	-1.530352
Cl	1.937866	0.0	0.0
H	0.533581	-0.441696	-2.02461
N	-0.411685	1.186526	0.694293
H	-1.435421	1.174426	0.688077
H	-0.100936	1.122921	1.660469
N	-0.400092	-1.229509	0.563674
H	-0.915276	-1.097516	1.422226
H	-0.966006	-1.735018	-0.110912
C	-0.407951	1.478051	-2.039896
H	-1.302666	1.964635	-1.647198
H	-0.475779	1.465384	-3.132685
H	0.46247	2.066005	-1.745607
N	-1.468416	-0.800615	-1.825361
H	-2.319374	-0.440125	-1.387073
H	-1.613217	-0.819404	-2.827112
Cl	-3.953477	0.0	0.0
