18

C	0.0	0.0	0.0
C	-0.459126	-0.146023	-1.474375
Cl	1.802697	0.0	0.0
H	-1.551388	-0.104844	-1.417569
N	-0.430084	1.307298	0.463299
H	-0.139292	1.428512	1.428483
H	-1.453231	1.264582	0.454013
N	-0.448931	-1.14579	0.755725
H	-1.468828	-1.135913	0.664217
H	-0.237737	-0.991361	1.737247
C	-0.054586	-1.47245	-2.094693
H	-0.390365	-2.310372	-1.485539
H	1.032348	-1.539533	-2.20206
H	-0.503413	-1.537698	-3.088388
N	-0.026513	0.949523	-2.336252
H	-0.301791	1.813821	-1.881026
H	0.989285	0.953576	-2.349857
Cl	-3.630234	0.0	0.0
