18

C	0.0	0.0	0.0
C	-0.326418	0.314158	-1.485755
Cl	1.937052	0.0	0.0
H	0.409474	-0.254348	-2.060353
N	-0.489054	0.966016	0.884703
H	-0.13366	1.896867	0.724698
H	-0.415936	0.700932	1.85655
N	-0.400147	-1.337087	0.325303
H	-1.418551	-1.313288	0.390257
H	-0.025809	-1.600218	1.230283
C	-0.167989	1.796437	-1.797114
H	-0.260503	1.935402	-2.874839
H	-0.974796	2.362672	-1.323534
H	0.799601	2.188239	-1.472174
N	-1.634972	-0.117905	-1.919456
H	-2.391316	0.233555	-1.32879
H	-1.695841	-1.127536	-1.880727
Cl	-4.276842	0.0	0.0
