18

C	0.0	0.0	0.0
C	-0.342512	0.027198	-1.54284
Cl	1.802419	0.0	0.0
H	0.463767	-0.55528	-1.99629
N	-0.480922	1.179659	0.675817
H	-1.493793	1.189395	0.539838
H	-0.319364	1.075835	1.673183
N	-0.425163	-1.282526	0.527004
H	-1.444989	-1.251788	0.534023
H	-0.1175	-1.360939	1.491822
C	-0.278133	1.444765	-2.09357
H	-0.342492	1.393586	-3.182364
H	-1.116471	2.041551	-1.72716
H	0.646816	1.946993	-1.803821
N	-1.569533	-0.604509	-1.966952
H	-1.552911	-1.587364	-1.725316
H	-2.393812	-0.206317	-1.522516
Cl	-4.009614	0.0	0.0
