18

C	0.0	0.0	0.0
C	-0.319661	0.007606	-1.546383
Cl	1.8022	0.0	0.0
H	0.430094	-0.664846	-1.980047
N	-0.513206	1.167062	0.646386
H	-1.505421	1.230449	0.415371
H	-0.454555	1.012504	1.648175
N	-0.418343	-1.197392	0.696872
H	-1.437972	-1.1816	0.709005
H	-0.109384	-2.025368	0.197373
C	-0.126652	1.394368	-2.148122
H	-0.911433	2.071181	-1.801637
H	0.837417	1.825234	-1.873876
H	-0.198663	1.314975	-3.235157
N	-1.605945	-0.508124	-1.961091
H	-1.713903	-1.47025	-1.664524
H	-2.385673	-0.015381	-1.530294
Cl	-4.040388	0.0	0.0
