18

C	0.0	0.0	0.0
C	-0.448351	-0.113261	-1.468049
Cl	1.817303	0.0	0.0
H	-1.539365	-0.052605	-1.395051
N	-0.415495	1.23164	0.623105
H	-0.224221	1.978276	-0.039866
H	-1.432213	1.155993	0.698389
N	-0.456178	-1.15066	0.730067
H	-0.283157	-0.957899	1.712446
H	-1.472961	-1.167737	0.6103
C	-0.063869	-1.428119	-2.134129
H	-0.411802	-2.280246	-1.550182
H	1.022588	-1.505098	-2.23748
H	-0.512484	-1.476361	-3.131837
N	0.002728	1.076967	-2.195747
H	0.941616	0.919217	-2.545016
H	-0.605195	1.220137	-2.992588
Cl	-3.650581	0.0	0.0
