13

C	0.0	0.0	0.0
C	-0.477823	-0.35216	-1.389564
F	1.354564	0.0	0.0
H	0.384872	-0.593092	-2.023974
H	-0.392106	0.932639	0.372342
H	-1.209433	-1.143268	-1.371376
N	-0.376546	-1.058052	0.991067
O	-0.39899	-2.224566	0.602138
O	-0.457805	-0.7056	2.163306
N	-1.129613	0.805484	-2.053328
O	-0.755067	1.936909	-1.754423
O	-1.911013	0.548934	-2.963011
F	-2.342748	0.0	0.0
