17
Coordinates from ORCA-job run
  C   -0.93723388592742     -0.29392757196070      0.09295646165450
  C   0.50274169514236     -0.56998124400657     -0.32220665126976
  F   -1.67446949521373     -1.40379671262804      0.03463704418740
  H   0.37039222352668     -1.22094468017086     -1.19373025041275
  N   -1.56949554999825      0.72474561514198     -0.84237224178896
  O   -1.88089968090285      0.28136279257586     -1.93964241423537
  O   -1.64323449453546      1.88335799517933     -0.45274250894772
  N   -1.07942911197206      0.27644848942952      1.49100611958154
  O   -0.12447414216373      0.90464785191690      1.93164796093814
  O   -2.15193806793564      0.07585921847831      2.04130857473069
  N   1.08414958631264     -1.36605209671296      0.74721653198605
  H   1.71017690353325     -2.06458917853180      0.37278020607985
  H   1.59586962855175     -0.77562013757275      1.39018024664934
  C   1.29020206337059      0.66402451939445     -0.75269057524914
  H   1.38547613553960      1.37698274613977      0.06527228795882
  H   2.28854681526240      0.34200850489558     -1.05634494915390
  H   0.83261937740985      1.16747388843198     -1.60727584270874
