17
Coordinates from ORCA-job run
  C   -0.92734612821063     -0.08679042793801      0.02588785294020
  C   0.46692876683359     -0.61213495374370     -0.26654059893773
  F   -1.77791905219542     -1.11903877039712      0.18438982963871
  H   0.34041442859486     -1.21371658975598     -1.17796605088817
  N   -1.53783458631125      0.77047132084501     -1.06687059014210
  O   -2.52705720992331      1.41621391758225     -0.74388551626002
  O   -1.04753410174961      0.67355124353509     -2.18681276804025
  N   -0.96507384226324      0.75366577131463      1.28200721031998
  O   -1.52071142902890      0.28663930011743      2.26026861602470
  O   -0.40281383588758      1.83724560828573      1.17493105368707
  N   0.82194240296509     -1.38801656110211      0.91599380422121
  H   1.81274175120202     -1.59103458266579      0.90904429486781
  H   0.31642918585198     -2.26411066489693      0.94676510735888
  C   1.52827170137187      0.44798083834941     -0.51602525343394
  H   2.44098335037514     -0.05636537215777     -0.84403545409078
  H   1.74307817882343      0.99812029857665      0.39883904252450
  H   1.23450041955195      1.14731962405120     -1.29599057979007
