12
Coordinates from ORCA-job run
  C   0.03628690569549     -0.43004170358516     -0.02415254406324
  C   0.24652330871925      0.70998128884695     -1.00699994110569
  Cl  0.04445317250407     -1.96860354331539     -0.88981534552788
  H   0.22157149800673      1.65754160661461     -0.46490214764121
  H   -0.52913179957159      0.71012321461516     -1.77507471534424
  H   1.21894105369176      0.59394822472654     -1.48732420407700
  N   -1.35130960259906     -0.19321295489193      0.60019500579417
  O   -2.31796296433698     -0.82142932693795      0.20139444141137
  O   -1.35690282997109      0.70194029921794      1.44085278765683
  N   0.93997126859849     -0.52570058505609      1.08282713005643
  H   1.85838290743899     -0.79772278465101      0.75831910139578
  H   0.98917708182394      0.36317626441634      1.56468043144467
