12
Coordinates from ORCA-job run
  C   0.09467231797683     -0.35401196030169     -0.13948982378748
  C   0.28984621903844      0.89181329039615     -0.96722406864986
  Cl  -0.14028215500100     -1.78237539470657     -1.18171639683613
  H   -0.53645982381297      1.02581571585822     -1.65988134172371
  H   0.34176821695159      1.76500553983196     -0.31045211644144
  H   1.22611677230616      0.79589543474372     -1.51578559571962
  N   -1.27302889200988     -0.22683160656224      0.61708612503327
  O   -1.29970174620824     -0.65104413043329      1.76754560681914
  O   -2.20961687159741      0.27226889029404      0.00795967276916
  N   1.16581967623806     -0.59397063277177      0.73817464240336
  H   0.97244759822094     -1.37355996129608      1.35358463708953
  H   1.36841868789747      0.22999481494755      1.29019865904377
