12
Coordinates from ORCA-job run
  C   0.14629955537586     -0.35941724653652     -0.05778479819861
  C   0.18185178644598      0.68403492655468     -1.14639032543258
  Cl  0.13260816368109     -2.00330593341755     -0.74936648987294
  H   1.13205270721851      0.59893657652841     -1.67237343200514
  H   -0.64246218136270      0.54297238340559     -1.84000443302340
  H   0.10066862541802      1.68066243320030     -0.70295407598095
  N   -1.24071180783394     -0.25852371849808      0.66776807312070
  O   -1.23074086987860     -0.41435370533612      1.88430477599346
  O   -2.22561230772913     -0.04424326462048     -0.02604600778641
  N   1.22261579964309     -0.24413560171386      0.83857966248072
  H   1.12740641087390     -0.88593425850790      1.61508229651472
  H   1.29602411814793      0.70230740894154      1.19018475419042
