18

C	-0.547045	0.00141	-1.448763
C	0.0	0.0	0.0
Cl	-0.133153	-1.588486	-2.147141
H	1.096134	0.0	0.0
C	-2.034135	0.22031	-1.551419
H	-2.526378	-0.493633	-0.892362
H	-2.359711	0.070244	-2.579892
H	-2.278263	1.243318	-1.266007
N	0.189718	1.014923	-2.334736
O	1.40753	0.989244	-2.299781
O	-0.505751	1.744966	-3.038426
N	-0.578806	-1.097958	0.743113
H	-0.675522	-0.785936	1.702957
H	0.104523	-1.846729	0.738589
N	-0.389392	1.30006	0.643288
O	-0.295985	2.306672	-0.054324
O	-0.731522	1.294287	1.824518
Cl	3.29092	0.0	0.0
