18

C	-0.426894	0.015402	-1.463701
C	0.0	0.0	0.0
Cl	0.386548	1.317363	-2.33593
H	1.091338	0.0	0.0
C	-0.060796	-1.304533	-2.117142
H	1.008581	-1.460418	-1.966659
H	-0.282822	-1.253395	-3.184466
H	-0.608258	-2.114945	-1.639233
N	-1.938019	0.178163	-1.613221
O	-2.616491	-0.258662	-0.683244
O	-2.381739	0.623539	-2.662157
N	-0.373766	-1.185569	0.703483
H	-1.321114	-1.141314	1.049858
H	0.281034	-1.325887	1.460929
N	-0.455808	1.25063	0.728649
O	-1.093854	2.110836	0.121933
O	-0.169285	1.295707	1.922349
Cl	3.249268	0.0	0.0
