18

C	-0.603259	0.003485	-1.422532
C	0.0	0.0	0.0
Cl	-0.189548	-1.565116	-2.160284
H	1.096047	0.0	0.0
C	-2.100884	0.189138	-1.443414
H	-2.357903	1.199353	-1.124657
H	-2.537528	-0.54949	-0.76998
H	-2.480603	0.045485	-2.45492
N	0.076006	1.044862	-2.320108
O	1.294904	1.016417	-2.35553
O	-0.65727	1.802705	-2.952247
N	-0.544037	-1.105301	0.758702
H	0.176144	-1.820585	0.796352
H	-0.68954	-0.774052	1.706376
N	-0.387807	1.299413	0.661624
O	-0.744469	1.280633	1.837957
O	-0.290826	2.31223	-0.024655
Cl	3.300021	0.0	0.0
