15

C	0.0	0.0	0.0
C	-0.538228	0.182398	-1.411702
Cl	1.776731	0.0	0.0
H	-1.636409	0.174255	-1.266257
H	-0.157856	-0.591653	-2.067321
N	-0.568945	0.877973	0.898013
H	-0.312841	0.615127	1.842328
H	-1.611622	0.722017	0.721262
N	-0.318987	-1.518341	0.368496
O	-0.47215	-1.746654	1.560763
O	-0.340825	-2.355331	-0.525361
N	-0.09758	1.47719	-1.981538
O	-0.670432	2.500805	-1.615798
O	0.809069	1.444822	-2.821927
F	-2.797566	0.0	0.0
