15

C	0.0	0.0	0.0
C	-0.556906	-0.335547	-1.398588
Cl	1.753535	0.0	0.0
H	-1.627701	-0.516718	-1.210382
H	-0.406052	0.559802	-2.001907
N	-0.571122	1.175694	0.521655
H	-1.612289	0.946131	0.435788
H	-0.328527	1.945841	-0.091021
N	-0.379398	-1.153506	0.957611
O	-0.278494	-2.27716	0.481253
O	-0.680125	-0.88265	2.106287
N	0.063682	-1.432838	-2.189266
O	-0.542929	-2.499538	-2.291558
O	1.134215	-1.182868	-2.755269
F	-2.788524	0.0	0.0
