15

C	0.0	0.0	0.0
C	-0.518723	-0.000501	-1.426428
Cl	1.826332	0.0	0.0
H	-1.618369	0.020337	-1.292495
H	-0.145438	-0.859818	-1.969814
N	-0.565055	0.973765	0.78474
H	-0.325894	0.809087	1.755496
H	-1.610975	0.801043	0.61099
N	-0.287826	-1.464294	0.55613
O	-0.438448	-1.542681	1.767933
O	-0.298308	-2.407628	-0.224754
N	-0.060411	1.199759	-2.166117
O	0.781671	1.025062	-3.053911
O	-0.559475	2.286503	-1.88468
F	-2.783394	0.0	0.0
