15

C	0.0	0.0	0.0
C	-0.582784	-0.089299	-1.399591
Cl	1.754029	0.0	0.0
H	-0.520239	0.903902	-1.838523
H	-1.654517	-0.338189	-1.224259
N	-0.559627	1.134473	0.610564
H	-1.595928	0.931021	0.506629
H	-0.302281	1.123675	1.591294
N	-0.377584	-1.288759	0.816505
O	-0.16987	-1.209073	2.02492
O	-0.850226	-2.252864	0.238506
N	0.053574	-1.003513	-2.374761
O	0.698014	-1.976779	-1.995212
O	-0.149493	-0.72278	-3.560104
F	-2.801008	0.0	0.0
