15

C	0.0	0.0	0.0
C	-0.552429	0.192936	-1.412036
Cl	1.755345	0.0	0.0
H	-0.24349	-0.592725	-2.090225
H	-1.658828	0.199691	-1.205052
N	-0.518772	0.8314	1.013289
H	-1.54983	0.684468	0.886744
H	-0.288346	1.783308	0.754273
N	-0.402977	-1.462806	0.361265
O	-0.796439	-1.683111	1.490579
O	-0.22784	-2.305666	-0.514878
N	-0.141259	1.467515	-2.030127
O	0.030427	1.462728	-3.249528
O	-0.038034	2.479574	-1.335786
F	-2.769359	0.0	0.0
