15

C	0.0	0.0	0.0
C	-0.565534	-0.165157	-1.393485
Cl	1.827075	0.0	0.0
H	-1.6662	-0.175995	-1.191065
H	-0.186785	-1.061692	-1.866891
N	-0.547384	1.050105	0.699194
H	-1.586433	0.893264	0.551443
H	-0.306338	0.963035	1.6803
N	-0.285176	-1.394689	0.721531
O	-0.304386	-2.419461	0.051299
O	-0.430632	-1.335713	1.935275
N	-0.235176	0.962368	-2.292402
O	0.341897	0.677719	-3.34851
O	-0.59629	2.094014	-1.98327
F	-2.802443	0.0	0.0
