18

C	0.0	0.0	0.0
C	-0.288842	0.004844	-1.549249
Cl	1.73884	0.0	0.0
H	0.398877	-0.759299	-1.915128
N	-0.400563	1.231903	0.870861
O	-1.168765	2.063723	0.43927
O	0.184548	1.271061	1.950024
N	-0.517386	-1.269208	0.635459
O	-0.729397	-1.278697	1.833665
O	-0.518471	-2.243064	-0.111521
N	0.281462	1.264699	-2.185753
O	0.535169	2.256218	-1.510976
O	0.437814	1.202354	-3.405336
C	-1.619836	-0.2736	-2.229598
H	-2.041403	-1.178971	-1.811235
H	-2.332803	0.517905	-2.039828
H	-1.399301	-0.40177	-3.295345
F	-2.383658	0.0	0.0
