15

C	0.0	0.0	0.0
C	-0.388521	-0.10685	-1.490602
Br	1.932384	0.0	0.0
H	0.048454	0.756057	-1.992542
N	-0.422321	1.365893	0.539033
O	-0.542248	1.455283	1.748297
O	-0.496427	2.272472	-0.276417
C	-0.45324	-1.056929	0.88695
N	-0.589237	-1.933928	1.659135
C	-1.817162	-0.207795	-1.840613
N	-2.596288	-0.331253	-2.724418
N	0.291804	-1.30159	-2.117219
O	0.945452	-1.091247	-3.135836
O	0.10984	-2.39258	-1.588024
F	-2.331863	0.0	0.0
