12
Coordinates from ORCA-job run
  C   1.04895797920684     -0.01923049227032     -0.39554653460080
  C   -0.34859810983343      0.59359214083786     -0.40226399821242
  Cl  2.23331610596516      1.09585872435999     -1.14321279106674
  H   -0.31599253753217      1.53535221365292      0.15186426669379
  H   1.06548962189535     -0.92962453147854     -0.99970055489805
  H   -0.59383588658861      0.83534573683519     -1.44001187195197
  C   1.48431371043352     -0.35473622835695      0.95825053027409
  N   1.79057210915235     -0.62874474009349      2.05817731560586
  C   -1.38698073312507     -0.35286399083630      0.19152409975709
  H   -2.38188487622588      0.09144662952511      0.12462678310662
  H   -1.18335220418002     -0.56169150242557      1.24361826174865
  H   -1.41100517916804     -1.30370395974990     -0.34732550645613
