12
Coordinates from ORCA-job run
  C   0.95881546691792      0.18197717741997     -0.25392510622758
  C   -0.34469446976981     -0.44454245153852      0.23760675300556
  Cl  1.40810455915162      1.61101086978084      0.72951469938436
  H   -0.48550227203396     -1.37396949720488     -0.32442524685704
  H   0.84215756245929      0.54512413691514     -1.27826712215827
  H   -0.21951561941500     -0.71732215835657      1.28894707657342
  C   2.05648261711881     -0.78180690258949     -0.22628672462686
  N   2.92381243235439     -1.57310968621045     -0.22902646641614
  C   -1.55026997610528      0.46761855409492      0.05013992353595
  H   -2.45965879514333     -0.03753121924142      0.38082684747198
  H   -1.68067208797716      0.73507908423934     -1.00173402811854
  H   -1.44805941755749      1.38747209269111      0.62662939443316
