12
Coordinates from ORCA-job run
  C   1.09797269828676      0.27238403707799     -0.27092034130272
  C   -0.37407353093168      0.28026382072141     -0.68072447035213
  Cl  1.46330696595177      1.60755020649913      0.86786489037856
  H   -0.58697545976200      1.26297203795374     -1.11108663602180
  H   1.73235164757587      0.44461609310478     -1.14297890379434
  H   -0.48516390009224     -0.45709451030796     -1.48367637628224
  C   1.48363344923554     -1.00054760532147      0.33469518823110
  N   1.76035706822042     -2.04483180778904      0.79467071624495
  C   -1.33487581719995     -0.03154755627687      0.45878048143902
  H   -2.36482215280473     -0.00133183773858      0.09820966825559
  H   -1.24019543114710      0.69492260708326      1.26695518477583
  H   -1.15151553733267     -1.02735548500638      0.86821059842819
