13
Coordinates from ORCA-job run
  C   0.51409956381566      0.00785772746473     -0.40809908529666
  C   -0.60828326445882     -0.30587813996943      0.58493400934938
  H   0.19161520136639     -0.33071429609712     -1.40606545424024
  H   -0.63225831594703     -1.39686440852099      0.72905498435676
  H   -0.33148670796694      0.13934429339433      1.54264000484564
  N   1.75766978465870     -0.60809650299747      0.05448446153508
  H   1.67097359135189     -1.61592415701402     -0.00870917990422
  H   2.52975345512273     -0.32939173919669     -0.53892363889233
  C   0.70214765461575      1.46071631436417     -0.49600412876040
  N   0.89119785083930      2.61645437107288     -0.56630750467663
  N   -1.86239178123391      0.26266909351268      0.11401408576828
  H   -2.35123694086308     -0.38573276707140     -0.48842447809978
  H   -2.47080009130064      0.48656021105836      0.88840592401511
