13
Coordinates from ORCA-job run
  C   0.46833953119883     -0.03269705285193     -0.47380086030624
  C   -0.65456579987007     -0.42396251332685      0.48888789614556
  H   0.11115942173087     -0.20262783892065     -1.49526046112151
  H   -0.32580081037894     -0.20556972714217      1.50979389919701
  H   -0.77599870701044     -1.51138731589038      0.40673852650003
  N   1.62872778644447     -0.89078476321301     -0.26094105212951
  H   2.04331467458050     -0.68177299401054      0.64051285050818
  H   2.33419535624551     -0.70300056220356     -0.96327479600389
  C   0.76279692932501      1.40915211358637     -0.34036010799547
  N   1.08691835798404      2.52969029881098     -0.20372985153153
  N   -1.84815830258289      0.35805977518823      0.19894013096698
  H   -2.43298345655430      0.44324708120360      1.01839375565082
  H   -2.39594498111259     -0.08834650123009     -0.52489992988043
