13
Coordinates from ORCA-job run
  C   0.55462872322898     -0.12253288644424     -0.36386923250587
  C   -0.60403073503486     -0.27513642735497      0.62439036266902
  H   0.39666889448984     -0.85665902942068     -1.16695824466693
  H   -0.44720563968196      0.44898224918257      1.43477578322242
  H   -0.53577229526043     -1.27851185354415      1.05709174949893
  N   1.82770588940099     -0.25082652854203      0.34379149685888
  H   1.91801243481538     -1.20263011832765      0.68073788841790
  H   2.59963045576823     -0.07820617501324     -0.28911717622884
  C   0.47733381425140      1.20858727461200     -0.98083510064875
  N   0.38332227171483      2.27425232199949     -1.46352601507377
  N   -1.87158609193822     -0.16270430526484     -0.08567069990164
  H   -2.62561806954151     -0.51570958913934      0.48868919687029
  H   -2.07208965221267      0.81109506725708     -0.28050000851165
