12

C	-0.41423	-0.141936	-1.473143
C	0.0	0.0	0.0
Cl	-0.306712	1.449889	-2.296698
H	1.093838	0.0	0.0
H	-1.458624	-0.448925	-1.566288
H	-0.29623	-0.928418	0.504277
N	0.420895	-1.082854	-2.17946
H	1.394197	-0.860575	-1.971008
H	0.241966	-2.010095	-1.80732
C	-0.596261	1.115849	0.715397
N	-1.117044	2.001542	1.283518
Cl	3.359016	0.0	0.0
