12

C	-0.409848	-0.340367	-1.430204
C	0.0	0.0	0.0
Cl	-0.287257	1.184468	-2.484697
H	1.092073	0.0	0.0
H	-1.462949	-0.603649	-1.521757
H	-0.300584	-0.847234	0.627314
N	0.416168	-1.400143	-1.861377
H	0.265937	-1.637219	-2.832096
H	1.396315	-1.178742	-1.698103
C	-0.588829	1.213302	0.538205
N	-1.098872	2.160188	1.007759
Cl	3.362764	0.0	0.0
