12

C	-0.409707	0.011669	-1.483603
C	0.0	0.0	0.0
Cl	-0.31413	1.714404	-2.069745
H	1.092529	0.0	0.0
H	-1.454032	-0.280423	-1.614352
H	-0.379156	0.858531	0.556844
N	0.417014	-0.821578	-2.312971
H	0.193754	-1.792736	-2.124584
H	1.391834	-0.671062	-2.057227
C	-0.488018	-1.23433	0.606107
N	-0.945795	-2.221408	1.048463
Cl	3.360487	0.0	0.0
