12

C	-0.463803	-0.056813	-1.444029
C	0.0	0.0	0.0
Cl	-2.253572	-0.682335	-1.458406
H	1.093659	0.0	0.0
H	0.064749	-0.85393	-1.963668
H	-0.325189	-0.898877	0.526809
N	-0.304466	1.159945	-2.116154
H	-0.775509	1.927976	-1.655938
H	-0.565973	1.109598	-3.089225
C	-0.535516	1.171521	0.680528
N	-0.959869	2.139601	1.191537
Cl	3.359712	0.0	0.0
