12

C	-0.54408	0.036877	-1.434174
C	0.0	0.0	0.0
Cl	-0.133682	-1.522034	-2.213245
H	1.092922	0.0	0.0
H	-0.011381	0.80612	-1.995701
H	-0.344532	-0.908111	0.505101
N	-1.966408	0.259891	-1.585044
H	-2.470316	-0.399249	-1.001155
H	-2.182392	1.194	-1.25223
C	-0.497815	1.165665	0.724032
N	-0.936095	2.123586	1.24381
Cl	3.373185	0.0	0.0
