12

C	-0.323568	0.030319	-1.482489
C	0.0	0.0	0.0
Cl	-2.113045	0.048914	-1.789818
H	1.095963	0.0	0.0
H	-0.000611	-0.924952	-1.911293
H	-0.359403	-0.922234	0.459664
N	0.27647	1.192443	-2.068233
H	1.236138	1.253774	-1.732205
H	0.292828	1.11266	-3.07799
C	-0.516253	1.152647	0.725661
N	-0.938141	2.057877	1.341845
Cl	3.336622	0.0	0.0
