12

C	-0.395766	-0.133279	-1.468223
C	0.0	0.0	0.0
Cl	-0.230059	1.515694	-2.2981
H	1.093954	0.0	0.0
H	-1.454099	-0.361016	-1.605492
H	-0.307339	-0.923808	0.500852
N	0.418783	-1.142434	-2.030585
H	0.294631	-1.217776	-3.030683
H	1.399003	-0.968779	-1.813314
C	-0.588008	1.130799	0.696609
N	-1.103693	2.010325	1.278153
Cl	3.361976	0.0	0.0
