14

C	-0.616081	0.07931	-1.37922
C	0.0	0.0	0.0
Cl	-0.04527	-1.32016	-2.310844
H	1.106658	0.0	0.0
H	-0.322791	-0.926055	0.477477
C	-2.076739	0.063145	-1.334303
N	-3.241398	-0.025356	-1.209499
N	-0.17903	1.326199	-2.169092
O	-0.953587	1.683979	-3.048246
O	0.906078	1.797314	-1.889795
N	-0.489941	1.103804	0.859151
O	-0.960201	2.099818	0.305284
O	-0.37442	0.950016	2.069513
Cl	3.230528	0.0	0.0
