14

C	-0.565163	-0.10139	-1.398525
C	0.0	0.0	0.0
Cl	0.103606	-1.571586	-2.137707
H	1.10749	0.0	0.0
H	-0.320436	-0.868641	0.577872
C	-2.023282	-0.177119	-1.44165
N	-3.190244	-0.316332	-1.430676
N	-0.128352	1.071349	-2.295722
O	-0.771518	1.199225	-3.331288
O	0.829022	1.724726	-1.925635
N	-0.52318	1.191392	0.710931
O	-1.16643	2.019197	0.06079
O	-0.277458	1.262282	1.908011
Cl	3.22757	0.0	0.0
