14

C	-0.520751	-0.151829	-1.40748
C	0.0	0.0	0.0
Cl	-0.136387	1.343261	-2.290395
H	1.108176	0.0	0.0
H	-0.361512	0.923779	0.445594
C	0.006394	-1.291199	-2.146954
N	0.434628	-2.175241	-2.791474
N	-2.064046	-0.247962	-1.409374
O	-2.586209	-0.881059	-2.315378
O	-2.635375	0.370074	-0.522072
N	-0.47718	-1.107358	0.85956
O	-0.33591	-0.963217	2.066416
O	-0.967948	-2.096035	0.30819
Cl	3.192369	0.0	0.0
