14

C	-0.509604	0.408718	-1.3692
C	0.0	0.0	0.0
Cl	0.347125	1.767309	-2.063227
H	1.100646	0.0	0.0
H	-0.362442	-0.990161	0.268085
C	-0.421451	-0.735489	-2.274806
N	-0.395992	-1.658854	-3.001512
N	-2.039593	0.711422	-1.291977
O	-2.664768	-0.102743	-0.626678
O	-2.487799	1.656915	-1.909772
N	-0.470339	0.916316	1.066739
O	-0.906061	2.022768	0.74211
O	-0.373227	0.49418	2.214455
Cl	3.199921	0.0	0.0
