16
Coordinates from ORCA-job run
  C   -0.42654647539211     -0.39473296345215     -0.15562049523110
  C   0.62760089651942      0.73618522880145     -0.16718799853275
  F   0.27688321608295     -1.57231142839374     -0.46064549975675
  H   0.15720363326408      1.66176122335571      0.16672488330987
  C   -1.07131879982113     -0.59006678086020      1.19814251317965
  H   -1.81925372780939     -1.38145127719465      1.11176883034625
  H   -0.33532640541625     -0.89955915983087      1.93749617399191
  H   -1.55635502894061      0.32656363182276      1.53354154596738
  N   -1.38949685592794     -0.07155809296153     -1.14172947137773
  H   -2.18622043855987     -0.69275700405941     -1.08785590796763
  H   -0.99728966474813     -0.11499548349570     -2.07535260584640
  C   1.20237178919685      0.89731148039236     -1.49684631816708
  N   1.59653688867418      1.03400156268072     -2.59413570655817
  N   1.72007748513369      0.43231592434778      0.82655834760690
  O   1.50286905439304      0.81558633427289      1.97317933166893
  O   2.69926443335121     -0.18629319542541      0.43096237736671
