16
Coordinates from ORCA-job run
  C   -0.50174942657638     -0.29016266490185     -0.25473458206168
  C   0.92574309849966      0.27016254688985     -0.09173161245068
  F   -0.71220403987252     -0.23330343718009     -1.65602527693774
  H   1.62981462037997     -0.39929951500528     -0.58763490332606
  C   -0.54519766236434     -1.74925847230409      0.14210404969191
  H   -1.55391047532494     -2.13253563618719     -0.02737566151932
  H   0.14465368498181     -2.33046119480897     -0.47090039194193
  H   -0.29790552941266     -1.86822681563855      1.19743220417462
  N   -1.43880310111303      0.46589062344917      0.47010251497097
  H   -2.37050200425668      0.08480950061624      0.37802583737658
  H   -1.42702981502142      1.44658089302768      0.22366708373887
  C   1.28673387585062      0.46215075717721      1.30521659774080
  N   1.60797663202601      0.58358122548743      2.42786914651084
  N   1.05584125558464      1.58026783239720     -0.83526392425011
  O   0.37506071429067      2.51781894910126     -0.43091279299909
  O   1.82147817232860      1.59098540787999     -1.78983828871799
