16
Coordinates from ORCA-job run
  C   -0.51735203002202     -0.28014229648504     -0.37812470730831
  C   0.93744090743521      0.20400311192533     -0.08006640812064
  F   -0.56370210843904     -0.26275233754421     -1.77101848960198
  H   1.65740575998953     -0.51083873004470     -0.48108505221255
  C   -0.68670401429430     -1.70800445552416      0.09155123380576
  H   -0.55857526801191     -1.79140550071464      1.17299525683821
  H   -1.69244606221649     -2.03355207066965     -0.17666672234653
  H   0.03652041564737     -2.35585877493942     -0.40506447637367
  N   -1.55860267213651      0.54272870365511      0.11171357760194
  H   -1.36267839835656      1.53018347842111      0.01519919726186
  H   -1.81118230484568      0.32305637773440      1.06382803098689
  C   1.12414025955450      0.40917668977455      1.34739412149526
  N   1.23070580630936      0.53332687459054      2.51030006133437
  N   1.19936411072385      1.48896226708406     -0.82160096590200
  O   0.57447815856136      2.47872351230937     -0.44839136960330
  O   1.99118744010131      1.43239315042735     -1.75296328785532
