16
Coordinates from ORCA-job run
  C   -0.54110114874639     -0.27288834877934     -0.18278380075664
  C   0.90790314936425      0.25372852996684     -0.22376209001084
  F   -0.95759663064416     -0.17554545026164     -1.53487006813093
  H   1.51304662151235     -0.41668053358021     -0.83547183217863
  C   -0.55995854494540     -1.74068488971752      0.18267915879894
  H   0.01548833331415     -2.31947083763404     -0.54069021555054
  H   -0.16006957539896     -1.89266738077783      1.18563498483954
  H   -1.59171931623373     -2.09845952264524      0.15833138104129
  N   -1.34029076624817      0.48315628534494      0.69154325296781
  H   -2.28413502454540      0.12370879274792      0.73287779832351
  H   -1.34162276439404      1.46959095849159      0.46866960745812
  C   1.47901975080593      0.40075219686690      1.10700908070552
  N   1.96759893581510      0.48573732501611      2.17110279182698
  N   0.95622842048003      1.58011548061893     -0.94780015120773
  O   1.56926901041114      1.60028923526359     -2.00670581264819
  O   0.36693954945330      2.52031815907900     -0.42376408547822
