16
Coordinates from ORCA-job run
  C   -0.49573721697120     -0.36881328479809     -0.37183405614352
  C   0.81412212044294      0.44162456064180     -0.51142165528799
  F   -0.42243857985411     -1.24515945149166     -1.48112120844959
  H   0.84066687435239      0.87857133221359     -1.51186531361184
  C   -0.58033298905873     -1.22592021617754      0.86761319518054
  H   0.25549547413892     -1.92407629175127      0.90309456764491
  H   -1.50581444085569     -1.80475172562558      0.82571071162063
  H   -0.57696496708465     -0.61000963355793      1.76512241646601
  N   -1.57859740992810      0.52889049907066     -0.46057147245572
  H   -2.46373490682396      0.06425344790349     -0.30985454361626
  H   -1.59767261728752      1.03127715667582     -1.33919492995342
  C   1.99888541117891     -0.37426900135882     -0.28882434807898
  N   2.94972057781493     -1.04228875824783     -0.12260031893470
  N   0.80043461960826      1.60202578233613      0.44784486449826
  O   1.02034057873877      1.35094394883250      1.62711633127212
  O   0.54062747158883      2.69670163533472     -0.03721424015045
