16
Coordinates from ORCA-job run
  C   -0.48369283432616     -0.43768221751484     -0.46022526573287
  C   0.81681818812811      0.42060519897799     -0.51878429344776
  F   -0.28670810453500     -1.30269069062930     -1.54325855881349
  H   0.87328975833703      0.86463392215304     -1.51496769043567
  C   -0.60320177808521     -1.27835515560847      0.78870586877918
  H   0.23912640853620     -1.96550818702046      0.85963985848593
  H   -0.62771388468202     -0.66018848713780      1.68680443749531
  H   -1.52378271161062     -1.85947149864199      0.71755586991167
  N   -1.64814046766373      0.32758864777555     -0.68555265754377
  H   -1.52190578643867      1.14541766774639     -1.26354628626847
  H   -2.16713824406257      0.54513851638638      0.14984398165830
  C   2.01805313055556     -0.34835084564245     -0.23456689605725
  N   2.97745959571361     -0.98985310389636     -0.01839127719907
  N   0.69484134940763      1.56727571298246      0.44401827576787
  O   0.98831523524084      1.35845638034431      1.61658395266499
  O   0.25138014548501      2.61298413972556     -0.02385931926490
