16
Coordinates from ORCA-job run
  C   -0.53299660936665     -0.24276869574097     -0.37598022113786
  C   0.92776995027366      0.23956035641731     -0.25368797513759
  F   -0.78559185888015     -0.27287192989503     -1.74936201073344
  H   1.53712836345702     -0.34078530829122     -0.94823526617573
  C   -0.66799709188834     -1.67448875954286      0.10926190544342
  H   -0.51062678083000     -1.74099142350693      1.18628404581582
  H   -1.68010678889983     -2.01424781669531     -0.12381997640403
  H   0.03389509664657     -2.33399181904708     -0.40538339082862
  N   -1.41333155224176      0.69675182302931      0.22294614502254
  H   -1.00326907357586      1.24166117651373      0.96768089067638
  H   -2.27484798097296      0.26988006023946      0.53248522317151
  C   1.42360016321391      0.12353894274781      1.11007833586135
  N   1.79839492866174     -0.01128507049108      2.21488441148268
  N   1.03188255753919      1.67526000875228     -0.71454366427108
  O   0.83426922881483      2.54413376415582      0.12895689452901
  O   1.27782744804863      1.83964469135476     -1.90156534731437
