16
Coordinates from ORCA-job run
  C   -0.50182140538823     -0.32863234272842     -0.35988045331234
  C   0.90512945559328      0.30500156597348     -0.11745353262248
  F   -0.61429127648270     -0.29629663384319     -1.74865861569354
  H   1.67799047413807     -0.32250764134067     -0.56368123958823
  C   -0.49481842954642     -1.77301834302096      0.08957591655711
  H   -0.30271448583636     -1.85777019932761      1.16135161866818
  H   -1.47265962954177     -2.20097286335563     -0.13414503027153
  H   0.26637997939350     -2.33221699725539     -0.45549623672460
  N   -1.60163895009183      0.37029792844254      0.19103346055425
  H   -1.51681566005833      1.37434514291506      0.10425349208128
  H   -1.78326650083378      0.11236021916471      1.14978116936907
  C   1.13574004150352      0.50839265979260      1.30378683760035
  N   1.28465047125191      0.62671779682421      2.46265452940519
  N   0.99348184223219      1.62079738192386     -0.84530829737656
  O   1.73957231227775      1.66171469369450     -1.81450976889734
  O   0.28608176138920      2.53278763214091     -0.42430384974882
