16
Coordinates from ORCA-job run
  C   -0.56647832167746     -0.30937640125357     -0.26969944047821
  C   0.88489552761964      0.26754004819101     -0.26575536863964
  F   -0.90352587124861     -0.27514708903300     -1.62140796934084
  H   1.55012017810775     -0.39141422377382     -0.82566748884026
  C   -0.54299241485435     -1.75183715883967      0.18501124891738
  H   -0.17903985236264     -1.84193856754159      1.21076434326344
  H   0.09379582517033     -2.34290440374411     -0.47391630522533
  H   -1.56070653597072     -2.14001141807931      0.13093045192868
  N   -1.53269010670979      0.43456862557901      0.44776729381963
  H   -1.56569986781851      0.18567791297205      1.42537795627083
  H   -1.42318905327230      1.43418415200909      0.34013325283882
  C   1.35257776973852      0.46734451428022      1.09652879318483
  N   1.69581846022638      0.58459336441256      2.21350673576836
  N   0.90460401049000      1.57653046354296     -1.01176962396266
  O   0.31063548851439      2.51736790181167     -0.49110177045309
  O   1.48387476404740      1.58382227946649     -2.08970210905194
