16
Coordinates from ORCA-job run
  C   -0.49713161424741     -0.44596789780523     -0.43566411907860
  C   0.81531254453935      0.38830404413914     -0.54703218752690
  F   -0.32726358795197     -1.35778608830023     -1.48575984935712
  H   0.86199448493497      0.79483960119395     -1.55958600349656
  C   -0.61106551835597     -1.23516736445370      0.84699486642731
  H   -0.61927620251378     -0.58145710164442      1.71995842625894
  H   0.22446814737457     -1.92862186160657      0.93635562530455
  H   -1.53831675439545     -1.80909888082939      0.80867839284087
  N   -1.65157491745023      0.32874231206294     -0.67507281398395
  H   -2.16682701072742      0.57177911373431      0.15541185162571
  H   -1.52026169692322      1.12862528366351     -1.27624790451158
  C   2.00824368978361     -0.39097560581391     -0.25556320604912
  N   2.96114920009734     -1.03977617824402     -0.03311261332350
  N   0.72878665836827      1.57041534722246      0.37486951594848
  O   1.03767186197033      1.39906836971022      1.54953145789027
  O   0.29509071549700      2.60607690697094     -0.12376143896879
