16
Coordinates from ORCA-job run
  C   -0.38861231660766     -0.43809657912590     -0.13791537063948
  C   0.59491197504512      0.75276807186672     -0.20875339489830
  F   0.40422131303765     -1.59268939867109     -0.24892166252965
  H   0.04496562619360      1.67650171028572     -0.02495781943098
  C   -1.12589145064542     -0.51979196001182      1.17976237065693
  H   -1.81725835904440     -1.36427468527705      1.13487530831425
  H   -0.43390669558233     -0.69292330667822      2.00153436115653
  H   -1.68814853146828      0.39465454643031      1.36824350093604
  N   -1.28784103579250     -0.29566962549387     -1.22206937322549
  H   -2.04867749560191     -0.95879083936087     -1.15148859794717
  H   -0.82124195370700     -0.41983824017531     -2.11322635648713
  C   1.26424485692309      0.79742939439677     -1.50278002602735
  N   1.73596671717411      0.83195254129443     -2.57714611665372
  N   1.61921533486558      0.64141898190938      0.89157360940371
  O   1.28842706302910      1.14066704316367      1.96400159553918
  O   2.66062495218126      0.04668234544713      0.64726797183264
