16
Coordinates from ORCA-job run
  C   -0.38332511739082     -0.43034762442140     -0.17304425521734
  C   0.56837812928086      0.78783323898256     -0.14193167512202
  F   0.43185486628435     -1.54229004021328     -0.44339044178192
  H   0.00442683966965      1.66901243890427      0.16624815032599
  C   -1.06690801604111     -0.68180314729290      1.15210754844488
  H   -1.64355984450097      0.18882737332572      1.46408510201989
  H   -0.33922378628365     -0.92737791485979      1.92303654256147
  H   -1.73862671485977     -1.53527240247259      1.03580904555183
  N   -1.32665595037827     -0.19115221459124     -1.20112241218795
  H   -0.89174056427987     -0.19879339926364     -2.11656692814633
  H   -2.06756765016469     -0.87978413502536     -1.18067429302230
  C   1.18562768799245      0.99839300106725     -1.44545151614502
  N   1.61379306658508      1.16975296479883     -2.52499679161494
  N   1.63698099791152      0.58061285556814      0.90081540934306
  O   1.33655769396230      0.94530788606382      2.03460608218246
  O   2.68198836221295      0.04708111942961      0.55247043280825
