16
Coordinates from ORCA-job run
  C   -0.50509851527849     -0.33002590621584     -0.35394820178343
  C   0.91381481843000      0.27821578217851     -0.11895652586229
  F   -0.59994766620226     -0.35047337530754     -1.74432898341681
  H   1.67593470878844     -0.38288140765990     -0.53408368256525
  C   -0.53923414712082     -1.75552495769145      0.15123083765211
  H   0.20886780117355     -2.35519532671890     -0.36868686779041
  H   -1.52720225296315     -2.16548897307220     -0.06213747047537
  H   -0.35424948420948     -1.80465919119000      1.22652810926744
  N   -1.59227999944502      0.41681830855159      0.15628634860408
  H   -1.47806784766243      1.41533535701061      0.04326396749753
  H   -1.80258852363099      0.19017301383394      1.11686163429578
  C   1.13413479775538      0.52847280831291      1.29642100450151
  N   1.27216224807225      0.68761007024013      2.45173963174883
  N   1.04160780816855      1.56465760029127     -0.89287927022149
  O   0.35333832683578      2.50839316299795     -0.51215447643588
  O   1.79880792728871      1.55257303443894     -1.85415605501635
