16
Coordinates from ORCA-job run
  C   -0.32129143812496     -0.54579311423531     -0.21950036690365
  C   0.48949575208179      0.78378334843583     -0.13000778119861
  F   0.60694207911341     -1.50469129991053     -0.58861573577550
  H   -0.17458969062296      1.58467696157555      0.20083345763010
  C   -0.92644799777873     -0.93857841724850      1.10932411085494
  H   -0.14637859552246     -1.16435103731500      1.83444756863492
  H   -1.52843886193934     -1.83281535185936      0.94630679329428
  H   -1.55482793882256     -0.14289011118427      1.51496099393575
  N   -1.31907032943043     -0.50265717312683     -1.23409330401526
  H   -2.15069999265304     -0.00781420020047     -0.94635728090829
  H   -0.97509136388699     -0.15396168593559     -2.11994948398636
  C   1.07972942972455      1.10853694819850     -1.42164762858657
  N   1.47362707849124      1.37135661359817     -2.49591670447457
  N   1.56552854237287      0.68270372553563      0.91935951220069
  O   2.65977035313981      0.25508115602079      0.57480655709356
  O   1.22274297385781      1.00641363765137      2.05404929220456
