16
Coordinates from ORCA-job run
  C   -0.45115998054162     -0.38764838777048     -0.48344153815493
  C   0.85399252925820      0.44601044141464     -0.46412110525737
  F   -0.18756441634906     -1.38082165112342     -1.42144672903774
  H   0.89856506128230      0.99607411211146     -1.40974598385010
  C   -0.72814882648315     -1.08754986437590      0.83281286275531
  H   -0.98000954698810     -0.36533837087369      1.61018877796424
  H   -1.57848298924889     -1.75803626937091      0.69204001230045
  H   0.12887620997291     -1.68530296262453      1.15024932501943
  N   -1.50693459114877      0.40734896243720     -1.04140258849592
  H   -2.33627696269216     -0.16729521404177     -1.14099760788843
  H   -1.71534535077445      1.18483526702788     -0.42827657762172
  C   2.02298009577721     -0.41034435004823     -0.31514788061075
  N   2.94426382901371     -1.12890445097003     -0.20258849498909
  N   0.87408600866816      1.50643263143471      0.62246075666679
  O   -0.19987417668006      2.03538468187472      0.89488432734742
  O   1.96003310693379      1.79615542489835      1.10453244385241
