16
Coordinates from ORCA-job run
  C   -0.48442228687241     -0.35788724813932     -0.39592301146483
  C   0.82688850138923      0.45877018335408     -0.47665024421504
  F   -0.37870648278406     -1.20104192066518     -1.52795022781715
  H   0.87893976966644      0.92419220677329     -1.46318050923227
  C   -0.59949399676489     -1.25102600435605      0.81522234530333
  H   0.23559225906572     -1.94997697276236      0.85030586023953
  H   -1.52334821656982     -1.82826537924774      0.73374451945166
  H   -0.61871132032876     -0.66228196287720      1.73044655979500
  N   -1.56703072247666      0.53983034260915     -0.48738477276283
  H   -1.56505743651187      1.06603484843191     -1.35210497331478
  H   -2.45454977104895      0.06969572017894     -0.37182182088543
  C   2.00585738401992     -0.36336032714090     -0.24582276597866
  N   2.95050035638312     -1.03810088189352     -0.07130773311445
  N   0.78513989785891      1.59026324455126      0.51525759546681
  O   0.53536873551882      2.69838580879332      0.05588674452568
  O   0.97303332945527      1.30476834239033      1.69228243400345
