16
Coordinates from ORCA-job run
  C   -0.49401408697954     -0.45953692898878     -0.42634401169502
  C   0.80450433580777      0.39506600266784     -0.55835081885193
  F   -0.32216227507607     -1.37571574018509     -1.47068005257012
  H   0.83754896275142      0.78969513626506     -1.57606508492438
  C   -0.58120086566531     -1.23751195069649      0.86532982078307
  H   0.26272168417962     -1.92145974901287      0.94812355507586
  H   -1.50315210856354     -1.82048736108887      0.84671991919917
  H   -0.58215458791154     -0.57554111637170      1.73205260284022
  N   -1.66537262667904      0.29213637955319     -0.65997056976088
  H   -2.15917134963532      0.55850872577039      0.17657303408761
  H   -1.55775010493513      1.07387861112387     -1.28929819725345
  C   2.01188649643272     -0.36031805944686     -0.26377787372246
  N   2.97517887327905     -0.99177579182423     -0.03589421491637
  N   0.70356795545754      1.58769455652420      0.34889011957854
  O   0.24639764462131      2.60814620524931     -0.15984118275623
  O   1.02317205291606      1.43722108046103      1.52353295488637
