16
Coordinates from ORCA-job run
  C   -0.49945091557555     -0.36500517479971     -0.37182472863869
  C   0.82133429113790      0.42783949039891     -0.51195076685283
  F   -0.43450459403263     -1.24772399868350     -1.47657966342243
  H   0.85825608693349      0.85576532469285     -1.51594458886925
  C   -0.59673098014538     -1.21429407476154      0.87198106958752
  H   -0.57721824022221     -0.59413004695516      1.76632738260911
  H   -1.53370794214179     -1.77483189182769      0.83783184473919
  H   0.22513801773382     -1.92869864065616      0.90707648209222
  N   -1.57082019230998      0.54561409022476     -0.46719706455559
  H   -1.58051322511375      1.04662826131029     -1.34686996493933
  H   -2.46211873434783      0.09202970191107     -0.31884224594742
  C   1.99421512333876     -0.40156044378609     -0.27624843278290
  N   2.93516188776091     -1.08035565891167     -0.09826831412652
  N   0.81779949160150      1.59649995498077      0.43725198005714
  O   0.56641061975947      2.68893532791101     -0.05739218889747
  O   1.03574930562326      1.35428777895185      1.61864919994726
