16
Coordinates from ORCA-job run
  C   -0.49615483259728     -0.37462645759657     -0.36594019454207
  C   0.82390324509249      0.41733995334724     -0.51603474895085
  F   -0.42160437322351     -1.28377388449343     -1.44849887669265
  H   0.86619439962842      0.82206333269378     -1.52943548434965
  C   -0.60077187666614     -1.19342210313822      0.89748104472069
  H   -0.58644525194884     -0.55167451143093      1.77649779543494
  H   0.22094669909540     -1.90648279471126      0.95461934717453
  H   -1.53764382219658     -1.75462119077939      0.87177657916020
  N   -1.56821870773190      0.53145959804229     -0.49144644708112
  H   -1.57351278757453      1.00820671454083     -1.38443736728994
  H   -2.46009649071017      0.08118653652865     -0.33569202219342
  C   1.99703360525441     -0.40418413979217     -0.25514197484284
  N   2.93796612603753     -1.07806831766943     -0.05885520193176
  N   0.81269048348009      1.60737480548713      0.40582131317875
  O   0.56896570348500      2.68857656238133     -0.11610740323655
  O   1.01874788057562      1.39164589659015      1.59439364144172
