16
Coordinates from ORCA-job run
  C   -0.59499497330141     -0.28738839358203     -0.22874252408399
  C   0.85345379144834      0.28691205117472     -0.34082900507194
  F   -1.07745959695730     -0.15099633307608     -1.52927981071037
  H   1.44578430877765     -0.32799760717034     -1.01981143903334
  C   -0.53455319875197     -1.76021355268608      0.11054650897610
  H   -0.05832793644545     -1.92907244823326      1.07863021782931
  H   -1.55545284177714     -2.14233860268248      0.14190967884746
  H   0.01839542821465     -2.29971249197951     -0.65896464627194
  N   -1.47034218502412      0.40064779420880      0.64419770722356
  H   -1.39844100954730      0.07792352103116      1.59795784760794
  H   -1.36326427495872      1.40548227408949      0.60218580022035
  C   1.46843872189073      0.38082008135706      0.97338640389459
  N   1.92959705160821      0.41114617962705      2.05303082688961
  N   0.80231261776497      1.64910900165249     -0.98192895141225
  O   1.25361865108236      1.73825708964391     -2.11604188373834
  O   0.28223544597650      2.54842143662510     -0.32624673116676
