16
Coordinates from ORCA-job run
  C   -0.45649604266430     -0.37064424029994     -0.45612167009003
  C   0.86834017800690      0.43071506898802     -0.52515324660609
  F   -0.36480871480727     -1.24814616166872     -1.52665317567073
  H   0.91971272725513      0.86392278532117     -1.52432520404554
  C   -0.62670299123025     -1.19916506774297      0.79890098205907
  H   -0.69305438042254     -0.56318224808599      1.68166466387596
  H   0.20628999499125     -1.89162888736526      0.92832053939052
  H   -1.54972779187327     -1.77424342057648      0.70143425073071
  N   -1.52608272226689      0.54047421583632     -0.78011951503622
  H   -2.32201185285025     -0.00283290135422     -1.09506010108814
  H   -1.81250453151544      1.07355570058312      0.03285052790773
  C   2.03384557581888     -0.39193925851238     -0.23579877409644
  N   2.97099314139767     -1.06626479964604     -0.02299966916678
  N   0.81223816635660      1.58608936778961      0.43795474396332
  O   0.58304333610677      2.69017548688825     -0.04387775611351
  O   0.95892590769700      1.32211435984551      1.62898340398618
