16
Coordinates from ORCA-job run
  C   -0.50145357237983     -0.44759475017560     -0.43005892183725
  C   0.81411240371675      0.38139147281121     -0.55365288101658
  F   -0.34478071000923     -1.36184967475789     -1.47866286226261
  H   0.85822521464953      0.77898749527234     -1.56982402394360
  C   -0.60879363030128     -1.23090580357349      0.85683918116975
  H   -1.54200129393779     -1.79543830345411      0.83183786280376
  H   0.22100586679240     -1.93190219205765      0.93898284823049
  H   -0.60010957015086     -0.57363820367630      1.72697412168961
  N   -1.65565956932803      0.33012140618436     -0.66295509609552
  H   -2.15152620759285      0.59507095851455      0.17273897693660
  H   -1.52942648380047      1.11658439874108     -1.28288163287299
  C   2.00569320379164     -0.39855749400719     -0.25868851741526
  N   2.95690699272092     -1.04848910555850     -0.03225937411167
  N   0.73373796763537      1.57223516789562      0.35764881146642
  O   1.04055663658779      1.40936384057501      1.53411830798162
  O   0.30551275160593      2.60562078726655     -0.15015680072274
