16
Coordinates from ORCA-job run
  C   -0.49240002490894     -0.37887023881174     -0.36574542957631
  C   0.82333305545027      0.42051513696885     -0.51455663432071
  F   -0.40814135084427     -1.29258502223585     -1.44398417575746
  H   0.86567063870633      0.82215187859585     -1.52918643496925
  C   -0.59802362238094     -1.19332089901819      0.90042718891727
  H   -1.52798135992681     -1.76556817745562      0.86837913891750
  H   0.23123624973413     -1.89672437430459      0.96785151576299
  H   -0.59889567365198     -0.54785912975251      1.77676450160772
  N   -1.56941338309242      0.52011665529296     -0.49982466686738
  H   -2.45881223425418      0.06452198404356     -0.34638084568044
  H   -1.57375760820854      0.99334781441908     -1.39468236503882
  C   2.00056723023250     -0.39328196370251     -0.24800570063388
  N   2.94551541116477     -1.06032320383986     -0.04778816028462
  N   0.80224146212474      1.61315687064813      0.40355411397246
  O   0.99963310042612      1.40135824849437      1.59446992927845
  O   0.55922810942922      2.69236442065805     -0.12329197532751
