14
Coordinates from ORCA-job run
  C   -0.30178249584381      0.05921508479255     -0.18834203287413
  C   1.13983939247287     -0.41013280802658      0.02441151825551
  F   -0.42146270178150      0.29304302053897     -1.58079753456163
  H   1.33197717796328     -1.27062013348602     -0.62053977945632
  H   1.27141796284685     -0.71404509069042      1.06530118129399
  N   -0.54949422454932      1.23591387521786      0.56086589345656
  H   0.06676498385900      1.98831294460977      0.27510135913735
  H   -1.50818404038098      1.53885625132121      0.44383530741742
  C   -1.29928331509439     -1.02580140054503      0.15469290197031
  H   -1.24522990429424     -1.27487939872519      1.21479157404841
  H   -2.30850244854052     -0.67738836712197     -0.07595417322381
  H   -1.10624256840280     -1.91705397788436     -0.44368150233199
  C   2.09572959067800      0.64831519249975     -0.29322516304323
  N   2.83445259106758      1.52626480749946     -0.53745955008844
