14
Coordinates from ORCA-job run
  C   -0.31119798193764      0.24578710090348     -0.20401013973053
  C   1.17365591196741      0.36656983568336      0.14795219838355
  F   -0.36701352654762      0.20126168201253     -1.61686020075048
  H   1.56382463800168      1.29411365763388     -0.28231862067121
  H   1.28027560451468      0.42833281336101      1.23313869575598
  N   -0.98614807854181      1.38876317806079      0.30314340441506
  H   -0.63583634450275      2.23394276626570     -0.13210363364531
  H   -1.98012691836571      1.32328132010794      0.12183965093842
  C   -0.94593123457949     -1.03012153248270      0.30022068690897
  H   -1.99144865951207     -1.06422069632523     -0.01438277453276
  H   -0.43633621382662     -1.89636225348390     -0.12173335161823
  H   -0.90162026757794     -1.07285733411414      1.38913066993383
  C   1.95788646892381     -0.75374507518233     -0.36357958144164
  N   2.58101660198406     -1.66474546244038     -0.76043700394565
