14
Coordinates from ORCA-job run
  C   -0.33874290596026      0.06061231143771     -0.29171627908864
  C   1.10202399987436     -0.38517368110101      0.03488593968909
  F   -0.36459850096876      0.19571746977079     -1.67831954923630
  H   1.34246941551517     -1.28844844728504     -0.53213745069581
  H   1.18048177176731     -0.62113873746538      1.10013043276242
  N   -0.72935447641415      1.32685404926200      0.24820055762340
  H   -0.90716832774472      1.27103562584037      1.24135314616923
  H   -0.03297029386571      2.03999460815560      0.06529083578680
  C   -1.33878531677320     -1.00735760725113      0.09580692014205
  H   -1.34886462135358     -1.16682941057323      1.17676807360151
  H   -2.32918766915740     -0.68581314421412     -0.22592599850281
  H   -1.09279213552785     -1.94954081689878     -0.39592744703447
  C   2.06213118875454      0.66444084893725     -0.29315264131893
  N   2.79535787185427      1.54564693138497     -0.54325653989755
