14
Coordinates from ORCA-job run
  C   -0.29500431672099      0.11251831239785     -0.29026213738957
  C   1.12446792506112     -0.38585557574335     -0.01278618904394
  F   -0.38440177453957      0.30169837055247     -1.67335268619019
  H   1.21900045845647     -0.68613676588837      1.03529031650941
  H   1.30182794470896     -1.27092180217052     -0.62817868403931
  N   -0.49856967498321      1.37968818770311      0.33380462077583
  H   -1.47732401081732      1.59741860329897      0.45685975204853
  H   -0.00197944851960      1.48754631181502      1.20518264129882
  C   -1.32900979591553     -0.94732828025161      0.05006420489657
  H   -2.31803491144992     -0.57962003032062     -0.23322991989260
  H   -1.32750310883501     -1.15843352642843      1.12134033256315
  H   -1.14176572758870     -1.87084596055282     -0.50140230887300
  C   2.14358939423936      0.61589834045902     -0.32044027885105
  N   2.98470704690393      1.40237381512930     -0.54288966381266
