13

C	-0.27951	-0.14512	-1.481063
C	0.0	0.0	0.0
F	-1.577609	-0.651666	-1.747947
H	1.091333	0.0	0.0
H	-0.456495	0.889127	0.436719
H	-0.364326	-0.900848	0.502935
C	-0.245039	1.172405	-2.151562
N	-0.242998	2.223105	-2.676224
C	0.761588	-1.07058	-2.089262
H	1.7408	-0.729011	-1.722083
H	0.694922	-1.099306	-3.17968
H	0.58837	-2.073979	-1.689252
F	2.739993	0.0	0.0
