17

C	0.0	0.0	0.0
C	-0.507477	0.001225	-1.433083
Cl	1.816861	0.0	0.0
H	-0.225731	-0.958345	-1.900805
H	-1.600661	0.031109	-1.283452
C	-0.491809	1.235953	0.728056
H	-0.15742	2.140439	0.218616
H	-1.587577	1.140863	0.686848
H	-0.135187	1.241383	1.763545
C	-0.506483	-1.248525	0.693436
H	-1.603127	-1.149965	0.637126
H	-0.160961	-2.154112	0.183474
H	-0.167034	-1.28109	1.733624
N	-0.054106	1.166106	-2.194438
H	-0.619428	1.246996	-3.029382
H	0.905711	1.024491	-2.483882
F	-3.051512	0.0	0.0
