17

C	0.0	0.0	0.0
C	-0.321339	-0.033227	-1.533126
Cl	1.808791	0.0	0.0
H	0.420343	-0.693604	-1.997155
H	-0.109355	0.977535	-1.91046
C	-0.55919	1.24159	0.655932
H	-0.291411	1.286041	1.716307
H	-0.196985	2.147228	0.160936
H	-1.650908	1.145848	0.553132
C	-0.532134	-1.240035	0.685056
H	-0.208046	-1.280203	1.729576
H	-1.625492	-1.147728	0.632921
H	-0.194149	-2.149909	0.178991
N	-1.637323	-0.455516	-1.95968
H	-2.368932	-0.132476	-1.281514
H	-1.672055	-1.466147	-1.88659
F	-3.278777	0.0	0.0
