17

C	0.0	0.0	0.0
C	-0.31449	-0.151394	-1.525512
Cl	1.808785	0.0	0.0
H	0.413041	0.468582	-2.061369
H	-0.06753	-1.193351	-1.781491
C	-0.532346	1.312627	0.535285
H	-0.205495	1.474736	1.567212
H	-0.194653	2.156004	-0.075432
H	-1.626046	1.217024	0.495227
C	-0.554329	-1.159783	0.797137
H	-1.646286	-1.083224	0.685366
H	-0.286096	-1.078532	1.855222
H	-0.185804	-2.114377	0.410997
N	-1.63997	0.177912	-2.004161
H	-1.686098	1.185869	-2.112474
H	-2.365441	-0.030196	-1.274198
F	-3.27799	0.0	0.0
