17

C	0.0	0.0	0.0
C	-0.282693	0.000112	-1.535588
Cl	1.809149	0.0	0.0
H	0.231556	0.878551	-1.945948
H	0.232266	-0.877833	-1.94616
C	-0.551201	1.241221	0.667565
H	-0.217248	2.148951	0.155325
H	-1.646103	1.13154	0.61242
H	-0.237314	1.294173	1.714669
C	-0.551183	-1.241315	0.667393
H	-1.646083	-1.131596	0.612328
H	-0.237236	-1.294421	1.714469
H	-0.217275	-2.148981	0.155006
N	-1.649533	-0.000506	-2.009423
H	-2.157683	0.754493	-1.557357
H	-2.15649	-0.756638	-1.558101
F	-3.269855	0.0	0.0
