14

C	-0.550151	0.014849	-1.485091
C	-0.049341	0.152108	-0.038856
Cl	0.409628	-1.150921	-2.379573
H	1.035832	0.342447	-0.074583
H	-0.589466	1.007767	0.382698
N	-2.016363	-0.44578	-1.412385
O	-2.761075	0.376586	-0.886638
O	-2.331567	-1.545452	-1.827723
C	-0.559247	1.290995	-2.19771
N	-0.540415	2.333548	-2.739889
N	-0.259221	-1.10041	0.646626
H	0.753237	-1.387792	0.811052
H	-0.706794	-0.914822	1.534779
F	2.278339	-1.124852	0.685562
