14

C	-0.156756	0.10864	-1.388043
C	-0.06998	0.002695	0.133107
Cl	-1.861503	0.506021	-1.884537
H	1.005965	-0.110827	0.295782
H	-0.575636	-0.933918	0.386454
N	0.671019	1.257188	-1.939308
O	0.968535	2.154941	-1.15769
O	0.865953	1.268642	-3.143148
C	0.225762	-1.136911	-2.050389
N	0.120809	-2.178614	-2.592891
N	-0.734017	1.092592	0.844352
H	-0.810734	0.82452	1.817484
H	-0.131489	1.903082	0.791255
F	2.116916	-0.456122	-1.291126
