14

C	-0.56887	0.250829	-1.487142
C	-0.02781	0.135006	-0.05185
Cl	0.331113	-0.775036	-2.592836
H	1.061981	0.290984	-0.081863
H	-0.520457	0.934661	0.514746
N	-2.045146	-0.178835	-1.447406
O	-2.401835	-1.19173	-2.020219
O	-2.752474	0.567308	-0.775985
C	-0.558185	1.625846	-1.981868
N	-0.516498	2.73983	-2.354023
N	-0.259101	-1.201945	0.434269
H	-0.77539	-1.153874	1.30307
H	0.745531	-1.500259	0.628282
F	2.26837	-1.21335	0.638379
