13

C	-0.59664	-0.055384	-1.39427
C	0.0	0.0	0.0
Br	-0.324325	1.558895	-2.442564
H	1.089717	0.0	0.0
H	-1.674198	-0.215481	-1.337759
H	-0.11153	-0.871341	-1.926217
N	-0.443696	-1.174482	0.696953
H	-1.376292	-1.033544	1.071275
H	0.210219	-1.390679	1.441885
N	-0.510694	1.259361	0.678222
O	-1.714155	1.26047	0.965476
O	0.259706	2.185897	0.885381
Cl	3.372224	0.0	0.0
