13

C	-0.558428	-0.047437	-1.409567
C	0.0	0.0	0.0
Br	-0.082349	1.495325	-2.486938
H	1.089451	0.0	0.0
H	-0.148771	-0.920926	-1.909365
H	-1.645325	-0.08521	-1.386694
N	-0.452036	-1.110513	0.796814
H	0.220848	-1.864133	0.744435
H	-1.378426	-1.424901	0.539915
N	-0.529541	1.242869	0.660537
O	0.254435	2.063962	1.111531
O	-1.758721	1.321745	0.724973
Cl	3.365827	0.0	0.0
