13

C	-0.574001	-0.155417	-1.394685
C	0.0	0.0	0.0
Br	-0.233201	1.36971	-2.549237
H	1.089738	0.0	0.0
H	-1.655729	-0.28485	-1.353385
H	-0.097378	-1.019291	-1.85211
N	-0.461451	-1.110141	0.786289
H	-1.412128	-0.951754	1.095891
H	0.1503	-1.238372	1.582216
N	-0.512043	1.310283	0.574968
O	-1.73696	1.372013	0.744781
O	0.278015	2.206154	0.840153
Cl	3.369423	0.0	0.0
