13

C	-0.394455	-0.022926	-1.457462
C	0.0	0.0	0.0
Br	-2.339462	-0.152279	-1.713287
H	1.096597	0.0	0.0
H	0.031968	-0.909596	-1.921852
H	-0.074734	0.875764	-1.974074
N	-0.44554	-1.078624	0.807209
H	0.306494	-1.733446	0.969519
H	-1.276262	-1.529642	0.453789
N	-0.426051	1.341329	0.589913
O	-0.238878	2.327175	-0.124338
O	-0.885044	1.376135	1.724225
Cl	3.277817	0.0	0.0
