13

C	-0.538903	0.020647	-1.42953
C	0.0	0.0	0.0
Br	-0.160195	-1.63935	-2.362671
H	1.089472	0.0	0.0
H	-0.066399	0.821064	-1.99902
H	-1.624044	0.136976	-1.427122
N	-0.471916	-1.039846	0.856551
H	-1.397019	-1.360974	0.60751
H	0.186421	-1.80556	0.835202
N	-0.499492	1.32066	0.553002
O	0.262992	2.280965	0.568634
O	-1.681619	1.345297	0.904235
Cl	3.404732	0.0	0.0
