13

C	-0.606042	-0.04148	-1.382761
C	0.0	0.0	0.0
Br	0.182544	1.19526	-2.653629
H	1.095359	0.0	0.0
H	-1.674804	0.158015	-1.33891
H	-0.431845	-1.036819	-1.789408
N	-0.514749	-1.160039	0.742851
H	-0.281948	-0.988012	1.716191
H	0.076641	-1.938106	0.468206
N	-0.456911	1.207965	0.764411
O	-0.191363	1.221753	1.96563
O	-1.058371	2.101015	0.172457
Cl	3.329074	0.0	0.0
