13

C	-0.384297	0.045175	-1.462956
C	0.0	0.0	0.0
Br	-2.326361	-0.056338	-1.736581
H	1.093673	0.0	0.0
H	0.041985	-0.819367	-1.968127
H	-0.051149	0.967332	-1.930027
N	-0.444773	-1.11032	0.758755
H	0.292968	-1.791135	0.85545
H	-1.304573	-1.518341	0.423988
N	-0.457606	1.31164	0.628257
O	-1.131069	1.285664	1.651962
O	-0.11276	2.334033	0.035719
Cl	3.286405	0.0	0.0
