15

C	-0.564235	-0.003428	-1.430507
C	0.0	0.0	0.0
Cl	-0.054826	-1.481599	-2.336336
H	1.100164	0.0	0.0
C	-2.032012	0.017134	-1.397876
N	-3.206038	0.05032	-1.35974
C	-0.089752	1.167972	-2.172549
N	0.264828	2.109051	-2.779315
N	-0.535964	-1.160849	0.721755
H	-0.183125	-1.997208	0.261189
H	-0.047596	-1.144022	1.61543
N	-0.438885	1.237091	0.599369
H	0.335118	1.638834	1.115626
H	-1.232123	1.076622	1.207865
H	2.7943	0.0	0.0
