15

C	-0.501054	0.027245	-1.444563
C	0.0	0.0	0.0
Cl	-2.318889	-0.051695	-1.524395
H	1.10141	0.0	0.0
C	-0.105382	1.262853	-2.126942
N	0.187203	2.275383	-2.646436
C	0.005628	-1.13263	-2.179071
N	0.382185	-2.063954	-2.786545
N	-0.425337	-1.227072	0.614448
H	0.334666	-1.573517	1.188384
H	-1.25633	-1.078778	1.172589
N	-0.500064	1.186457	0.709555
H	-0.046565	1.999815	0.295414
H	-0.07403	1.115922	1.632572
H	2.751848	0.0	0.0
