15

C	-0.522443	0.073246	-1.435681
C	0.0	0.0	0.0
Cl	-2.341845	-0.000564	-1.485109
H	1.105347	0.0	0.0
C	-0.135663	1.329318	-2.084798
N	0.163599	2.347104	-2.589774
C	-0.033999	-1.063238	-2.219702
N	0.3174	-1.98076	-2.86314
N	-0.422562	-1.243286	0.580174
H	-1.267144	-1.125096	1.125533
H	0.332407	-1.597921	1.157255
N	-0.485634	1.175855	0.739161
H	0.075994	1.96825	0.427753
H	-0.173083	1.017432	1.694156
H	2.749694	0.0	0.0
