15

C	-0.482244	-0.031231	-1.452202
C	0.0	0.0	0.0
Cl	-2.297373	0.060991	-1.556226
H	1.105138	0.0	0.0
C	0.043216	1.117257	-2.192833
N	0.419315	2.037669	-2.818311
C	-0.084656	-1.27707	-2.113292
N	0.215756	-2.288109	-2.62967
N	-0.492204	-1.207849	0.680345
H	-0.342459	-1.033882	1.66956
H	0.16579	-1.952881	0.452338
N	-0.434767	1.226647	0.60147
H	0.283053	1.545142	1.240275
H	-1.321325	1.116264	1.077533
H	2.748853	0.0	0.0
