15

C	-0.461494	0.000133	-1.452175
C	0.0	0.0	0.0
Cl	-2.296098	0.000536	-1.543688
H	1.095577	0.0	0.0
C	-0.008341	1.199069	-2.159313
N	0.362453	2.151785	-2.737492
C	-0.008936	-1.198953	-2.159428
N	0.361751	-2.152018	-2.737098
N	-0.402174	-1.248824	0.608448
H	0.306513	-1.50415	1.289551
H	-1.303218	-1.171268	1.066559
N	-0.402173	1.248794	0.608513
H	-1.303609	1.171453	1.065876
H	0.306089	1.50373	1.290174
H	2.701494	0.0	0.0
