15

C	-0.562956	0.018626	-1.431461
C	0.0	0.0	0.0
Cl	-0.059857	-1.450658	-2.354996
H	1.10021	0.0	0.0
C	-2.030459	0.044997	-1.396837
N	-3.204253	0.083786	-1.354776
C	-0.085105	1.197228	-2.158434
N	0.26465	2.152794	-2.74522
N	-0.538286	-1.175259	0.696744
H	-0.119999	-1.998197	0.268564
H	-0.117758	-1.132068	1.622065
N	-0.439989	1.226646	0.618008
H	-1.248565	1.064686	1.206092
H	0.327007	1.612681	1.156658
H	2.796584	0.0	0.0
