14

C	0.0	0.0	0.0
C	-0.510225	0.023772	-1.450534
Cl	1.781313	0.0	0.0
H	-1.604661	-0.139396	-1.258211
H	-0.363903	-0.907848	0.47176
C	-0.459236	1.164353	0.7513
N	-0.602607	2.129529	1.406546
N	0.073439	-1.187174	-2.118758
O	0.740765	-1.054817	-3.141192
O	-0.157625	-2.2679	-1.573658
N	-0.254499	1.195118	-2.213086
H	0.69111	1.53473	-2.089614
H	-0.914863	1.904617	-1.926534
F	-2.564215	0.0	0.0
