14

C	0.0	0.0	0.0
C	-0.340831	0.031484	-1.57327
Cl	1.782451	0.0	0.0
H	-0.090501	1.03825	-1.913708
H	-0.304799	-0.961424	0.397371
C	-0.466871	1.078455	0.853927
N	-0.605291	2.016034	1.557534
N	-1.779677	-0.171808	-2.116073
O	-2.188075	-1.304656	-2.349844
O	-2.334297	0.853885	-2.483556
N	0.374742	-0.942335	-2.375596
H	1.36707	-0.911103	-2.192745
H	-0.002956	-1.85219	-2.1402
F	-2.194941	0.0	0.0
