14

C	0.0	0.0	0.0
C	-0.449665	0.128079	-1.48069
Cl	1.777709	0.0	0.0
H	0.437797	0.271189	-2.105956
H	-0.331621	-0.977477	0.333583
C	-0.461583	0.989304	0.970802
N	-0.602926	1.730405	1.871704
N	-1.188524	1.44936	-1.741881
O	-2.086108	1.434741	-2.575443
O	-0.71996	2.45953	-1.225253
N	-1.170167	-1.023308	-1.872875
H	-2.004803	-0.935455	-1.253018
H	-1.440743	-0.929593	-2.844163
F	-2.467527	0.0	0.0
