14

C	-0.539796	-0.024776	-1.421926
C	0.0	0.0	0.0
F	-0.232525	-1.286097	-1.936961
H	1.089735	0.0	0.0
H	-0.00606	0.710673	-2.025929
H	-0.396186	-0.836352	0.573816
C	-2.039272	0.161455	-1.517532
H	-2.33153	1.159503	-1.18539
H	-2.360406	0.034015	-2.55357
H	-2.549242	-0.582388	-0.900074
N	-0.470082	1.238019	0.660639
O	-1.124703	1.136042	1.702777
O	-0.199984	2.304468	0.104675
Cl	3.394494	0.0	0.0
