15

C	0.0	0.0	0.0
C	-0.490179	0.239052	-1.418568
F	1.350249	0.0	0.0
H	-1.588971	0.162795	-1.340811
H	-0.379079	-0.977585	0.346808
N	-0.581992	0.952762	0.942944
O	-0.320231	0.720853	2.149595
O	-1.737516	1.37237	0.502261
C	0.058455	-0.82538	-2.370731
H	-0.254707	-1.814275	-2.024771
H	-0.333121	-0.673909	-3.379459
H	1.148812	-0.797778	-2.411867
C	-0.131465	1.576383	-1.886033
N	0.185249	2.60526	-2.35734
H	-2.793645	0.0	0.0
