15

C	0.0	0.0	0.0
C	-0.244034	0.006824	-1.54476
F	1.355037	0.0	0.0
H	0.484733	0.756408	-1.872992
H	-0.34395	-0.865648	0.552036
N	-0.581991	1.181731	0.637239
O	-0.541026	2.242684	-0.048655
O	-0.586594	1.182964	1.893333
C	-1.567474	0.370431	-2.217339
H	-1.362217	0.535016	-3.286208
H	-2.312243	-0.411547	-2.103429
H	-1.943072	1.287264	-1.770779
C	0.226619	-1.28728	-2.052671
N	0.57491	-2.331228	-2.464261
H	-2.146536	0.0	0.0
