15

C	0.0	0.0	0.0
C	-0.239951	0.063559	-1.544371
F	1.355184	0.0	0.0
H	0.476226	0.838919	-1.837765
H	-0.35153	-0.878943	0.524639
N	-0.559104	1.17205	0.681602
O	-0.520511	2.253821	0.032768
O	-0.56748	1.126584	1.935237
C	-1.565367	0.425599	-2.210419
H	-1.95151	1.330463	-1.748967
H	-1.36527	0.60668	-3.278523
H	-2.302981	-0.364186	-2.102436
C	0.261846	-1.199847	-2.097984
N	0.644682	-2.214706	-2.548368
H	-2.172336	0.0	0.0
