14

C	0.0	0.0	0.0
C	-0.374517	0.255123	-1.480778
F	1.437997	0.0	0.0
H	-0.184865	-0.631149	-2.091983
H	0.342133	1.031281	-1.794849
N	-0.277206	1.240249	0.707382
H	-0.990442	1.161623	1.424374
H	0.597342	1.674899	0.999741
N	-0.315148	-1.273636	0.531375
H	-1.321559	-1.173864	0.718264
H	0.204617	-1.300259	1.410223
C	-1.732464	0.715838	-1.826968
N	-2.501278	1.302629	-2.508481
F	-2.471606	0.0	0.0
