14

C	0.0	0.0	0.0
C	-0.296024	0.184235	-1.510313
F	1.405264	0.0	0.0
H	0.518262	-0.343216	-2.01525
H	-0.184644	1.250859	-1.720604
N	-0.461586	1.146987	0.727517
H	-0.240903	0.99593	1.709388
H	-1.489065	1.021628	0.607612
N	-0.451673	-1.296554	0.422301
H	-1.480798	-1.151625	0.377627
H	-0.198403	-1.397261	1.402863
C	-1.532542	-0.296834	-2.130591
N	-2.33055	-0.673097	-2.907083
F	-2.725428	0.0	0.0
