14

C	0.0	0.0	0.0
C	-0.450143	0.280082	-1.440738
F	1.405696	0.0	0.0
H	-0.137181	1.290608	-1.722747
H	-1.549614	0.235608	-1.37262
N	-0.456688	1.007904	0.918714
H	-1.482781	0.9068	0.829502
H	-0.193291	1.926085	0.57274
N	-0.475646	-1.295427	0.37037
H	-1.500291	-1.169922	0.293235
H	-0.266179	-1.397825	1.359459
C	0.084695	-0.659826	-2.417902
N	0.51424	-1.374056	-3.245176
F	-2.827006	0.0	0.0
