14

C	0.0	0.0	0.0
C	-0.527068	0.046754	-1.43315
F	1.406502	0.0	0.0
H	-1.6296	0.139063	-1.228517
H	-0.313513	-0.900208	-1.932781
N	-0.378034	1.215118	0.671899
H	-0.170812	1.079717	1.654351
H	0.186851	1.977353	0.313426
N	-0.542183	-1.085214	0.745031
H	-1.572481	-0.873315	0.641258
H	-0.342053	-1.948785	0.25
C	0.021292	1.145235	-2.20946
N	0.474214	2.048891	-2.809349
F	-2.875355	0.0	0.0
