14

C	0.0	0.0	0.0
C	-0.464182	0.12266	-1.461915
F	1.384553	0.0	0.0
H	-0.126026	1.078775	-1.867882
H	-1.563905	0.100443	-1.374411
N	-0.485795	1.16599	0.679259
H	-0.286889	1.005069	1.663207
H	-1.509912	1.055497	0.568961
N	-0.452851	-1.202825	0.647304
H	-1.477652	-1.093963	0.584864
H	-0.176429	-2.010436	0.096996
C	0.033394	-0.966241	-2.288858
N	0.429362	-1.851	-2.952023
F	-2.833742	0.0	0.0
