14

C	0.0	0.0	0.0
C	-0.462849	-0.019711	-1.46764
F	1.384444	0.0	0.0
H	-1.562336	-0.003668	-1.381306
H	-0.123609	-0.945051	-1.938805
N	-0.451261	1.155685	0.729532
H	-1.476197	1.053237	0.661319
H	-0.173332	1.998802	0.235824
N	-0.487311	-1.209838	0.596327
H	-1.511602	-1.088872	0.492098
H	-0.288434	-1.118428	1.589062
C	0.036691	1.124778	-2.214672
N	0.436484	2.05711	-2.807432
F	-2.834099	0.0	0.0
