14
Coordinates from ORCA-job run
  C   0.94474459667905      0.16578849575516     -0.21218176283197
  C   -0.57937416177214      0.02707052245153     -0.24738130679249
  H   1.21085539150302      0.70012472346028      0.70713169006201
  H   -0.94428786655163     -0.08962707006819     -1.27190972440809
  H   1.23618160115302      0.80383935703835     -1.05535505729481
  N   1.57821112348802     -1.14538033652101     -0.16434907546709
  H   2.58207931543006     -1.03573135504923     -0.23678712277463
  H   1.27015816827601     -1.71356831587488     -0.94369457702278
  N   -1.09776772321383      1.42821819077376      0.13132942904882
  O   -0.91763999051877      2.31002776140296     -0.70451000388895
  O   -1.61892897127041      1.57420228013626      1.23275274527807
  N   -1.05246179254955     -1.01388669069558      0.57605002634479
  H   -0.56356380872993     -1.05295781711412      1.45880216045582
  H   -2.04920588192294     -0.95711974569530      0.73110257929129
