14
Coordinates from ORCA-job run
  C   0.89507090143083      0.08069655153030     -0.13363755189657
  C   -0.63474757050889      0.12801880690977     -0.19451871966050
  H   1.31521422943663      0.85373549935751     -0.79216366847149
  H   -0.97575731510480     -0.07788861604747     -1.21079129350321
  H   1.19141820610708      0.31143281719001      0.89356714390451
  N   1.30905875328072     -1.28126037474901     -0.46011431634996
  H   2.20461741754964     -1.49097696196441     -0.04081169893165
  H   1.41191725892002     -1.38368741855298     -1.46187590511394
  N   -1.03398318172008      1.54675718585180      0.07263883654791
  O   -1.22868035270674      2.27360266506125     -0.89812183702011
  O   -1.06754033314122      1.89514250639051      1.25092085352658
  N   -1.32776103448348     -0.72476377914436      0.73206099752455
  H   -0.99454757937745     -1.66808750860273      0.56653875257320
  H   -1.06627939968225     -0.46272137323020      1.67630840687067
