14
Coordinates from ORCA-job run
  C   0.78774420640615     -0.62278827216946     -0.01115251605803
  C   -0.60349072254576     -0.04297202968149     -0.13589425454337
  H   0.71874497637516     -1.67089766101591     -0.32066295216373
  H   -0.89544385024228     -0.01096068484065     -1.19153537072588
  H   1.07852874762856     -0.60025465399913      1.04565869458782
  N   1.69526983483064      0.07132232726443     -0.91641621194542
  H   2.04821555600349      0.90168482912508     -0.45970371064692
  H   2.48406251421359     -0.51909554489201     -1.14169992779859
  N   -0.60524809268614      1.41601310273166      0.27079132367370
  O   0.35746579368452      1.87159221303033      0.88297074078376
  O   -1.62651932281670      2.03483196528401     -0.01506775946761
  N   -1.54015475418720     -0.67828761096513      0.75740071925313
  H   -2.49125812784835     -0.47049832347794      0.48261109022540
  H   -1.40791675881569     -1.68068965639378      0.75270013482572
