14
Coordinates from ORCA-job run
  C   0.93916947974590      0.19110247968152     -0.32505595550523
  C   -0.55782355500097     -0.03567761395800     -0.18298620507344
  H   1.30568385109665      0.62854919506132      0.61946841176816
  H   -0.95781976038825     -0.42829074332176     -1.11796969892292
  H   1.11030290612077      0.91760617900346     -1.12222309360626
  N   1.54433627559775     -1.07877633458437     -0.69430132206347
  H   2.54243152826083     -0.96786090115183     -0.81769501380439
  H   1.38425665041993     -1.74549640940787      0.05005689379212
  N   -1.19741439860018      1.34805032245498     -0.03439649639039
  O   -1.33905655312516      2.00099891037042     -1.06403354196817
  O   -1.47704607302759      1.72559010885373      1.10175380411076
  N   -0.84104541837450     -0.90874034532041      0.90203796971221
  H   -1.80964497206830     -1.19942470852144      0.90343085757008
  H   -0.64532996065688     -0.44663013915977      1.78191339038093
