14
Coordinates from ORCA-job run
  C   0.67005044614454     -0.44419326211791     -0.75455923437117
  C   -0.75546785559732     -0.17198706536479     -0.29182187889222
  H   0.70986064643041     -1.49821216620159     -1.03570505736352
  H   -1.46219156825366     -0.27426032727389     -1.11921725491126
  H   0.88338128631452      0.16281096001156     -1.63932818486680
  N   1.57797123271168     -0.21316706890194      0.36729610910847
  H   2.40083581001205     -0.79378030204920      0.28715793627756
  H   1.88423972503841      0.75141358654486      0.38378206150109
  N   -0.81088648911001      1.34211436376663      0.02613400197415
  O   -1.07430360683781      1.68571680983484      1.17422934253159
  O   -0.57162878811997      2.10107455887284     -0.91099090030017
  N   -1.09665006653894     -0.99336660509683      0.80210517154122
  H   -0.36858945695548     -0.91752445237399      1.50244089655620
  H   -1.98562131523842     -0.73763902965059      1.20847699121487
