15

C	0.0	0.0	0.0
C	-0.405151	0.045622	-1.467431
F	1.380382	0.0	0.0
H	0.151713	-0.737247	-1.986722
H	-0.363473	0.875224	0.540412
C	-0.45279	-1.24284	0.636356
N	-0.744181	-2.253686	1.156218
N	0.159071	1.324524	-2.021435
O	-0.036887	2.355787	-1.383648
O	0.744212	1.253955	-3.100366
C	-1.887947	-0.015201	-1.755973
H	-2.051409	0.135186	-2.825964
H	-2.463888	0.718349	-1.193852
H	-2.297635	-0.985582	-1.475885
Br	-4.860355	0.0	0.0
