15

C	0.0	0.0	0.0
C	-0.48307	-0.016503	-1.438652
F	1.379954	0.0	0.0
H	0.017688	-0.829631	-1.968235
H	-0.353552	0.894384	0.515689
C	-0.44447	-1.214702	0.698069
N	-0.711547	-2.218698	1.244584
N	0.029605	1.232347	-2.101339
O	-0.011184	2.280475	-1.462372
O	0.405555	1.121267	-3.265464
C	-1.991311	-0.066394	-1.583745
H	-2.40068	-0.990654	-1.17864
H	-2.493298	0.738194	-1.046528
H	-2.258503	-0.006884	-2.641577
Br	-5.057348	0.0	0.0
