12

C	0.0	0.0	0.0
C	-0.251617	0.007452	-1.525041
Br	1.926238	0.0	0.0
H	0.359893	-0.807881	-1.919676
H	-0.41724	-0.825837	0.567016
H	0.198545	0.931419	-1.890552
N	-0.389016	1.275727	0.701154
O	-0.542012	1.190449	1.910975
O	-0.415444	2.300914	0.032295
C	-1.542245	-0.124073	-2.215816
N	-2.189905	-0.27221	-3.192195
Br	-3.241329	0.0	0.0
