18
Coordinates from ORCA-job run
  C   -0.52938851750610     -0.37398438783570      0.37054040222658
  C   0.53462439474975      0.43691882483333     -0.37214407347705
  F   -0.02487633632671     -0.83867927670177      1.54206473240582
  H   0.06135109227210      0.90256894713045     -1.23564637380225
  C   -1.16225828283176     -1.50541861460193     -0.39845882041679
  H   -1.54653000368680     -1.15721233959600     -1.35549585536865
  H   -1.97613304753199     -1.92466724834518      0.19601404939176
  H   -0.41916795101609     -2.28504175141772     -0.56795692355496
  N   -1.62303898340559      0.63458496504135      0.72513866490822
  O   -2.16917822205247      1.16779781689244     -0.23598260653484
  O   -1.86618616305334      0.82273515777338      1.90800905710406
  N   1.50965498639727     -0.54746153843868     -0.94936498194741
  O   2.39776768468210     -0.96595958416351     -0.21182003016305
  O   1.31886435722161     -0.88853180770851     -2.11628052860095
  C   1.24316651428102      1.43889813137337      0.51426569965717
  H   1.70029038665535      0.94277181575380      1.36749849130163
  H   2.01892675208212      1.95464542822198     -0.05377229498129
  H   0.53211133906951      2.18603546178891      0.87239139185200
