18
Coordinates from ORCA-job run
  C   -0.50065757655216     -0.70001608155428      0.19875139552675
  C   0.79835958728920     -0.08407168223006     -0.30768379120406
  F   -0.25268058733559     -2.01847408704215      0.43507893051151
  H   1.11707003475959     -0.75062714963937     -1.11470873823478
  C   -1.64503098699069     -0.57987894907682     -0.78199489653232
  H   -2.47663291447957     -1.17631852472828     -0.40175760474643
  H   -1.34132493018677     -0.98244938218967     -1.75015812191615
  H   -1.96745324331993      0.45386201047375     -0.89441243942898
  N   -0.98935214624112     -0.10102004346092      1.51249316774238
  O   -1.33737087053960     -0.87597648139656      2.38630449618268
  O   -1.06741506206712      1.12173177048076      1.53792950344806
  N   1.89414474272927     -0.22371439775390      0.71282008154360
  O   1.58831361281612     -0.40845215472453      1.88662110090287
  O   3.03099713521308     -0.10425363761053      0.27103134371566
  C   0.78409550892084      1.34748328132586     -0.81896934046620
  H   1.77894195532576      1.58976459169618     -1.19558539659767
  H   0.07666380070979      1.44417312348614     -1.64320944735418
  H   0.50933193994889      2.04523779394439     -0.03155024309276
