18
Coordinates from ORCA-job run
  C   -0.55829478347379     -0.36630127176113      0.33555300077079
  C   0.56626511548413      0.42804158219518     -0.33206803828769
  F   -0.10668595824721     -0.93778592447924      1.48105365427978
  H   0.13872134816522      0.97757190786725     -1.16980629060164
  C   -1.23924250492149     -1.40396488637787     -0.51983850759943
  H   -2.08988537887422     -1.81177447764571      0.02937432785194
  H   -0.53960497094978     -2.21404777127495     -0.72725602588575
  H   -1.58036036821084     -0.97077748818847     -1.45830337939956
  N   -1.59785734575449      0.68022814857034      0.73937487688479
  O   -1.84673232002852      0.81058189089381      1.92883605567372
  O   -2.09732604561481      1.30261000275204     -0.19308386735134
  N   1.49409971596976     -0.57179340866730     -0.95856604617124
  O   2.34069144219815     -1.09035498081490     -0.23586136811545
  O   1.30858647995141     -0.82203295098192     -2.14900788079332
  C   1.31344063609312      1.32465985840410      0.63205215808838
  H   0.64104094311573      2.08964007015675      1.02534039374927
  H   2.13211600392432      1.82674693346850      0.11421395020594
  H   1.72002799117331      0.74675276588352      1.45899298670080
