18
Coordinates from ORCA-job run
  C   -0.51882378749117     -0.32139062500387      0.42983846444017
  C   0.52031589709214      0.37948650612539     -0.44792048503046
  F   -0.04748436295375     -0.44478367365288      1.69704538707305
  H   0.06557172019258      0.57444173928913     -1.41827376544716
  C   -1.01696992774054     -1.65603206415678     -0.06262570834718
  H   -1.82910036025932     -1.99078269619453      0.58542038115296
  H   -1.37082425203357     -1.58372654335769     -1.08945601728921
  H   -0.20747590810491     -2.38439498638650     -0.00871765746211
  N   -1.70553739863916      0.64108028368824      0.48707563628189
  O   -2.03143609817163      1.08395326427249      1.57851812224128
  O   -2.23359403289909      0.87880960998221     -0.59506565155762
  N   1.60483814288321     -0.62118519015378     -0.72242219866715
  O   2.47964864949590     -0.75862057016033      0.12818643221975
  O   1.51106319706137     -1.25707809931404     -1.77188030115463
  C   1.09008156279596      1.62882473518484      0.18952845276154
  H   1.86057005005287      2.05612740965502     -0.45408357563482
  H   1.52614883136393      1.40227710070552      1.15990560123244
  H   0.30200807735518      2.37399379947755      0.31492688318725
