18
Coordinates from ORCA-job run
  C   -0.55143877666043     -0.65726879882440      0.08368874126160
  C   0.86133118584277     -0.12556698474450     -0.17952861367523
  F   -0.69347940524558     -1.75732506311858     -0.71889284745213
  H   1.54682471781025     -0.94810959329853      0.03322907231661
  C   -1.70328433719501      0.28100095534668     -0.13609244898882
  H   -2.63023688283392     -0.21861714862363      0.14767846326972
  H   -1.59319373403563      1.19005066604611      0.44904026351968
  H   -1.75177002582983      0.53289401814131     -1.19575961585901
  N   -0.55105271813923     -1.18214712002961      1.51915985881774
  O   -1.02525327529368     -0.43963874254136      2.37360688067560
  O   -0.03398660442615     -2.27665143491777      1.69800211545244
  N   1.18444822956160      0.92751023455522      0.84158859723644
  O   1.84164068523689      0.56477766087208      1.81504664463890
  O   0.76376239124301      2.06409387310281      0.63652761883432
  C   1.04272737025173      0.41508652330797     -1.58168755354287
  H   0.77074072978152     -0.35520863966239     -2.30426065015527
  H   0.43323675200035      1.30244349624635     -1.74340959017561
  H   2.08898369793132      0.68267609814223     -1.73993693617410
