18
Coordinates from ORCA-job run
  C   -0.52380892852330     -0.26386797716868      0.46237296892348
  C   0.52426260077041      0.32121320164890     -0.48662273126100
  F   -0.05922948380979     -0.24023807738781      1.73779002561530
  H   0.07387479861374      0.40701044462086     -1.47464195039940
  C   -1.02951633548449     -1.64390530417106      0.12799378527208
  H   -1.84741860519525     -1.89427337002625      0.80616536683742
  H   -0.22559610005370     -2.36608798157512      0.27259460554838
  H   -1.37760729621521     -1.69110658214700     -0.90225272434045
  N   -1.70333418595568      0.70692333979956      0.39935542820978
  O   -2.22685923652689      0.81664646829331     -0.70537028129654
  O   -2.02823713117805      1.28115622098865      1.42814328820592
  N   1.59991282011321     -0.71444512534958     -0.64053574289793
  O   2.46869775783909     -0.76407366518896      0.22577830450825
  O   1.50530320455167     -1.46282241020486     -1.61288789102252
  C   1.10510774963079      1.63015107063691      0.00442304257719
  H   1.54200644260939      1.51064780848853      0.99335451444527
  H   0.32341835446763      2.39117574707726      0.04718576828412
  H   1.87702357434644      1.97589619166534     -0.68484577720934
