18
Coordinates from ORCA-job run
  C   -0.50127534529442     -0.32994547749812      0.44393869670934
  C   0.50297570833055      0.39353541581004     -0.45558214542527
  F   0.05018454476611     -0.56278589970359      1.66244374703887
  H   -0.01187834985922      0.68327005097483     -1.37063763042566
  C   -1.08768838651822     -1.60602928588659     -0.10374563405834
  H   -1.50921608903348     -1.44581547297750     -1.09446886487824
  H   -0.30748426426490     -2.36557157873844     -0.16007530057624
  H   -1.86563736565722     -1.95722923532178      0.57673542036329
  N   -1.64075697798476      0.66810195364614      0.65398455033723
  O   -2.23063970089159      1.00466369847681     -0.36833906493903
  O   -1.87466382239099      1.03853631433014      1.79484980934095
  N   1.51574842750596     -0.62631766018530     -0.88760554928885
  O   1.32083347920489     -1.16628090456339     -1.97607693244892
  O   2.43745670184401     -0.87351187810489     -0.11478387839093
  C   1.17700638697378      1.56407381664191      0.22830538366893
  H   1.91822758633803      2.00723865267911     -0.43857455439283
  H   1.67103134704273      1.24422638872734      1.14302463093968
  H   0.43677611988874      2.32984110169327      0.46860731642602
