15

C	0.0	0.0	0.0
C	-0.47328	0.050872	-1.441536
F	1.389587	0.0	0.0
H	-0.245696	-0.85576	-1.997921
H	-1.612806	0.168078	-1.251146
N	-0.433226	1.03587	0.82872
H	-0.258501	0.811425	1.795972
H	0.087446	1.851205	0.561395
N	-0.335751	-1.348958	0.60846
O	-0.43195	-2.297311	-0.171248
O	-0.322429	-1.422486	1.84126
N	0.190514	1.128556	-2.168682
O	0.508661	0.915001	-3.355329
O	0.376597	2.212423	-1.600891
H	-2.745708	0.0	0.0
