15

C	0.0	0.0	0.0
C	-0.415125	0.061893	-1.457243
F	1.389818	0.0	0.0
H	-1.525197	0.176389	-1.373632
H	-0.103618	-0.839837	-1.970063
N	-0.40813	1.070158	0.807781
H	0.089598	1.904183	0.526015
H	-0.264696	0.852605	1.783666
N	-0.471129	-1.298999	0.601725
O	-0.493508	-2.280165	-0.140127
O	-0.535589	-1.342668	1.83828
N	0.23387	1.179099	-2.154299
O	0.70421	0.951807	-3.279194
O	0.200186	2.310915	-1.650338
H	-2.590108	0.0	0.0
