16

C	-0.481942	-0.009844	-1.440804
C	0.0	0.0	0.0
Cl	-2.387213	0.232031	-1.399618
H	1.09369	0.0	0.0
H	-0.42778	-1.0304	-1.816643
N	0.171452	0.866595	-2.294496
H	0.281598	1.791309	-1.906091
H	-0.18968	0.86794	-3.235655
C	-0.47722	-1.196142	0.79389
H	-1.563395	-1.231154	0.879358
H	-0.118034	-2.09785	0.292593
H	-0.038911	-1.173244	1.789952
N	-0.400618	1.277664	0.670401
O	-0.149012	2.328521	0.079242
O	-0.925637	1.224556	1.779213
Cl	3.311361	0.0	0.0
