16

C	-0.326007	-0.029698	-1.497802
C	0.0	0.0	0.0
Cl	-2.096726	0.257064	-1.753023
H	1.094703	0.0	0.0
H	-0.156153	-1.060351	-1.815866
N	0.435881	0.833182	-2.355844
H	1.410091	0.546131	-2.25337
H	0.38333	1.771244	-1.974282
C	-0.531167	-1.186333	0.770007
H	-0.183431	-1.15286	1.801773
H	-0.13476	-2.095143	0.310586
H	-1.6218	-1.221047	0.76507
N	-0.44177	1.283671	0.616822
O	-1.097307	1.243337	1.658049
O	-0.123678	2.329194	0.047805
Cl	3.303721	0.0	0.0
