15
Coordinates from ORCA-job run
  C   -0.68911160494455      0.63765424361671     -0.34485192014327
  C   0.76482810452188      0.30594413808125      0.00189216565529
  F   -0.77402495681282      1.90839884094436     -0.80434027826252
  H   1.33370502026882      0.54005182859329     -0.90597246160605
  N   -1.08627679966379     -0.28744959579598     -1.50203059402525
  O   -1.79406012209605     -1.24917815134359     -1.23291108837111
  O   -0.59364352061085      0.00600851143418     -2.58137525807512
  C   -1.61166338744513      0.43721958621171      0.77191941957691
  N   -2.31177186166934      0.30515809193071      1.70630765590640
  C   0.95787410778943     -1.16021951074633      0.39788728411398
  H   0.32745665621579     -1.42066105583772      1.24993969558607
  H   1.99886945554055     -1.32393666451852      0.67744560168988
  H   0.72018059724555     -1.82268819388472     -0.43523595937623
  C   1.19947066981924      1.21108890764569      1.06618041171431
  N   1.55916764184127      1.91160902366896      1.93714532561671
