15
Coordinates from ORCA-job run
  C   -0.74813755388786      0.54237218399322     -0.38228247132493
  C   0.74362802403479      0.33942474077809     -0.10369155352374
  F   -0.94025851820437      1.72049181758280     -1.02151654709074
  H   1.23377829454966      0.46158054584656     -1.07709979352295
  N   -1.16986868673601     -0.56952516598327     -1.35056408954111
  O   -0.77200195782045     -0.42548666016447     -2.49718382652589
  O   -1.79920433414798     -1.50987948351354     -0.88350289232768
  C   -1.57701118117453      0.47556428140617      0.82062151621728
  N   -2.20038153477055      0.46394154380838      1.81667034381394
  C   1.05265962761390     -1.03861884827551      0.48743494842682
  H   0.80122814011624     -1.83011321849005     -0.21957939912408
  H   0.49756109654411     -1.19983655818145      1.41323687494675
  H   2.11823704776028     -1.10467976655739      0.70846919220470
  C   1.19342680109245      1.41565597991110      0.77976691296232
  N   1.56334473503036      2.25810860783936      1.50922078440930
