15
Coordinates from ORCA-job run
  C   -0.71004250540426     -0.01868056582468     -0.48079220495410
  C   0.47643876482407     -0.02117424300594      0.48798979554814
  F   -0.49824487238621     -0.87591907164425     -1.50026705671384
  H   0.21632151832622      0.65407139485857      1.30942145174639
  N   -1.95710186631109     -0.48805741560847      0.28813778473460
  O   -2.28533438629002      0.25400295651783      1.20400789627165
  O   -2.46690696371941     -1.53662745911712     -0.06352283261943
  C   -0.99208278845083      1.32365809352746     -0.99558614132880
  N   -1.18289881559851      2.40259570610475     -1.41974695936821
  C   1.75845648281378      0.44664838808438     -0.20736359400873
  H   2.58880900925565      0.41311545265792      0.49877020087044
  H   1.99470628859511     -0.20071166450714     -1.05219652759998
  H   1.64625240747653      1.47361599789859     -0.56012579308890
  C   0.63050406113751     -1.37285273279977      1.03082237352096
  N   0.78012366573144     -2.45568483714211      1.45945160698981
