15
Coordinates from ORCA-job run
  C   -0.75976740067321      0.57824982531297     -0.29738222933880
  C   0.73465422919629      0.37050357319858     -0.03763935231825
  F   -0.97921491586859      1.84024996664052     -0.73605407759519
  H   1.22808743616556      0.65894377282437     -0.97359012447317
  N   -1.14223895188504     -0.36926039049835     -1.44141060956593
  O   -1.74720535734700     -1.39100686698769     -1.14397296696522
  O   -0.74133147652265     -0.02568733789470     -2.54370276557374
  C   -1.59685486285575      0.29160289242837      0.86686152262926
  N   -2.22907426194739      0.09345004049519      1.83729544055654
  C   1.07514500366921     -1.07641905741281      0.32904849461929
  H   0.84803175115088     -1.75079083264285     -0.49746672870132
  H   2.14066377640761     -1.15146421959988      0.54742124934324
  H   0.51889507037245     -1.39649785252362      1.21190020844592
  C   1.15100425226962      1.30224944661201      1.01083225523606
  N   1.49820570786802      2.02587704004788      1.86785968370132
