15
Coordinates from ORCA-job run
  C   -0.70200795171244     -0.02705285850358     -0.49319888745233
  C   0.46772063257543     -0.01154845212590      0.49608004775134
  F   -0.46960041964770     -0.89734874767821     -1.49687372970236
  H   0.19218484847792      0.67621265487529      1.30196059288265
  N   -1.96071318996614     -0.49025157708010      0.26034935683943
  O   -2.30523579788022      0.26115519891531      1.16243485451505
  O   -2.46224371137626     -1.54403077032064     -0.08763359505750
  C   -0.97842084676139      1.30774537643216     -1.03011169153882
  N   -1.15650058986262      2.38547758733202     -1.46286753108616
  C   1.76089680993154      0.44667925549738     -0.18463857353400
  H   2.57628591184146      0.43810159768868      0.53932548966507
  H   1.65009133095306      1.46290482815258     -0.56738002263934
  H   2.01916526687191     -0.22132335789670     -1.00646093742256
  C   0.61393172908633     -1.35436394556935      1.06254146928238
  N   0.75444597746911     -2.43235678971892      1.50647315749716
