15
Coordinates from ORCA-job run
  C   -0.69746487894178      0.49555739888189     -0.48940722676531
  C   0.62001304808234      0.43968515149172      0.29781810275652
  F   -0.43654666990508      0.96310759516370     -1.73200779471692
  H   1.02935047877167      1.45390732196753      0.21083389076098
  N   -1.23842073865657     -0.93211269840142     -0.63264325241873
  O   -1.71788834902590     -1.39972447560629      0.39129110765936
  O   -1.08786549312529     -1.47164276392212     -1.71617654102225
  C   -1.72799198842783      1.31336970116337      0.14961065277990
  N   -2.53254493418208      2.01346982208532      0.64310823526505
  C   1.59934350280536     -0.56623289456483     -0.31632221893194
  H   1.26593806255750     -1.59096874937768     -0.14592136184897
  H   1.69523592406521     -0.39420462212883     -1.38869281168865
  H   2.57767029146027     -0.44463553396475      0.14966860480710
  C   0.38802632301669      0.16960964579342      1.71593529745386
  N   0.26314542150550     -0.04918489858104      2.86290531590995
