15
Coordinates from ORCA-job run
  C   -0.68368378278361     -0.05100160185803     -0.51410926203523
  C   0.45254345675671      0.00933208577405      0.51143875983730
  F   -0.40633381745264     -0.94518062362023     -1.48475465369180
  H   0.14161179222278      0.71599750060795      1.28756559596410
  N   -1.95980013692404     -0.51158924405509      0.21120402838838
  O   -2.43176070455593     -1.58481697290604     -0.11816843934379
  O   -2.34696451239546      0.26246268869773      1.07615097576245
  C   -0.96201936796512      1.26326749546604     -1.09858855552911
  N   -1.15073484713733      2.31451989036726     -1.58811861150733
  C   1.76074701742946      0.46749400731265     -0.14012964249151
  H   1.64940878011347      1.47305231866087     -0.54992233624093
  H   2.55361177009041      0.48607672957448      0.60833869338693
  H   2.05201569875227     -0.21606409770878     -0.93778328970791
  C   0.59770909727365     -1.31338673153669      1.12377364212563
  N   0.73364955657539     -2.37116344477617      1.61510309508284
