15
Coordinates from ORCA-job run
  C   -0.72736097074607      0.01994102086631     -0.45470870655844
  C   0.49561455270918     -0.06478217252278      0.46383915941386
  F   -0.53676048608569     -0.70663863558760     -1.57485103844240
  H   0.25410430480466      0.50546633921042      1.36657748307921
  N   -1.93332216893515     -0.56832109397327      0.29805272123067
  O   -2.24224439254084      0.05335536023074      1.30569654352232
  O   -2.43282312682682     -1.58219915532643     -0.15533780091135
  C   -1.05749426075682      1.40569532411472     -0.79666195920678
  N   -1.28215961549512      2.52430493394343     -1.07730724706136
  C   1.74029186266593      0.51035547867853     -0.21870156208702
  H   2.59633964207195      0.42224414811253      0.45097646638905
  H   1.59206848150251      1.56625700973243     -0.45228270342015
  H   1.96024695382071     -0.03425117225101     -1.13704885689816
  C   0.69627667328083     -1.46560704095125      0.84197005039234
  N   0.87822255053073     -2.58682034427677      1.13978745055821
