15
Coordinates from ORCA-job run
  C   -0.73261109621145      0.56298422806787     -0.38442673090660
  C   0.73062244036115      0.37956308465821      0.02753059341752
  F   -0.92034210587179      1.81209547237055     -0.87165966849825
  H   1.31219421751551      0.65577713648204     -0.86026583695504
  N   -0.98864279262303     -0.41423839852546     -1.53829798928980
  O   -1.60625394610777     -1.43862679444366     -1.27807070483974
  O   -0.48526950507529     -0.08888153810035     -2.60348873008003
  C   -1.67799564185194      0.29101875931268      0.69753121347415
  N   -2.39903903364269      0.10519240691797      1.60652983010271
  C   1.04811315473529     -1.05569187598947      0.45618566556026
  H   2.08571784206420     -1.11180167429086      0.78610928273267
  H   0.91670937507645     -1.74808403959655     -0.37626433793820
  H   0.40638399559646     -1.36769861808320      1.28218101504451
  C   1.03017138807497      1.33649513102285      1.09303040020087
  N   1.28224170795991      2.08089672019736      1.96537599797499
