15
Coordinates from ORCA-job run
  C   -0.69167974285283      0.50378799470302     -0.49018563823137
  C   0.60221413335603      0.43761574588647      0.33528369506931
  F   -0.40182837893190      1.02929317970263     -1.70286008055837
  H   0.99469690552304      1.46163105978423      0.30400612566550
  N   -1.20088394643459     -0.92576272901889     -0.71129513249510
  O   -1.00751678592258     -1.41474812165819     -1.81189733321313
  O   -1.70154056771665     -1.44617029410181      0.27636836214943
  C   -1.75669324786759      1.27485423926083      0.15028737228525
  N   -2.58939520918489      1.93673734766846      0.64975680021973
  C   1.61923276676938     -0.52372928433979     -0.28919514227131
  H   2.58028698563403     -0.40453419129125      0.21198553970880
  H   1.30064748776683     -1.56050500571191     -0.17229314448525
  H   1.74459635192401     -0.30493284510459     -1.34982373207011
  C   0.33214028564503      0.10334620882863      1.73283997291000
  N   0.17672296229266     -0.16688330460779      2.86502233531657
