15
Coordinates from ORCA-job run
  C   -0.70150994626456      0.50835797180753     -0.47030561572909
  C   0.63184501398487      0.42892023263431      0.28792461742265
  F   -0.46100502797047      0.98321611220575     -1.71427265492488
  H   1.05230989753420      1.43853681081100      0.20066517615287
  N   -1.26444504442007     -0.91087233938385     -0.61360511934155
  O   -1.72959750506537     -1.38028160031393      0.41608281421648
  O   -1.14254399686885     -1.44364017743989     -1.70407590727462
  C   -1.70683523489343      1.33454647675318      0.19753526078256
  N   -2.48865799874602      2.04382858639088      0.71389240732798
  C   1.58491124652155     -0.58406464398220     -0.35526024318352
  H   2.57454306370039     -0.47837686654183      0.09030314717346
  H   1.24243855492003     -1.60593074815370     -0.18569186348056
  H   1.65971011940551     -0.40459858722401     -1.42807167175730
  C   0.42657207630779      0.14946267788402      1.70838419773943
  N   0.32226478185446     -0.07910390544726      2.85549545487615
