15
Coordinates from ORCA-job run
  C   -0.70724545398355     -0.09043017997763     -0.47874369867044
  C   0.47700136950667      0.03561605764781      0.48472712492442
  F   -0.43024213475114     -0.96469599901116     -1.46751392707307
  H   0.16730472701299      0.72283601905960      1.27861748590231
  N   -1.91249208111155     -0.62814038895663      0.31218907563811
  O   -2.33733503385737     -1.72657310312939      0.00261896525751
  O   -2.29702098338296      0.11927789900703      1.20137917465351
  C   -1.09406780946197      1.20707223314654     -1.03873186210023
  N   -1.36697142899010      2.25551844335086     -1.49338242447693
  C   1.71976461960949      0.56903213631687     -0.23420079352354
  H   1.52798550251205      1.56527755002470     -0.63691424257520
  H   2.00864784082943     -0.09812491810070     -1.04640264395393
  H   2.54810093464404      0.63608332305512      0.47170420100378
  C   0.73245064436062     -1.27658311678405      1.08339299658194
  N   0.96211928706338     -2.32516595564899      1.55926056841174
