15
Coordinates from ORCA-job run
  C   -0.72476026998817      0.47904860182656     -0.46539582037130
  C   0.61548505501152      0.45459021884642      0.28408600498821
  F   -0.51221726153699      0.96302149077700     -1.71095601402722
  H   0.99340142963716      1.48072342406320      0.19462212309672
  N   -1.22941419305503     -0.96229117548263     -0.60540409114492
  O   -1.66461916276577     -1.45161806900689      0.42807734995325
  O   -1.09657072471340     -1.48837595546257     -1.69783242933946
  C   -1.75930549430583      1.26305621193094      0.20850050510453
  N   -2.56727831866919      1.93801709529215      0.73052818589134
  C   1.60494189084194     -0.51824191341497     -0.36610691817027
  H   2.59284014567305     -0.37091494807561      0.07129446321794
  H   1.66356606907369     -0.33686497865504     -1.43957138268710
  H   1.30682926526050     -1.55328692409584     -0.19303967094681
  C   0.43166982980871      0.16707200103768      1.70590147612490
  N   0.34643173972785     -0.06293507958040      2.85429621831024
