15
Coordinates from ORCA-job run
  C   -0.86007627205422      0.42527147948155     -0.28711740818383
  C   0.65095128541920      0.50290182402819     -0.05339079316179
  F   -1.31907095864414      1.62024975045063     -0.72842543134585
  H   1.06561022118221      0.86960599522696     -1.00009365899591
  N   -1.07730231175843     -0.58657520503732     -1.41994980659592
  O   -1.47348102199364     -1.70168977341969     -1.10726917859940
  O   -0.76349294691521     -0.18302647694613     -2.53011757703312
  C   -1.60863783203236     -0.00378268187556      0.89336370288383
  N   -2.17243465644683     -0.32322643156778      1.87359263021649
  C   1.26261030699832     -0.85125792071008      0.31556952719346
  H   2.32686996337148     -0.72327322946524      0.51462660413141
  H   0.79126623070239     -1.26159761418192      1.21039399645100
  H   1.15180119424646     -1.56387863711938     -0.50261812397539
  C   0.90342425836087      1.50453179986630      0.98283839519456
  N   1.12296253956389      2.27574712126949      1.84059712182044
