15
Coordinates from ORCA-job run
  C   -0.80534478269433      0.50751332101741     -0.30776711519640
  C   0.69825822896187      0.43589734916469     -0.02883252842949
  F   -1.13285802517538      1.74375469246594     -0.75213475445685
  H   1.17568076095660      0.76691132793444     -0.95898201073642
  N   -1.08549355582138     -0.47221047921257     -1.45482145850264
  O   -1.60186188186812     -1.54322091054347     -1.16399298853789
  O   -0.70037116833848     -0.09524717640342     -2.55182757329413
  C   -1.62744870070352      0.14690369000049      0.84656287641515
  N   -2.25176028441370     -0.11143488158094      1.80796159348038
  C   1.16325368771986     -0.97413690040644      0.34477112112061
  H   2.22860458611225     -0.95271640147488      0.57540606675941
  H   0.62796039151273     -1.34204867136531      1.22191527938287
  H   1.00742338221526     -1.66735173979418     -0.48267612502002
  C   1.01590701143552      1.40193489327063      1.02312834030523
  N   1.28605035010088      2.15645188692762      1.88128927671017
