11

C	0.0	0.0	0.0
C	-0.529822	-0.64562	-1.280112
Cl	1.783996	0.0	0.0
H	-1.628646	-0.608046	-1.194837
H	-0.353375	1.027484	0.077307
H	-0.197818	-1.685667	-1.331861
C	-0.42444	-0.762953	1.176054
N	-0.611134	-1.426615	2.126498
C	-0.090051	0.062383	-2.475344
N	0.248847	0.619016	-3.452144
Cl	-3.404015	0.0	0.0
