11

C	0.0	0.0	0.0
C	-0.252778	-0.609984	-1.412172
Cl	1.783634	0.0	0.0
H	0.089655	-1.646148	-1.362304
H	-0.38335	1.011183	0.093777
H	0.44704	-0.097904	-2.07866
C	-0.439557	-0.843941	1.10751
N	-0.543653	-1.572543	2.024606
C	-1.523041	-0.619563	-2.148731
N	-2.219092	-0.789405	-3.082995
Cl	-3.036138	0.0	0.0
