11

C	0.0	0.0	0.0
C	-0.348123	0.175403	-1.500268
Cl	1.781346	0.0	0.0
H	0.215771	-0.569712	-2.066383
H	-0.400645	0.791992	0.623065
H	-1.416554	0.026527	-1.658574
C	-0.405016	-1.324203	0.481701
N	-0.564197	-2.369087	0.992914
C	0.051145	1.489694	-1.988764
N	0.397257	2.522941	-2.418295
Cl	-2.93194	0.0	0.0
