11

C	0.0	0.0	0.0
C	-0.453037	0.339301	-1.426376
Cl	1.781632	0.0	0.0
H	-0.104714	1.346837	-1.674319
H	-0.387073	0.742429	0.694783
H	-1.549267	0.318393	-1.411821
C	-0.418855	-1.343046	0.409054
N	-0.563997	-2.452294	0.765901
C	0.079657	-0.593219	-2.413945
N	0.498685	-1.31558	-3.239842
Cl	-3.242715	0.0	0.0
