11

C	0.0	0.0	0.0
C	-0.442297	0.321333	-1.435234
Cl	1.781912	0.0	0.0
H	-0.06823	1.315862	-1.694448
H	-0.372857	0.759939	0.683662
H	-1.539538	0.326067	-1.436989
C	-0.418518	-1.333027	0.436784
N	-0.582895	-2.433005	0.814651
C	0.077047	-0.644174	-2.398473
N	0.493202	-1.408405	-3.186459
Cl	-3.235102	0.0	0.0
