19

C	-0.348467	-0.037813	-1.51022
C	0.0	0.0	0.0
F	-0.261889	1.303926	-1.923758
H	1.092187	0.0	0.0
N	0.614765	-0.754174	-2.30048
H	1.534672	-0.500878	-1.925598
H	0.5028	-1.734253	-2.065907
C	-1.76203	-0.482924	-1.82873
H	-2.47968	0.119961	-1.266723
H	-1.905857	-1.534371	-1.58238
H	-1.927855	-0.336576	-2.89767
N	-0.3775	-1.252384	0.648018
O	-0.751205	-1.230314	1.830323
O	-0.215029	-2.313261	0.019495
C	-0.501601	1.195891	0.773366
H	-1.593711	1.23049	0.835963
H	-0.098703	1.166264	1.785426
H	-0.139224	2.096854	0.281543
H	2.654607	0.0	0.0
