19

C	-0.303382	0.046366	-1.500527
C	0.0	0.0	0.0
F	-1.650702	0.443916	-1.699228
H	1.094247	0.0	0.0
N	0.542138	1.09783	-2.00481
H	0.669318	0.977455	-3.002544
H	1.463469	1.002055	-1.560284
C	-0.151224	-1.251086	-2.269803
H	-0.318424	-1.024398	-3.328864
H	0.856648	-1.641434	-2.128236
H	-0.873522	-2.003018	-1.956623
N	-0.430312	-1.234185	0.675921
O	-1.147237	-1.146619	1.683929
O	0.016538	-2.30786	0.257549
C	-0.5098	1.226005	0.723812
H	-1.597529	1.233019	0.792416
H	-0.1779	2.104662	0.171435
H	-0.089403	1.258489	1.730079
H	2.695955	0.0	0.0
