19

C	-0.491132	0.001959	-1.457478
C	0.0	0.0	0.0
F	-0.047384	-1.215289	-1.988083
H	1.090667	0.0	0.0
N	-1.915441	0.031215	-1.680985
H	-2.379706	-0.513415	-0.962984
H	-2.255762	0.983016	-1.642888
C	0.196875	1.110742	-2.22438
H	-0.142466	2.093861	-1.887093
H	1.275406	1.031604	-2.065934
H	-0.049311	0.996568	-3.28252
N	-0.444305	-1.288201	0.625394
O	-1.664564	-1.440357	0.812834
O	0.397738	-2.124552	0.926936
C	-0.541926	1.140014	0.836358
H	-0.163294	2.087954	0.449104
H	-1.633902	1.154581	0.852213
H	-0.174023	1.040775	1.860476
H	2.900739	0.0	0.0
