19

C	-0.479584	0.057586	-1.46207
C	0.0	0.0	0.0
F	-0.245385	-1.220328	-1.981059
H	1.091405	0.0	0.0
N	-1.882826	0.315263	-1.680722
H	-2.06476	1.30277	-1.559108
H	-2.421429	-0.193329	-0.986719
C	0.384717	1.028127	-2.237805
H	0.181219	2.062172	-1.946725
H	0.163393	0.909222	-3.300445
H	1.435687	0.808982	-2.026697
N	-0.530088	-1.251335	0.603658
O	-1.744767	-1.276597	0.866234
O	0.227973	-2.193227	0.794938
C	-0.453578	1.183248	0.832603
H	-0.085076	1.06233	1.854383
H	-1.538177	1.296772	0.857726
H	0.009848	2.089059	0.435361
H	2.89813	0.0	0.0
