19

C	-0.458208	-0.106446	-1.45739
C	0.0	0.0	0.0
F	-1.800155	-0.62699	-1.459264
H	1.093037	0.0	0.0
N	-0.471877	1.195449	-2.042929
H	-0.725814	1.111924	-3.019858
H	-1.162862	1.772635	-1.580786
C	0.396774	-1.026902	-2.298169
H	0.22814	-2.060235	-2.006665
H	0.144167	-0.900541	-3.357199
H	1.446347	-0.775607	-2.118898
N	-0.399334	-1.215892	0.7401
O	-0.984306	-1.092977	1.824406
O	-0.066796	-2.308234	0.274176
C	-0.465874	1.239869	0.730866
H	-1.555358	1.343856	0.744775
H	-0.115344	1.198156	1.760939
H	-0.001762	2.106358	0.258221
H	2.719542	0.0	0.0
