16

C	-0.398571	0.024445	-1.488154
C	0.0	0.0	0.0
Cl	-2.274566	0.267837	-1.560714
H	1.097409	0.0	0.0
C	0.22694	1.215236	-2.181015
H	-0.029054	1.20455	-3.243477
H	1.310834	1.140773	-2.052584
H	-0.134249	2.148332	-1.748824
N	-0.011639	-1.180892	-2.090456
H	-0.41251	-1.99945	-1.652019
H	-0.192235	-1.184849	-3.084035
C	-0.480697	-1.211403	0.657729
N	-0.84531	-2.215816	1.145467
C	-0.45412	1.190714	0.712985
N	-0.794851	2.160774	1.280149
Br	3.367347	0.0	0.0
