16

C	-0.389387	0.040024	-1.492497
C	0.0	0.0	0.0
Cl	-2.240715	0.36094	-1.583413
H	1.097414	0.0	0.0
C	0.302064	1.199136	-2.177954
H	1.380061	1.067601	-2.045446
H	-0.009031	2.148294	-1.741195
H	0.047909	1.20816	-3.241065
N	-0.045094	-1.185881	-2.090854
H	-0.198351	-1.170116	-3.089618
H	-0.521405	-1.976525	-1.675858
C	-0.493338	-1.211771	0.647169
N	-0.869941	-2.21334	1.131884
C	-0.448046	1.188994	0.720906
N	-0.787039	2.155787	1.294647
Br	3.371462	0.0	0.0
