16

C	-0.455496	-0.053485	-1.476723
C	0.0	0.0	0.0
Cl	0.20764	1.475648	-2.256216
H	1.095344	0.0	0.0
C	0.202305	-1.227256	-2.173001
H	-0.184402	-2.157677	-1.750766
H	-0.023589	-1.198031	-3.242042
H	1.283175	-1.175754	-2.028845
N	-1.875456	-0.117285	-1.558333
H	-2.29645	0.709543	-1.148515
H	-2.166431	-0.177525	-2.527176
C	-0.452683	-1.205795	0.698031
N	-0.800498	-2.181417	1.251627
C	-0.525506	1.181401	0.679804
N	-0.991661	2.128926	1.194183
Br	3.374654	0.0	0.0
