16

C	-0.447659	-0.019333	-1.483597
C	0.0	0.0	0.0
Cl	-0.009721	1.56602	-2.198529
H	1.096285	0.0	0.0
C	0.336235	-1.09403	-2.225098
H	0.08822	-1.058779	-3.288774
H	1.409679	-0.943574	-2.086873
H	0.063172	-2.078883	-1.83275
N	-1.893399	-0.126432	-1.550443
H	-2.165568	-1.044811	-1.211086
H	-2.185819	-0.052398	-2.519235
C	-0.45275	-1.239367	0.635521
N	-0.835345	-2.256703	1.082461
C	-0.52479	1.148151	0.734603
N	-0.92886	2.069599	1.339664
Br	3.3845	0.0	0.0
