12
Coordinates from ORCA-job run
  C   0.45974071129937      0.45757330145343     -0.39638481020103
  C   -0.49288341051106     -0.36276519873119      0.45220182318060
  Br  -0.07462860870036      0.48066535936226     -2.25386060490026
  H   -0.05900082014843     -0.40567264448037      1.45722832305501
  H   0.51913033783322      1.48878626650260     -0.05863357464336
  H   -0.52689623898927     -1.38400208413092      0.05666199173873
  N   1.84528545865631     -0.10996452075380     -0.30257373091596
  O   1.97601446854103     -1.30982209922916     -0.52121246284447
  O   2.73498447996436      0.67260469792533      0.02243115849139
  N   -1.76986611025077      0.33099918932889      0.52682233927997
  H   -2.29744273952958     -0.00252967062103      1.32232420364497
  H   -2.31543752816482      0.14512740337396     -0.30500465588560
