12
Coordinates from ORCA-job run
  C   0.64312026615810      0.65764538476810     -0.02536265543470
  C   -0.84615098415807      0.39292204434028     -0.00707568455175
  Br  1.11123239739792      2.09330199632271     -1.23150199179460
  H   -1.32681068025889      1.29530261159466      0.37774952385881
  H   1.03172737329115      0.89785272088558      0.96126047873891
  H   -1.19589239999453      0.23228463159190     -1.03110989700068
  N   1.38687009551512     -0.57684131224907     -0.46214336326350
  O   0.82172627491082     -1.31840622924770     -1.26178790341131
  O   2.50581902627119     -0.73808930668704      0.00983346125337
  N   -1.07774670303709     -0.72352428575897      0.89926971055663
  H   -1.95593540695168     -0.61945154095079      1.38682846524693
  H   -1.09895925914407     -1.59299671460966      0.38403985580191
