12
Coordinates from ORCA-job run
  C   0.69282828945211      0.60415764093188      0.05039711397947
  C   -0.81084775982677      0.44837112906599      0.10712281858600
  Br  1.22307056187717      2.18880568725848     -0.92023949815150
  H   -1.20006867920693      1.30213311355347      0.66663097313794
  H   1.14167435608055      0.64123731946038      1.03997975153726
  H   -1.21628531985422      0.49441156210234     -0.90788169050978
  N   1.31457656068518     -0.58689064201069     -0.62962288985669
  O   2.43459729350231     -0.91024516656044     -0.25293738135404
  O   0.65890435868204     -1.13381567067279     -1.51266081798635
  N   -1.09266024810963     -0.78910499063468      0.82157539467541
  H   -1.93697620126064     -0.70820501350723      1.36954580667561
  H   -1.20681321202117     -1.55185496898671      0.16809041926668
