12
Coordinates from ORCA-job run
  C   0.50581801713590      0.44061163836097     -0.35748244593510
  C   -0.53629696898440     -0.34508059607029      0.41514036512699
  Br  0.07369650026958      0.54673787669533     -2.23852594931718
  H   -0.60698864872957     -1.35177556322301     -0.01160323730165
  H   0.60621374066984      1.45678145247173      0.01444354095694
  H   -0.16045791528079     -0.43987579332431      1.43982600423209
  N   1.84943936205877     -0.21018584230174     -0.20976590420488
  O   2.76455230883694      0.50976786285851      0.18257801394482
  O   1.92224163113271     -1.40949198057886     -0.45655941903652
  N   -1.77405085018234      0.41967923764662      0.44399679730166
  H   -2.28277255620193      0.28985089250567     -0.42117009672016
  H   -2.36239462072471      0.09398081495938      1.19912233095299
