12
Coordinates from ORCA-job run
  C   0.64740289309873      0.65393679727917      0.02616496067291
  C   -0.84356552121310      0.39766837463905      0.02880465645342
  Br  1.12006561418448      2.18098235498617     -1.05913683554060
  H   -1.19844213827453      0.32608176786903     -1.00358277127414
  H   1.04073929629981      0.81012540172691      1.02769855688265
  H   -1.31609755583347      1.26779256769616      0.49041358029586
  N   1.38143146162310     -0.54571932573264     -0.51254006187037
  O   2.49822503623969     -0.75608366285568     -0.05493848089919
  O   0.81035916888572     -1.21248719994417     -1.37171357782500
  N   -1.07976972507050     -0.78848460159085      0.84041345414789
  H   -1.95859591335232     -0.72143269267454      1.33335576117811
  H   -1.10375261658761     -1.61237978139862      0.25506075777846
