12
Coordinates from ORCA-job run
  C   0.60799126327390      0.68529814631753     -0.07964589825172
  C   -0.50926930311581      0.17149828170565      0.84488328830669
  Br  -0.05973865370550      1.84419272798713     -1.46148917245237
  H   -0.01725385236218     -0.43999812993745      1.60885468776760
  H   1.37136910217411      1.22845833705957      0.47431924895267
  H   -0.93267676401939      1.04566516560696      1.34573233647859
  N   1.30902107652562     -0.51186005431052     -0.66226972039072
  O   2.23482699377436     -0.93769557368799      0.02579730734949
  O   0.86424106486092     -1.02706239300051     -1.68070762868349
  N   -1.57410813064772     -0.58971558549691      0.24271838458221
  H   -1.22846081534207     -1.42744541997600     -0.20626101936077
  H   -2.06394198141623     -0.04033550226745     -0.45093181429819
