11

C	0.0	0.0	0.0
C	-0.649921	-0.292831	-1.305796
Br	2.037877	0.0	0.0
H	-0.37857	-1.285317	-1.674034
H	-0.186944	-0.800861	0.714981
H	-0.37571	0.457431	-2.054611
H	-1.753249	-0.224267	-0.998826
N	-0.409913	1.23711	0.541292
H	0.19435	1.573791	1.275391
H	-0.581313	1.935657	-0.164162
F	-3.00328	0.0	0.0
