16

C	-0.413679	-0.068007	-1.469216
C	0.0	0.0	0.0
Br	-0.42812	1.984783	-2.034815
H	1.088539	0.0	0.0
H	-0.432754	0.845732	0.521607
N	0.519475	-0.797645	-2.179436
H	1.482626	-0.627893	-1.897084
H	0.390137	-0.795921	-3.180649
C	-1.842011	-0.498405	-1.731777
H	-1.945253	-1.548029	-1.438864
H	-2.544057	0.112051	-1.160969
H	-2.081208	-0.403929	-2.792898
N	-0.489122	-1.219107	0.703249
O	-1.39221	-1.060094	1.533255
O	-0.001274	-2.3041	0.400503
Cl	3.344995	0.0	0.0
