16

C	-0.416889	-0.074984	-1.467929
C	0.0	0.0	0.0
Br	-0.42325	1.971276	-2.048348
H	1.088537	0.0	0.0
H	-0.430579	0.850893	0.515186
N	0.511297	-0.8147	-2.17443
H	1.476767	-0.644371	-1.898198
H	0.377719	-0.821194	-3.174496
C	-1.847301	-0.502973	-1.723138
H	-1.953005	-1.549789	-1.425355
H	-2.544131	0.111366	-1.15325
H	-2.090708	-0.412252	-2.783707
N	-0.496193	-1.21071	0.710334
O	-1.411702	-1.044084	1.524778
O	-0.002742	-2.298626	0.426875
Cl	3.346813	0.0	0.0
