18

C	0.0	0.0	0.0
C	-0.495422	-0.069542	-1.452276
F	1.416601	0.0	0.0
H	-1.594015	-0.137922	-1.308376
N	-0.517918	1.212659	0.564045
H	-1.544873	1.034132	0.474657
H	-0.304447	1.197415	1.558214
C	-0.403602	-1.246359	0.774106
H	-0.025854	-1.158267	1.79872
H	0.015669	-2.151221	0.326832
H	-1.495935	-1.256826	0.764513
C	0.002385	-1.268885	-2.118898
N	0.404373	-2.211072	-2.69556
C	-0.111637	1.172075	-2.260157
H	-0.478969	1.090164	-3.286854
H	0.974449	1.292547	-2.282243
H	-0.547982	2.050168	-1.787559
F	-2.879706	0.0	0.0
