18

C	0.0	0.0	0.0
C	-0.506769	-0.033229	-1.452205
F	1.390425	0.0	0.0
H	-1.604301	-0.106198	-1.305377
N	-0.522793	1.20002	0.594488
H	-0.310325	1.160706	1.588016
H	-1.548484	1.023986	0.500614
C	-0.417161	-1.262854	0.743536
H	-1.50941	-1.267336	0.731264
H	-0.001699	-2.159731	0.276076
H	-0.041108	-1.202073	1.771068
C	-0.012637	-1.216195	-2.15003
N	0.377115	-2.148901	-2.749684
C	-0.12795	1.22707	-2.233294
H	-0.513195	1.174359	-3.255392
H	-0.551437	2.094983	-1.730366
H	0.958945	1.34288	-2.27128
F	-2.891081	0.0	0.0
