18

C	0.0	0.0	0.0
C	-0.494672	-0.053296	-1.453228
F	1.416332	0.0	0.0
H	-1.593257	-0.122323	-1.31085
N	-0.518801	1.205966	0.577565
H	-0.302237	1.180856	1.571202
H	-1.545549	1.024704	0.489599
C	-0.404512	-1.254643	0.759969
H	-1.496935	-1.26503	0.751065
H	-0.026063	-1.179161	1.785344
H	0.01421	-2.154597	0.301989
C	0.002871	-1.245152	-2.134284
N	0.403625	-2.179673	-2.723577
C	-0.109748	1.196714	-2.247763
H	0.976642	1.313402	-2.273814
H	-0.482397	1.129568	-3.273594
H	-0.540416	2.070431	-1.761728
F	-2.879345	0.0	0.0
