18

C	0.0	0.0	0.0
C	-0.483166	-0.122068	-1.466561
F	1.394599	0.0	0.0
H	-1.582567	-0.181088	-1.318199
N	-0.504954	1.173539	0.647176
H	-0.273465	1.991346	0.092954
H	-1.531656	1.012041	0.584236
C	-0.44034	-1.211145	0.801327
H	-0.010782	-2.124304	0.383493
H	-0.086594	-1.079301	1.826603
H	-1.531994	-1.217108	0.763556
C	0.01093	-1.34175	-2.096883
N	0.406216	-2.305772	-2.641864
C	-0.096226	1.084518	-2.327029
H	-0.643762	1.969926	-2.000115
H	-0.348976	0.910416	-3.375659
H	0.97777	1.279338	-2.2569
F	-2.877029	0.0	0.0
