18

C	0.0	0.0	0.0
C	-0.280646	0.032358	-1.530775
F	1.396975	0.0	0.0
H	0.377593	0.848692	-1.855469
N	-0.517987	1.200546	0.575518
H	-0.329073	1.159951	1.574586
H	-1.545813	1.01552	0.461032
C	-0.432754	-1.273175	0.702725
H	-0.116658	-1.206318	1.749587
H	-1.52457	-1.284726	0.631458
H	0.036665	-2.162061	0.266902
C	-1.604082	0.394417	-2.058128
N	-2.410437	0.787132	-2.821069
C	0.176804	-1.255187	-2.228649
H	-0.504093	-2.077455	-2.005042
H	0.188952	-1.107927	-3.312282
H	1.181379	-1.521962	-1.899909
F	-2.791282	0.0	0.0
