12
Coordinates from ORCA-job run
  C   0.12582215705039     -0.50766713260826     -0.23050217952345
  C   -0.74755728626471      0.63972758177092      0.27600504992122
  Cl  -0.12855682614212     -0.70225071633550     -1.99107697679912
  H   -0.51015848209925      1.55094278274411     -0.28025009509210
  H   -0.20229270861279     -1.44466883332626      0.22356371268597
  H   -0.51838126203327      0.82346428097652      1.33098296083814
  C   1.59416616666240     -0.25812773094143      0.05567767693278
  H   1.92497353307279      0.66924818467220     -0.41664707002099
  H   2.20510135823556     -1.07492830821239     -0.32968938557165
  H   1.75769361466955     -0.18350795884616      1.13431136776510
  C   -2.17695225045765      0.36186890964826      0.15396324917884
  N   -3.32285801408090      0.12489894045798      0.07166168968525
