12
Coordinates from ORCA-job run
  C   0.19533757391674     -0.51887723522111     -0.13906235569497
  C   -0.82660093797642      0.56128024928628      0.21384119035215
  Cl  -0.12078054345397     -1.10183402714976     -1.80108404291533
  H   -0.77365359547332      1.36749269690475     -0.52331804710189
  H   0.05308479860138     -1.38333127872986      0.51231435838751
  H   -0.57385051706972      0.98559754335553      1.19126671463339
  C   1.61553261705227      0.00309755798878     -0.03536681777906
  H   1.82404615511212      0.31931372114301      0.99043298830378
  H   2.33112720453879     -0.77282171675673     -0.30885302332414
  H   1.76125599032742      0.85423178502797     -0.70383198803419
  C   -2.19520281698643      0.05211599314682      0.26971649661719
  N   -3.28929592858887     -0.36626528899568      0.33294452655554
