12
Coordinates from ORCA-job run
  C   0.18251499679663     -0.72932799777845     -0.25459826136665
  C   -1.11809934333351     -0.18309227120569      0.33521028475185
  Cl  0.02403986173979     -0.81922992236083     -2.03584480128454
  H   -1.07365536206507     -0.26323907426071      1.42668655881471
  H   0.29527362373147     -1.76136668703412      0.08476438689687
  H   -1.96525588442399     -0.78167893084757     -0.00775117239632
  C   1.40024716794972      0.09148033645860      0.11938396942486
  H   2.30431331055427     -0.35794642734882     -0.29290267966758
  H   1.31323244738666      1.10916128645689     -0.26503692479120
  H   1.49922398183659      0.13398647571733      1.20826092654757
  C   -1.34755168126980      1.21620772314341     -0.01995732645372
  N   -1.51428311890274      2.34404548905996     -0.29621496047586
