16

C	0.0	0.0	0.0
C	-0.261507	-0.275394	-1.539779
Cl	1.802496	0.0	0.0
H	0.370117	0.49659	-1.99122
N	-0.626118	1.173091	0.400913
H	-0.414458	1.344949	1.377909
H	-1.65934	0.917176	0.304499
N	-0.387749	-1.197941	0.904554
O	-0.316651	-0.982242	2.111269
O	-0.745007	-2.24466	0.383108
N	-1.580957	-0.151649	-2.099999
H	-1.733673	0.837089	-2.263238
H	-2.274206	-0.370542	-1.35179
C	0.347015	-1.5515	-1.973763
N	0.839026	-2.514937	-2.429548
F	-2.931801	0.0	0.0
