16

C	0.0	0.0	0.0
C	-0.572287	-0.129906	-1.419028
Cl	1.75618	0.0	0.0
H	-1.6689	-0.173215	-1.183709
N	-0.571605	1.125913	0.585712
H	-0.302415	1.179299	1.561035
H	-1.609694	0.908969	0.505451
N	-0.326298	-1.309566	0.837334
O	0.042166	-2.393543	0.406736
O	-0.874811	-1.122939	1.916178
N	-0.139885	-1.293997	-2.169656
H	0.826773	-1.189388	-2.456012
H	-0.710913	-1.361018	-3.002626
C	-0.274602	1.128021	-2.128402
N	-0.027911	2.044815	-2.823443
F	-2.828405	0.0	0.0
