16

C	0.0	0.0	0.0
C	-0.231358	0.209874	-1.561657
Cl	1.786173	0.0	0.0
H	0.492871	1.010227	-1.767531
N	-0.58512	0.984555	0.812234
H	-0.450072	1.877774	0.349271
H	-1.608995	0.748698	0.733446
N	-0.461539	-1.366572	0.517473
O	-0.503589	-2.283571	-0.291664
O	-0.697917	-1.450587	1.711017
N	-1.53766	0.689829	-1.956742
H	-2.264598	0.319662	-1.287761
H	-1.716519	0.397347	-2.909095
C	0.258215	-0.915178	-2.38902
N	0.630104	-1.6783	-3.203451
F	-2.89303	0.0	0.0
