16

C	0.0	0.0	0.0
C	-0.524561	-0.078145	-1.461325
Cl	1.753806	0.0	0.0
H	-1.615859	-0.185982	-1.282775
N	-0.572406	1.090339	0.638381
H	-1.615922	0.8742	0.519576
H	-0.313608	1.089888	1.618495
N	-0.35852	-1.343736	0.755889
O	-0.504763	-2.386645	0.127355
O	-0.420019	-1.249584	1.974658
N	-0.008529	-1.101159	-2.350694
H	1.003732	-1.054704	-2.371678
H	-0.270597	-1.997833	-1.966016
C	-0.273902	1.228114	-2.079756
N	-0.062047	2.228386	-2.657507
F	-2.782814	0.0	0.0
