16

C	0.0	0.0	0.0
C	-0.249748	0.287891	-1.550007
Cl	1.785804	0.0	0.0
H	0.534411	1.026368	-1.756525
N	-0.577583	0.945538	0.858033
H	-0.449818	1.856337	0.429384
H	-1.603405	0.715442	0.774281
N	-0.451151	-1.389316	0.47059
O	-0.446479	-2.288091	-0.359586
O	-0.71537	-1.508911	1.655102
N	-1.513513	0.918241	-1.852347
H	-1.695603	0.824455	-2.84388
H	-2.266806	0.486087	-1.260164
C	0.103936	-0.837235	-2.444916
N	0.36482	-1.598113	-3.30383
F	-2.885125	0.0	0.0
