16

C	0.0	0.0	0.0
C	-0.260987	-0.347845	-1.525543
Cl	1.802856	0.0	0.0
H	0.364601	0.408385	-2.011311
N	-0.624527	1.191213	0.34629
H	-0.419832	1.400884	1.317502
H	-1.657729	0.93049	0.257114
N	-0.385924	-1.155401	0.96032
O	-0.346485	-0.873485	2.155066
O	-0.706256	-2.237846	0.489936
N	-1.581389	-0.262707	-2.090742
H	-2.272439	-0.446604	-1.331176
H	-1.74127	0.713705	-2.31155
C	0.357906	-1.637643	-1.903836
N	0.844027	-2.622093	-2.320325
F	-2.925507	0.0	0.0
