16

C	0.0	0.0	0.0
C	-0.273149	-0.09952	-1.561818
Cl	1.769818	0.0	0.0
H	0.376954	0.701217	-1.927697
N	-0.622065	1.129309	0.528412
H	-0.407033	1.192139	1.51781
H	-1.652491	0.894558	0.408406
N	-0.407979	-1.284778	0.769583
O	-0.78798	-2.26257	0.142541
O	-0.326961	-1.201354	1.992238
N	-1.58571	0.104441	-2.105139
H	-1.704612	1.101219	-2.249586
H	-2.289932	-0.139471	-1.369002
C	0.314446	-1.334693	-2.128573
N	0.752346	-2.273223	-2.682196
F	-2.93062	0.0	0.0
