16

C	0.0	0.0	0.0
C	-0.545534	-0.086155	-1.427902
Cl	1.755986	0.0	0.0
H	-1.630332	-0.243092	-1.220934
N	-0.571563	1.083101	0.667123
H	-0.29695	1.059574	1.642472
H	-1.610449	0.879425	0.558984
N	-0.370097	-1.35022	0.725505
O	-0.13893	-1.354018	1.933912
O	-0.87809	-2.269538	0.099916
N	0.08209	-1.143339	-2.214069
H	-0.640351	-1.712051	-2.635002
H	0.663367	-0.750095	-2.942322
C	-0.384026	1.218513	-2.074316
N	-0.219996	2.192663	-2.712142
F	-2.809305	0.0	0.0
