15

C	-0.449994	-0.00714	-1.451409
C	0.0	0.0	0.0
Br	0.255336	-1.569291	-2.412609
H	1.094873	0.0	0.0
H	-0.028453	0.857218	-1.961473
C	-1.902145	-0.015732	-1.584306
N	-3.076223	-0.015862	-1.653494
C	-0.51004	-1.13937	0.848564
H	-1.597919	-1.107385	0.969037
H	-0.224386	-2.086139	0.387722
H	-0.044601	-1.083397	1.831621
N	-0.355127	1.291845	0.570354
O	-0.400974	2.277846	-0.18875
O	-0.452668	1.37482	1.803739
H	2.5129	0.0	0.0
