15

C	-0.348655	-0.052643	-1.459088
C	0.0	0.0	0.0
Br	-2.30282	-0.162412	-1.811791
H	1.094421	0.0	0.0
H	0.040253	-1.001858	-1.83643
C	0.200557	1.001264	-2.306856
N	0.627383	1.748463	-3.107543
C	-0.400985	-1.229086	0.781182
H	-0.048058	-2.115433	0.246432
H	-1.481583	-1.298384	0.929157
H	0.094673	-1.204648	1.751202
N	-0.437772	1.222213	0.639776
O	-0.553984	1.2161	1.87568
O	-0.566112	2.239888	-0.059218
H	2.491479	0.0	0.0
