15

C	-0.546928	-0.020658	-1.415849
C	0.0	0.0	0.0
Br	0.200138	1.439546	-2.498284
H	1.09064	0.0	0.0
H	-1.621732	0.168091	-1.415948
C	-0.276685	-1.287071	-2.082031
N	-0.058133	-2.315914	-2.606436
C	-0.536689	-1.149983	0.831632
H	-0.157148	-2.09479	0.437593
H	-1.632446	-1.164954	0.847639
H	-0.159099	-1.043582	1.851524
N	-0.487206	1.274463	0.625593
O	0.281097	1.877627	1.376435
O	-1.655102	1.62965	0.378696
H	2.757178	0.0	0.0
