15

C	-0.544375	-0.127483	-1.40521
C	0.0	0.0	0.0
Br	0.346602	1.086083	-2.686475
H	1.090645	0.0	0.0
H	-1.593684	0.169634	-1.452227
C	-0.392532	-1.478664	-1.931455
N	-0.290708	-2.566924	-2.363513
C	-0.327143	-1.182052	0.898434
H	-1.4006	-1.39934	0.949508
H	0.0478	-0.950783	1.895061
H	0.209634	-2.060688	0.53526
N	-0.471446	1.235251	0.606317
O	-0.093705	1.464147	1.764654
O	-1.158036	2.031127	-0.061674
H	2.50527	0.0	0.0
