15

C	-0.374991	-0.041393	-1.452295
C	0.0	0.0	0.0
Br	-2.328186	-0.262606	-1.768533
H	1.093137	0.0	0.0
H	0.059798	-0.958973	-1.856317
C	0.086218	1.065047	-2.282422
N	0.455296	1.878529	-3.047008
C	-0.365289	-1.247778	0.772508
H	-1.435201	-1.315785	0.980896
H	0.187801	-1.247635	1.711505
H	-0.049438	-2.122978	0.198148
N	-0.445127	1.200805	0.674124
O	-0.660432	2.219148	-0.001267
O	-0.477183	1.178635	1.914454
H	2.489383	0.0	0.0
