15

C	-0.382993	-0.035961	-1.450811
C	0.0	0.0	0.0
Br	-2.328774	-0.29794	-1.768148
H	1.093211	0.0	0.0
H	0.071931	-0.939941	-1.857938
C	0.057086	1.097997	-2.257074
N	0.414052	1.954178	-2.978359
C	-0.345227	-1.263102	0.762746
H	-1.414286	-1.349594	0.973233
H	-0.015736	-2.128448	0.179831
H	0.212254	-1.262977	1.699072
N	-0.46664	1.183338	0.693347
O	-0.42891	1.1627	1.932464
O	-0.792366	2.181248	0.031326
H	2.4966	0.0	0.0
