17

C	0.0	0.0	0.0
C	-0.647271	-0.025538	-1.392957
Cl	1.818111	0.0	0.0
H	0.044005	-0.496956	-2.098824
C	-0.420191	1.181668	0.856651
H	-0.025074	1.043258	1.866766
H	-1.511928	1.159977	0.861734
H	-0.021034	2.114115	0.45683
N	-0.384685	-1.223934	0.649113
H	-0.184631	-2.029326	0.067818
H	0.116042	-1.314857	1.522896
N	-0.800476	1.375487	-1.930528
O	-1.908691	1.76442	-2.276788
O	0.24033	2.027724	-2.0223
C	-1.934705	-0.78706	-1.424343
N	-2.398359	-1.690836	-2.044166
F	-2.765531	0.0	0.0
