17

C	0.0	0.0	0.0
C	-0.563054	0.004014	-1.450665
Cl	1.795	0.0	0.0
H	-1.668508	-0.068438	-1.208966
C	-0.433793	1.310016	0.652667
H	0.007389	2.174055	0.154449
H	-1.525105	1.322403	0.604901
H	-0.0974	1.278096	1.690102
N	-0.507509	-1.078045	0.793927
H	-1.531745	-0.906677	0.739048
H	-0.323556	-1.958823	0.326102
N	-0.111744	-1.189043	-2.225072
O	-0.531547	-2.283472	-1.84795
O	0.660191	-1.026902	-3.170556
C	-0.244591	1.20419	-2.204488
N	-0.041623	2.202807	-2.78985
F	-2.850107	0.0	0.0
