18

C	0.0	0.0	0.0
C	-0.564685	0.020435	-1.41732
F	1.383454	0.0	0.0
H	-1.626853	-0.247161	-1.323459
N	-0.525072	0.99648	0.812734
H	-0.432036	0.775903	1.791537
H	-0.170807	1.904955	0.563891
N	-0.342375	-1.341078	0.67097
O	-0.228385	-1.370498	1.891497
O	-0.606122	-2.299819	-0.042262
C	0.208987	-0.787316	-2.448367
H	0.224988	-1.835508	-2.164755
H	1.232977	-0.416627	-2.528614
H	-0.286719	-0.691523	-3.415566
N	-0.568266	1.429393	-1.94313
O	-1.363934	1.665307	-2.844213
O	0.274301	2.229707	-1.524657
Cl	-3.710208	0.0	0.0
