15

C	0.0	0.0	0.0
C	-0.230827	0.099282	-1.555527
Cl	1.783174	0.0	0.0
H	0.337551	0.975182	-1.871156
H	-0.312925	0.947081	0.433547
C	-0.71235	-1.076344	0.693467
N	-0.722382	-2.046068	1.386358
C	-1.586308	0.124744	-2.2486
H	-2.167823	0.981752	-1.922602
H	-1.388949	0.19302	-3.331295
H	-2.161155	-0.768062	-2.018157
N	0.499594	-1.031948	-2.239785
O	1.252159	-0.735603	-3.170647
O	0.233142	-2.176137	-1.886756
H	-2.16212	0.0	0.0
