15

C	0.0	0.0	0.0
C	-0.230676	0.015881	-1.558736
Cl	1.783118	0.0	0.0
H	0.335324	0.875737	-1.919998
H	-0.314021	0.968076	0.382424
C	-0.714261	-1.037586	0.744864
N	-0.72783	-1.971547	1.485337
C	-1.585202	-0.00264	-2.253051
H	-1.386681	0.004479	-3.336794
H	-2.170241	0.869202	-1.976368
H	-2.156634	-0.882908	-1.972478
N	0.503808	-1.147982	-2.181859
O	0.227978	-2.273761	-1.780801
O	1.270577	-0.898477	-3.113468
H	-2.156316	0.0	0.0
