14

C	0.0	0.0	0.0
C	-0.241597	-0.099595	-1.54791
F	1.353935	0.0	0.0
H	0.561492	-0.772633	-1.861101
H	-0.441408	0.84886	0.505004
N	-0.409547	-1.212569	0.753987
O	-0.342666	-2.280732	0.142647
O	-0.625685	-1.09689	1.95675
C	0.139262	1.227336	-2.077512
N	0.431862	2.272018	-2.527344
N	-1.463147	-0.535058	-2.177796
H	-1.498889	-1.532441	-1.978967
H	-2.190881	-0.170708	-1.498208
F	-2.480474	0.0	0.0
