14

C	0.0	0.0	0.0
C	-0.241222	-0.138131	-1.547861
F	1.356655	0.0	0.0
H	0.592513	-0.788822	-1.84201
H	-0.434455	0.862803	0.48536
N	-0.404226	-1.205535	0.782964
O	-0.569391	-1.034661	1.986606
O	-0.394689	-2.286934	0.205574
C	0.098663	1.208574	-2.06718
N	0.339395	2.263071	-2.527729
N	-1.478856	-0.658883	-2.084368
H	-1.69972	-0.151642	-2.931565
H	-2.18297	-0.431772	-1.321279
F	-2.53649	0.0	0.0
