14

C	0.0	0.0	0.0
C	-0.309574	-0.092064	-1.541189
F	1.353947	0.0	0.0
H	0.595925	-0.568911	-1.934369
H	-0.422831	0.842999	0.528376
N	-0.388831	-1.233649	0.748207
O	-0.306574	-2.302516	0.141112
O	-0.607879	-1.116722	1.947979
C	-0.263174	1.303493	-2.018775
N	-0.219383	2.408216	-2.414286
N	-1.457495	-0.762415	-2.099394
H	-2.202475	-0.497348	-1.406472
H	-1.287529	-1.751992	-1.967782
F	-2.480449	0.0	0.0
