14

C	0.0	0.0	0.0
C	-0.449012	0.221402	-1.438221
F	1.358013	0.0	0.0
H	0.201645	1.065082	-1.73975
H	-0.369696	0.7842	0.649567
N	-0.354437	-1.28854	0.688355
O	-0.088313	-2.333337	0.100282
O	-0.731511	-1.209182	1.852988
C	-1.843814	0.703193	-1.611952
N	-2.541213	1.292434	-2.373399
N	-0.250338	-0.942761	-2.302382
H	-0.439172	-0.632999	-3.249307
H	0.715388	-1.246209	-2.24655
F	-2.419956	0.0	0.0
