14

C	0.0	0.0	0.0
C	-0.480268	0.17758	-1.44504
F	1.357671	0.0	0.0
H	-0.592406	1.267905	-1.55638
H	-0.387973	0.74307	0.683291
N	-0.363499	-1.330576	0.596087
O	-0.387925	-1.374222	1.825285
O	-0.481806	-2.291524	-0.154
C	-1.814054	-0.397472	-1.745523
N	-2.510176	-0.860445	-2.587939
N	0.501004	-0.374272	-2.388504
H	-0.020904	-0.740273	-3.173491
H	1.12092	0.353541	-2.718388
F	-2.406787	0.0	0.0
