15

C	0.0	0.0	0.0
C	-0.213694	0.024477	-1.570734
F	1.398906	0.0	0.0
H	0.133051	-0.935795	-1.957496
N	-0.474703	1.049162	0.798031
H	-1.487433	0.920554	0.904321
H	-0.302884	1.932485	0.332255
C	-0.42283	-1.316888	0.508707
N	-0.557818	-2.42327	0.879003
N	0.782351	1.03057	-2.118597
O	0.650055	2.193786	-1.748409
O	1.634199	0.61362	-2.894472
C	-1.475473	0.370237	-2.225729
N	-2.181654	0.636152	-3.132867
Br	-3.472203	0.0	0.0
