15

C	0.0	0.0	0.0
C	-0.455134	-0.131437	-1.483926
F	1.371218	0.0	0.0
H	-1.547363	-0.281526	-1.461331
N	-0.484348	1.158599	0.652332
H	-1.502097	1.061242	0.740845
H	-0.275112	1.982816	0.098442
C	-0.406809	-1.209349	0.753943
N	-0.545759	-2.199443	1.370223
N	0.188874	-1.326991	-2.126827
O	1.252267	-1.161334	-2.721565
O	-0.396151	-2.396026	-1.967376
C	-0.088279	1.071788	-2.214974
N	0.200652	2.072035	-2.758514
Br	-3.549441	0.0	0.0
