16

C	-0.488087	-0.079892	-1.430836
C	0.0	0.0	0.0
F	-1.753538	-0.631388	-1.499771
H	1.094222	0.0	0.0
H	-0.32008	-0.939618	0.464533
N	-0.627399	1.325523	-1.988654
O	-1.710498	1.671411	-2.447743
O	0.388688	2.00866	-1.957731
C	0.453397	-0.847828	-2.322651
H	0.480743	-1.884086	-1.980025
H	1.459874	-0.436466	-2.218861
H	0.105961	-0.822229	-3.358904
N	-0.554719	1.163772	0.699247
H	-0.980257	0.87335	1.56839
H	0.228791	1.763344	0.934813
H	2.990999	0.0	0.0
