16

C	-0.469194	0.040948	-1.430918
C	0.0	0.0	0.0
F	-1.86053	-0.016385	-1.504851
H	1.097708	0.0	0.0
H	-0.372142	0.88626	0.522069
N	-0.154068	1.423013	-1.99922
O	-0.660488	2.376716	-1.41042
O	0.542496	1.508267	-3.007239
C	0.129002	-1.034236	-2.284655
H	-0.177835	-1.984213	-1.84813
H	-0.220124	-0.955385	-3.314773
H	1.217105	-0.953644	-2.240094
N	-0.423047	-1.265709	0.606996
H	-1.187847	-1.116637	1.250516
H	0.370346	-1.623339	1.127878
H	2.922888	0.0	0.0
