16

C	-0.510302	-0.125679	-1.416807
C	0.0	0.0	0.0
F	-1.812542	-0.607429	-1.427091
H	1.090914	0.0	0.0
H	-0.308849	-0.92861	0.501427
N	-0.593875	1.259744	-2.033649
O	0.479986	1.79594	-2.282331
O	-1.70328	1.743611	-2.229798
C	0.359102	-1.003327	-2.278178
H	0.303846	-2.02179	-1.885832
H	0.006952	-1.000299	-3.312553
H	1.394615	-0.66361	-2.207337
N	-0.485769	1.209473	0.65431
H	-1.255706	1.015228	1.276304
H	0.281756	1.59193	1.191707
H	2.967669	0.0	0.0
