16

C	-0.412499	-0.040276	-1.445501
C	0.0	0.0	0.0
F	-0.149953	-1.280632	-1.966719
H	1.093504	0.0	0.0
H	-0.354447	0.942034	0.42437
N	-1.926847	0.132893	-1.561101
O	-2.591469	-0.7562	-2.078798
O	-2.373029	1.194213	-1.129032
C	0.274097	1.006649	-2.284898
H	-0.013971	2.004252	-1.952535
H	1.350473	0.875006	-2.141285
H	0.006931	0.875628	-3.336843
N	-0.614985	-1.12298	0.720607
H	-0.448825	-0.961715	1.70944
H	-0.064071	-1.945323	0.491321
H	3.02188	0.0	0.0
