16

C	-0.444596	0.071172	-1.435743
C	0.0	0.0	0.0
F	-0.355752	-1.179904	-2.02143
H	1.094577	0.0	0.0
H	-0.376695	-0.926426	0.442388
N	-1.953973	0.362683	-1.47854
O	-2.656752	-0.28023	-0.70014
O	-2.383299	1.173908	-2.296134
C	0.319088	1.071897	-2.246873
H	0.155686	2.066395	-1.834573
H	0.006962	1.048383	-3.290937
H	1.377476	0.817554	-2.138916
N	-0.443282	1.21749	0.685802
H	-1.210292	1.013342	1.311632
H	0.337684	1.560461	1.233289
H	2.961909	0.0	0.0
