16

C	-0.398783	-0.08856	-1.457473
C	0.0	0.0	0.0
F	-1.772536	-0.314454	-1.589209
H	1.090994	0.0	0.0
H	-0.409839	0.915524	0.431917
N	-0.197044	1.282842	-2.086212
O	0.692261	1.423991	-2.921723
O	-0.952764	2.171165	-1.695441
C	0.354444	-1.134668	-2.226063
H	1.425037	-0.970745	-2.079061
H	0.087333	-2.11016	-1.816624
H	0.095566	-1.105244	-3.285173
N	-0.415778	-1.169703	0.768343
H	-1.26504	-1.575909	0.398552
H	0.328047	-1.856183	0.738046
H	2.930308	0.0	0.0
