16

C	-0.430952	-0.057885	-1.452535
C	0.0	0.0	0.0
F	-1.792632	-0.318393	-1.55474
H	1.090895	0.0	0.0
H	-0.334059	-0.952654	0.430369
N	-0.268422	1.318317	-2.077155
O	0.815958	1.583052	-2.587338
O	-1.219298	2.09502	-1.983603
C	0.35118	-1.070921	-2.241294
H	0.084796	-1.035379	-3.300345
H	0.112945	-2.060067	-1.845042
H	1.417847	-0.881528	-2.095103
N	-0.502649	1.118176	0.781643
H	0.179379	1.864042	0.740707
H	-1.379141	1.46303	0.41378
H	2.953296	0.0	0.0
