16

C	0.0	0.0	0.0
C	-0.46433	-0.079833	-1.494615
Cl	1.762384	0.0	0.0
H	0.419001	-0.407021	-2.0484
N	-0.565149	1.02655	0.734649
H	-1.590178	0.887667	0.673565
H	-0.282968	0.950457	1.70488
N	-0.259806	-1.421678	0.657581
O	-0.052981	-2.409405	-0.037687
O	-0.563134	-1.423582	1.84324
N	-0.802834	1.256256	-1.95788
H	-1.039234	1.175886	-2.942758
H	-1.659074	1.529431	-1.481084
C	-1.473255	-1.098702	-1.86991
N	-2.105321	-1.840187	-2.531117
Cl	-3.423772	0.0	0.0
