16

C	0.0	0.0	0.0
C	-0.312102	0.183842	-1.512263
Cl	1.87205	0.0	0.0
H	0.516822	-0.324942	-2.018043
N	-0.521064	0.950645	0.842641
H	-0.3973	0.654219	1.805247
H	-1.536298	0.990792	0.632487
N	-0.263106	-1.470771	0.419052
O	-0.200467	-2.324696	-0.455567
O	-0.443568	-1.662698	1.614198
N	-0.360745	1.615882	-1.783824
H	0.429546	2.067488	-1.338488
H	-0.297906	1.754477	-2.785011
C	-1.482941	-0.466703	-2.128676
N	-2.131285	-0.950988	-2.982552
Cl	-3.353602	0.0	0.0
