16

C	0.0	0.0	0.0
C	-0.473025	0.277964	-1.500077
Cl	1.770286	0.0	0.0
H	0.462578	0.373785	-2.059468
N	-0.520969	0.950652	0.877553
H	-1.546848	0.868168	0.805459
H	-0.244458	0.726085	1.826787
N	-0.290745	-1.473477	0.468376
O	-0.663279	-1.607478	1.625497
O	-0.037179	-2.371272	-0.322925
N	-1.222618	1.49853	-1.702309
H	-2.157848	1.342242	-1.324127
H	-0.788118	2.235349	-1.159466
C	-1.174396	-0.82622	-2.169518
N	-1.618513	-1.65416	-2.873658
Cl	-3.454993	0.0	0.0
