16

C	0.0	0.0	0.0
C	-0.47895	0.275191	-1.463478
Cl	1.844553	0.0	0.0
H	0.429862	0.247835	-2.06903
N	-0.504807	0.8484	0.96091
H	-0.258267	0.503932	1.880644
H	-1.529696	0.840754	0.863666
N	-0.219206	-1.526116	0.356343
O	0.054403	-2.351695	-0.503875
O	-0.566626	-1.76544	1.504703
N	-1.032068	1.616148	-1.576125
H	-1.153591	1.808861	-2.565482
H	-1.963092	1.579583	-1.160671
C	-1.33173	-0.763756	-2.084265
N	-1.852532	-1.503345	-2.83626
Cl	-3.399917	0.0	0.0
