14

C	-0.359546	0.025913	-1.476737
C	0.0	0.0	0.0
Cl	-0.146097	1.704599	-2.145211
H	1.093442	0.0	0.0
H	-1.411952	-0.201152	-1.674028
H	-0.350814	-0.975493	0.367968
C	0.612032	-0.89573	-2.198208
H	0.548546	-0.798746	-3.284839
H	0.382248	-1.932729	-1.925559
H	1.616218	-0.661468	-1.822907
N	-0.674293	1.046106	0.789363
H	-0.227925	1.920377	0.528473
H	-0.388542	0.892419	1.751707
F	2.795495	0.0	0.0
