14

C	-0.55061	0.042373	-1.413822
C	0.0	0.0	0.0
Cl	-0.221232	-1.533996	-2.23641
H	1.092413	0.0	0.0
H	0.019727	0.782877	-1.977822
H	-0.396994	-0.88439	0.518296
C	-2.037087	0.324223	-1.503555
H	-2.37803	0.371433	-2.540879
H	-2.599946	-0.462388	-0.992326
H	-2.231291	1.278923	-1.012017
N	-0.372053	1.268916	0.669714
H	0.487862	1.614346	1.081968
H	-1.028962	1.103635	1.421891
F	2.720123	0.0	0.0
