14

C	-0.249607	0.057161	-1.48576
C	0.0	0.0	0.0
Cl	-2.034202	0.195689	-1.907403
H	1.095731	0.0	0.0
H	0.051481	-0.898715	-1.920838
H	-0.403773	-0.930279	0.424224
C	0.54146	1.185695	-2.108683
H	1.564644	1.037327	-1.741874
H	0.504231	1.164869	-3.200405
H	0.170149	2.142811	-1.742593
N	-0.451622	1.214619	0.679272
H	-1.358746	1.078003	1.107602
H	0.221427	1.424936	1.405292
F	2.736878	0.0	0.0
