14

C	-0.442068	-0.007153	-1.456195
C	0.0	0.0	0.0
Cl	0.031817	-1.583617	-2.206486
H	1.093005	0.0	0.0
H	0.140697	0.747319	-1.992161
H	-0.425882	-0.870523	0.514329
C	-1.931113	0.171753	-1.707362
H	-2.165791	0.122179	-2.773538
H	-2.273457	1.141833	-1.33433
H	-2.490458	-0.615226	-1.194109
N	-0.354811	1.242532	0.70222
H	-1.190931	1.687765	0.34771
H	0.428076	1.874547	0.587651
F	2.708027	0.0	0.0
