14

C	-0.451064	-0.000858	-1.4557
C	0.0	0.0	0.0
Cl	-0.011473	-1.561867	-2.262437
H	1.093148	0.0	0.0
H	0.140417	0.75509	-1.978746
H	-0.352188	0.957933	0.415246
C	-1.935788	0.229694	-1.685558
H	-2.222207	1.193139	-1.2518
H	-2.529829	-0.553863	-1.206918
H	-2.185299	0.23461	-2.749767
N	-0.475153	-1.106	0.829512
H	0.216459	-1.840235	0.748468
H	-1.357052	-1.479291	0.498319
F	2.716193	0.0	0.0
