16
Coordinates from ORCA-job run
  C   -0.59182285427566     -0.36758574053397     -0.47855493387291
  C   0.75363378172094     -0.15910033385853      0.23876061858844
  H   -0.48281537050937     -1.21003612673708     -1.17350786807713
  H   0.88688098612800     -1.02085775543250      0.91154206389407
  C   -0.90206287940104      0.82272642169513     -1.27481241915993
  N   -1.17839710797157      1.79297006854784     -1.87512269746537
  C   -1.72139217714541     -0.66632403264336      0.50839945349479
  H   -2.67155278989226     -0.79531902020409     -0.01271802423496
  H   -1.50041079004065     -1.58587308568572      1.05629314743682
  H   -1.80893271972750      0.15228551251589      1.22153631222653
  N   0.67378947599786      1.01739456119175      1.07486870837495
  H   1.42691042604710      1.02881466595408      1.75106888537901
  H   0.76359224035483      1.84010535416123      0.48673763070400
  N   1.80206127873377     -0.04172098637247     -0.77196268983448
  H   2.70180908122672      0.06915671187758     -0.31776306560578
  H   1.84870941875423     -0.87863621447577     -1.34376512184805
