16
Coordinates from ORCA-job run
  C   -0.61150502350884     -0.19229354474268     -0.64378665877135
  C   0.82820386592316      0.14394929627658     -0.19103123660365
  H   -0.53081594403751     -0.92962348341311     -1.45199721169328
  H   1.34895860573724      0.56857156337025     -1.06979796355266
  C   -1.20702126489047      1.01944122831633     -1.21323972380420
  N   -1.65315924572114      2.03352994109952     -1.60441856854148
  C   -1.47224737281723     -0.75733882931968      0.48584249323961
  H   -0.96896780182183     -1.62920688682523      0.90191773190113
  H   -2.45550376836696     -1.04717355438568      0.10957630672013
  H   -1.59529245224575     -0.01914209552108      1.27684395661514
  N   1.45998433774867     -1.08594168142936      0.26960621313041
  H   1.86174490583185     -1.57759035556894     -0.51987399793782
  H   2.21310593595509     -0.87326179227154      0.91213511615039
  N   0.77164961271590      1.07583491362806      0.92162602045591
  H   1.71274131703743      1.34594537589365      1.18744802118046
  H   0.29812429246040      1.92429990489290      0.62914950151128
