16
Coordinates from ORCA-job run
  C   -0.61260565198295     -0.19883614316101     -0.64187995642519
  C   0.80490015487444      0.25156824322237     -0.23177120653625
  H   -0.51358569738029     -1.01108406520162     -1.37414527293888
  H   1.25836489571686      0.74843450552523     -1.10190319149198
  C   -1.28811042144948      0.90815851444041     -1.32166311919863
  N   -1.83319892187435      1.78841631762771     -1.87456575837241
  C   -1.43904508438224     -0.69216137974570      0.54747223877182
  H   -0.89001819508368     -1.47410586423110      1.07272561104246
  H   -2.39543834427385     -1.09425220019951      0.20877434283663
  H   -1.64099143438927      0.13297693532158      1.23137445751680
  N   1.54412308606120     -0.93650307533900      0.20138665353977
  H   1.63612607151197     -1.59670729147499     -0.56408453918019
  H   2.48053330924927     -0.66079348162454      0.47578299529998
  N   0.71681782134623      1.23966707885370      0.81901938571153
  H   1.54111321224652      1.82522759727075      0.84057218627614
  H   0.63101519980963      0.77199430871571      1.71390517314839
