16
Coordinates from ORCA-job run
  C   -0.59650381278564     -0.38325895706746     -0.45952434709911
  C   0.75371895753311     -0.15433403512473      0.24235875018968
  H   -0.49704083855355     -1.25660174492407     -1.11684525968261
  H   0.88364646812791     -0.98806557023398      0.95041378013003
  C   -0.90091273206124      0.77231336531960     -1.30738992435433
  N   -1.17231710502910      1.71631887388848     -1.95031238039956
  C   -1.72444973223028     -0.62919891740863      0.54357851699247
  H   -1.50874858123624     -1.52521443419044      1.13104302806026
  H   -2.67749541767074     -0.77357635441516      0.03169219926256
  H   -1.80360421600370      0.22088472731468      1.21999953021222
  N   0.68621386012652      1.05660500678878      1.02855731665037
  H   1.44316051372200      1.09163417914919      1.69973088431448
  H   0.77738445636122      1.85390395244967      0.40648305032315
  N   1.79836167777525     -0.08837452866681     -0.77693818438226
  H   2.70074806312660      0.03668291689205     -0.33208845125322
  H   1.83683843879788     -0.94971847977116     -1.31175850896413
