16
Coordinates from ORCA-job run
  C   -0.59936437627816     -0.03833543849904     -0.41657840062878
  C   0.69093366414099      0.19922066561225      0.40503414420573
  H   -0.29347709754801     -0.33487713681379     -1.43049313874458
  H   0.38581395342465      0.41966403572665      1.43446025499173
  C   -1.32573073873400      1.22745073832425     -0.53715694764822
  N   -1.89689333990982      2.25197718498958     -0.59461860915799
  C   -1.49499190916452     -1.12370181608914      0.18554457944103
  H   -1.81636011446225     -0.83052847967454      1.18770303704570
  H   -0.93328841382152     -2.05302850690001      0.26174811458042
  H   -2.38488895840111     -1.28215060551521     -0.42660978030363
  N   1.50307497411144      1.32609895290873     -0.03787845463329
  H   1.70181611309364      1.24685306493204     -1.03022971601785
  H   1.01458355687842      2.20292285309240      0.10778472018567
  N   1.43319933732654     -1.04624611878835      0.42470406693929
  H   1.74750502626029     -1.26281057879159     -0.51686917866144
  H   2.26706832308344     -0.90250881451424      0.98345530840621
