15

C	0.0	0.0	0.0
C	-0.163368	0.10533	-1.524455
Br	1.97135	0.0	0.0
H	0.269642	1.054161	-1.85201
H	0.386214	-0.722605	-1.976923
C	-0.441356	1.144182	0.758028
N	-0.618218	2.031224	1.52777
C	-0.217306	-1.368114	0.68668
H	0.238225	-2.138776	0.055621
H	-1.264461	-1.590109	0.84488
H	0.319221	-1.35824	1.640804
N	-1.510415	0.049592	-2.164925
O	-2.056764	1.114522	-2.448766
O	-1.888693	-1.061692	-2.56669
H	-1.942687	0.0	0.0
