15

C	0.0	0.0	0.0
C	-0.586399	-0.117492	-1.399756
Br	1.963859	0.0	0.0
H	-0.34153	0.751486	-2.008164
H	-1.708496	-0.173864	-1.168815
C	-0.387672	1.347015	0.438613
N	-0.57915	2.449787	0.799282
C	-0.46268	-1.065573	0.979048
H	-1.559102	-1.073477	0.911389
H	-0.045209	-2.029086	0.689039
H	-0.133047	-0.813211	1.991101
N	-0.130828	-1.286834	-2.152721
O	0.418953	-1.082222	-3.243901
O	-0.359361	-2.410334	-1.69318
H	-2.999696	0.0	0.0
