15

C	0.0	0.0	0.0
C	-0.465871	-0.047755	-1.465868
Br	1.963731	0.0	0.0
H	-0.140747	0.832778	-2.001552
H	-1.581817	-0.134659	-1.360868
C	-0.405308	1.29254	0.556337
N	-0.513591	2.36905	1.023534
C	-0.440463	-1.154391	0.888411
H	-1.530769	-1.197837	0.814514
H	-0.119041	-0.945638	1.903457
H	0.047719	-2.049876	0.549492
N	0.120727	-1.181034	-2.166176
O	0.9036	-0.957083	-3.088295
O	-0.21529	-2.321761	-1.81976
H	-2.9303	0.0	0.0
