15

C	0.0	0.0	0.0
C	-0.598309	0.003933	-1.383704
Br	1.962493	0.0	0.0
H	-1.722907	0.126447	-1.129103
H	-0.413166	-0.938875	-1.894762
C	-0.376622	1.169614	0.805168
N	-0.519598	2.057141	1.564159
C	-0.468195	-1.276451	0.689946
H	-1.567526	-1.233383	0.6668
H	-0.094055	-2.143552	0.140205
H	-0.104433	-1.314612	1.718184
N	-0.103058	1.065692	-2.25611
O	0.143646	0.770833	-3.43321
O	0.003054	2.201906	-1.785898
H	-2.962329	0.0	0.0
