14
Coordinates from ORCA-job run
  C   -0.75477276916530      0.13180907179376     -0.12708198075154
  C   0.74866264412782      0.35468218941577     -0.19518746508766
  F   -1.06489875677108     -0.92056960571206     -1.01812612639049
  H   0.98925164077271      1.17805733274480      0.48172078829552
  H   0.96568260457179      0.69046089892964     -1.21570757271798
  N   -1.46761672187280      1.31462881797034     -0.43488451759673
  H   -1.18343165414137      1.67527482407657     -1.33707720091003
  H   -2.46764820548041      1.15708935143999     -0.43020239802546
  C   -1.16702803899213     -0.34621875949015      1.21020452165077
  N   -1.47143325193948     -0.72941316913636      2.27664555372411
  C   1.56026974527778     -0.89132154995946      0.13460289397861
  H   1.38554525121753     -1.21663464759370      1.16236839077410
  H   1.30074185554853     -1.71175119852097     -0.53461904407159
  H   2.62667565684640     -0.68509355595815      0.02634415712835
