14
Coordinates from ORCA-job run
  C   -0.82292400094898      0.10777888726686     -0.33837092403328
  C   0.62695172064718     -0.15154388273178     -0.71851398905004
  F   -1.55558914076032      0.17337661086043     -1.54300570832442
  H   0.63476538943907     -1.01410939094350     -1.38946208808507
  H   0.95267380000121      0.71255880619741     -1.30878033899190
  N   -0.96093407338353      1.28655376971870      0.43244055462378
  H   -1.92857739033744      1.46826015705065      0.66722766726749
  H   -0.57454392499772      2.08035390326831     -0.06348664862307
  C   -1.39136013258637     -1.03007734821848      0.41613830528817
  N   -1.82452907594584     -1.94692153741534      1.00669001846334
  C   1.53654351733889     -0.37610073016213      0.48247522512958
  H   1.52366030187092      0.48543399325511      1.14994756182652
  H   2.56311223804237     -0.54480616516161      0.15153034378219
  H   1.22175077162055     -1.25175707298463      1.05417002072672
