14
Coordinates from ORCA-job run
  C   -0.75545154288719      0.04523947784904     -0.27016414023284
  C   0.52839486027656     -0.69973317985145      0.06817710913085
  F   -0.75726725687746      0.35362464100809     -1.62281738135860
  H   0.47872191536708     -1.01306797250606      1.11682334354416
  H   0.53563691380601     -1.61205392272480     -0.53452091878953
  N   -0.84564878084104      1.28442179950656      0.44070449385186
  H   -1.74724044511706      1.72169997892882      0.29372128742229
  H   -0.70222586967243      1.14436287397502      1.43248915354859
  C   -1.93073946973959     -0.84421440800069     -0.05820697275365
  N   -2.85399721819851     -1.53206286053128      0.17469727079875
  C   1.77524984966521      0.13408494205392     -0.20496393024975
  H   2.67000652329904     -0.46571006053189     -0.02645872810513
  H   1.81656879188963      1.01672477539895      0.43232333913238
  H   1.78799172902976      0.46768391542578     -1.24280392593937
