14
Coordinates from ORCA-job run
  C   -0.73143126556387      0.15777525623464     -0.20670083970900
  C   0.71498198417679      0.42275192962549      0.18374634806479
  F   -0.73168083329766     -0.28807129931014     -1.54748119284907
  H   1.05985814126630      1.25118206907062     -0.44600050006522
  H   0.71558231184567      0.77305348412060      1.21906905742683
  N   -1.53372655841478      1.30972119909117     -0.03052808603277
  H   -1.14777628091776      2.09307661794550     -0.54211502331963
  H   -2.48834380203100      1.14686575692827     -0.32492953447567
  C   -1.30459783581036     -0.95413047819919      0.58173997516921
  N   -1.73841790879846     -1.84097825699199      1.21620867491832
  C   1.62080469898367     -0.78899274826643      0.00622265386699
  H   2.64965774790236     -0.53025613926569      0.26373239396902
  H   1.60390698039508     -1.13830858670902     -1.02664533654009
  H   1.31118262026405     -1.61268880427384      0.65368140957629
