18

C	-0.411677	-0.079333	-1.484014
C	0.0	0.0	0.0
Br	-0.263298	1.918652	-2.18412
H	1.096239	0.0	0.0
N	0.475943	-0.899586	-2.157801
H	0.34798	-0.906394	-3.158475
H	1.446868	-0.755075	-1.886897
C	-1.86796	-0.417528	-1.711197
H	-2.030274	-1.458413	-1.416517
H	-2.133941	-0.306202	-2.764326
H	-2.494603	0.238973	-1.109064
N	-0.413396	-1.30927	0.63487
O	0.203058	-2.31293	0.2959
O	-1.344469	-1.295954	1.446264
N	-0.655076	1.069324	0.714027
H	-0.110339	1.908526	0.549691
H	-0.615901	0.858234	1.704258
Cl	3.341934	0.0	0.0
