18

C	-0.532367	0.011834	-1.433782
C	0.0	0.0	0.0
Br	-0.032815	-1.785128	-2.255707
H	1.090052	0.0	0.0
N	-1.936838	0.220517	-1.488294
H	-2.247065	0.266324	-2.450603
H	-2.432441	-0.515753	-0.9994
C	0.222819	1.065521	-2.22321
H	1.298141	0.897818	-2.131859
H	-0.066955	1.030974	-3.276965
H	-0.028015	2.039665	-1.799362
N	-0.486566	-1.245715	0.733103
O	-1.714462	-1.345283	0.889163
O	0.335646	-2.035187	1.17724
N	-0.434247	1.190716	0.664677
H	0.097519	1.324733	1.516814
H	-1.429335	1.16866	0.845037
Cl	3.387231	0.0	0.0
