18

C	-0.552101	0.030117	-1.445783
C	0.0	0.0	0.0
Br	-0.267379	-1.73248	-2.281301
H	1.090167	0.0	0.0
N	-1.964021	0.324007	-1.563225
H	-2.48968	-0.307796	-0.967338
H	-2.095259	1.266564	-1.208375
C	0.261932	1.050462	-2.220842
H	-0.071993	1.065817	-3.259253
H	0.102635	2.033063	-1.767909
H	1.325171	0.811779	-2.158542
N	-0.495005	-1.229357	0.720691
O	0.276298	-2.152942	0.935903
O	-1.693829	-1.223807	1.043516
N	-0.449588	1.192957	0.677285
H	-1.336249	1.014675	1.13324
H	0.24348	1.447713	1.371952
Cl	3.363936	0.0	0.0
