18

C	-0.251444	0.097919	-1.514073
C	0.0	0.0	0.0
Br	-2.148659	0.559427	-1.914962
H	1.105448	0.0	0.0
N	0.539014	1.180561	-2.065927
H	1.518367	0.941241	-1.892739
H	0.354787	2.024657	-1.532572
C	0.116752	-1.184495	-2.231474
H	-0.560986	-1.995893	-1.976061
H	0.093274	-1.004492	-3.306718
H	1.138815	-1.449854	-1.934667
N	-0.481308	-1.289009	0.621877
O	-1.548577	-1.769585	0.23032
O	0.19275	-1.738766	1.541871
N	-0.477856	1.068163	0.815853
H	0.26693	1.692672	1.081303
H	-1.276857	1.543457	0.422397
Cl	3.324516	0.0	0.0
