18

C	-0.521593	0.031587	-1.441442
C	0.0	0.0	0.0
Br	-0.046216	-1.768852	-2.27896
H	1.090039	0.0	0.0
N	-1.916972	0.271039	-1.506355
H	-2.221388	0.327661	-2.469663
H	-2.433241	-0.452546	-1.021643
C	0.267075	1.066382	-2.219391
H	-0.021342	1.047948	-3.27394
H	1.335448	0.865913	-2.126115
H	0.046367	2.045308	-1.791122
N	-0.497222	-1.251999	0.70897
O	-1.72577	-1.343414	0.853863
O	0.313427	-2.062808	1.134504
N	-0.434041	1.180418	0.678248
H	-1.428547	1.162668	0.858769
H	0.099733	1.305484	1.528491
Cl	3.390765	0.0	0.0
