18

C	-0.52845	0.135311	-1.433072
C	0.0	0.0	0.0
Br	-0.058392	-1.594842	-2.407464
H	1.090937	0.0	0.0
N	-1.925713	0.376643	-1.469018
H	-2.237612	0.495301	-2.423645
H	-2.437498	-0.377728	-1.028583
C	0.254002	1.226982	-2.136907
H	0.035112	2.170781	-1.634719
H	1.323712	1.02122	-2.066299
H	-0.041754	1.287608	-3.187787
N	-0.494709	-1.302586	0.615757
O	0.315746	-2.157566	0.944706
O	-1.721065	-1.391651	0.786079
N	-0.432325	1.127502	0.76387
H	0.108915	1.193604	1.615862
H	-1.424669	1.091214	0.952341
Cl	3.389046	0.0	0.0
