18

C	-0.350203	-0.018035	-1.498266
C	0.0	0.0	0.0
Br	-2.351347	-0.006827	-1.66054
H	1.093186	0.0	0.0
N	0.140575	1.187111	-2.111174
H	1.152915	1.082535	-2.175611
H	-0.033193	1.947352	-1.459254
C	0.183325	-1.214799	-2.256979
H	1.254379	-1.296572	-2.044735
H	-0.299006	-2.142724	-1.962408
H	0.023693	-1.037281	-3.322044
N	-0.458108	-1.259652	0.71123
O	0.066003	-2.320635	0.383166
O	-1.32635	-1.148601	1.579945
N	-0.463269	1.185088	0.641343
H	-1.420352	1.070096	0.950215
H	0.124734	1.378514	1.441907
Cl	3.290632	0.0	0.0
