18

C	-0.478472	0.051471	-1.458855
C	0.0	0.0	0.0
Br	-0.070015	-1.759119	-2.295524
H	1.089642	0.0	0.0
N	-1.859353	0.374141	-1.560193
H	-2.14143	0.435023	-2.530184
H	-2.419162	-0.316048	-1.072091
C	0.381375	1.046979	-2.219093
H	0.122382	1.038496	-3.280715
H	1.438702	0.803972	-2.093067
H	0.192611	2.047634	-1.818561
N	-0.530112	-1.229956	0.692486
O	0.253386	-1.954659	1.288565
O	-1.754578	-1.397874	0.654426
N	-0.450526	1.134371	0.760344
H	-1.229513	1.592746	0.308467
H	0.321789	1.76807	0.906351
Cl	3.379703	0.0	0.0
