18

C	-0.56787	0.063316	-1.432438
C	0.0	0.0	0.0
Br	-0.184583	2.00653	-2.049362
H	1.092798	0.0	0.0
N	0.058779	-0.84011	-2.269737
H	-0.496206	-1.44547	-2.843432
H	0.989884	-1.142064	-2.030513
C	-2.081013	-0.038003	-1.471492
H	-2.438767	0.125063	-2.490013
H	-2.518773	0.723187	-0.826309
H	-2.39921	-1.028492	-1.130928
N	-0.382644	-1.39644	0.512665
O	0.261912	-2.356141	0.105499
O	-1.347527	-1.485255	1.281581
N	-0.507575	1.005441	0.876621
H	0.246984	1.328397	1.466847
H	-1.252036	0.627536	1.447484
Cl	3.316048	0.0	0.0
