18

C	-0.448837	-0.009972	-1.459614
C	0.0	0.0	0.0
Br	-2.598809	-0.383273	-1.363275
H	1.092798	0.0	0.0
N	-0.213313	1.238566	-1.980015
H	-0.51718	1.372294	-2.931372
H	-0.44528	1.985835	-1.339226
C	0.082032	-1.112368	-2.343029
H	1.172966	-1.087604	-2.255789
H	-0.280947	-2.089728	-2.044119
H	-0.213191	-0.919938	-3.37826
N	-0.391412	-1.28316	0.713343
O	-1.077709	-1.188753	1.730271
O	0.037293	-2.336229	0.253259
N	-0.46989	1.163691	0.675952
H	-1.398893	1.000383	1.046716
H	0.160788	1.377751	1.437585
Cl	3.278266	0.0	0.0
