18

C	-0.336505	-0.001625	-1.501473
C	0.0	0.0	0.0
Br	-2.334827	0.043111	-1.686356
H	1.101286	0.0	0.0
N	0.181161	1.199745	-2.100094
H	1.193083	1.080476	-2.148473
H	0.008993	1.959157	-1.446736
C	0.185731	-1.201953	-2.262431
H	1.253146	-1.302582	-2.040162
H	0.040116	-1.015093	-3.327881
H	-0.314994	-2.12388	-1.979193
N	-0.465063	-1.265743	0.69361
O	0.07206	-2.322011	0.370865
O	-1.353182	-1.164595	1.543367
N	-0.464256	1.179825	0.649553
H	0.115062	1.361398	1.459085
H	-1.425685	1.066547	0.94521
Cl	3.292981	0.0	0.0
