18

C	-0.450344	-0.140731	-1.465809
C	0.0	0.0	0.0
Br	0.023177	1.651687	-2.345109
H	1.095824	0.0	0.0
N	0.270719	-1.203557	-2.040963
H	0.134412	-1.254147	-3.041634
H	1.262786	-1.138284	-1.82159
C	-1.946509	-0.28111	-1.665673
H	-2.182391	-0.288456	-2.732285
H	-2.472657	0.555495	-1.205142
H	-2.28574	-1.218992	-1.220866
N	-0.408581	-1.311791	0.684635
O	-1.512105	-1.326396	1.246685
O	0.359779	-2.262666	0.637608
N	-0.539618	1.120157	0.687598
H	0.111643	1.409143	1.405069
H	-1.429046	0.880032	1.106553
Cl	3.338964	0.0	0.0
