14

C	0.0	0.0	0.0
C	-0.445694	-0.146937	-1.440009
F	1.402043	0.0	0.0
H	-0.095612	-1.108824	-1.819955
H	-0.013752	0.656497	-2.042005
H	-1.535036	-0.102135	-1.490872
C	-0.417538	1.333691	0.597386
H	-1.508009	1.384386	0.617406
H	-0.017377	2.164915	0.009705
H	-0.025586	1.412052	1.61711
N	-0.44612	-1.145469	0.751687
H	-1.451819	-1.221639	0.595752
H	-0.327329	-0.951988	1.74136
Br	-3.951571	0.0	0.0
