17

C	0.0	0.0	0.0
C	-0.477834	-0.123934	-1.4402
Br	1.98487	0.0	0.0
H	-0.162641	0.776269	-1.990831
H	-1.572754	-0.111859	-1.369319
C	-0.465755	1.319953	0.584984
H	-0.110726	1.437899	1.611701
H	-1.561388	1.308423	0.581036
H	-0.107304	2.166251	-0.007185
C	-0.467279	-1.173738	0.836905
H	-1.562789	-1.152828	0.84017
H	-0.100933	-1.089619	1.863506
H	-0.127502	-2.112645	0.401017
N	-0.057593	-1.373029	-2.070802
H	0.87761	-1.26706	-2.444519
H	-0.683884	-1.580424	-2.838493
Br	-4.073618	0.0	0.0
