9
Coordinates from ORCA-job run
  C   0.30414201850628     -0.50560414411426      0.00188702624739
  C   -0.99461419651598      0.28691658150351      0.00428657666338
  Cl  0.55441770452849     -1.30604138787972      1.58425782498462
  H   -1.83193477750925     -0.38080746055977      0.20911749244028
  H   0.26675913558896     -1.30657742107563     -0.73859875966386
  H   -1.14211761540238      0.75567481736096     -0.97109266456143
  H   -0.96426288198315      1.06193531908916      0.77020837322794
  C   1.45444796958028      0.34467585634126     -0.29746005552762
  N   2.35416264320676      1.05082783933448     -0.56160581381069
