9
Coordinates from ORCA-job run
  C   0.30221495219723     -0.49938000546326     -0.06186251097795
  C   -0.99457775888664      0.28166852175047      0.08919145155599
  Cl  0.64254205688807     -1.44470752111586      1.42044131685811
  H   -1.81857099480398     -0.40661511254357      0.27928142245313
  H   0.22389472515231     -1.22619834626888     -0.87242239991945
  H   -0.92013534823211      0.98261761936846      0.92062751679481
  H   -1.19885784557682      0.83774016591894     -0.82838274476255
  C   1.43437143228030      0.38061573802327     -0.34469674487459
  N   2.33011878098164      1.09425894033042     -0.60217730712749
