15

C	-0.447854	-0.019032	-1.45617
C	0.0	0.0	0.0
Cl	-0.034847	-1.574716	-2.22871
H	1.095629	0.0	0.0
H	0.163521	0.723123	-1.983999
N	-1.881823	0.17329	-1.584642
H	-2.108673	1.11146	-1.274196
H	-2.139314	0.10399	-2.562559
C	-0.523731	-1.139583	0.745857
N	-0.931797	-2.045204	1.372043
C	-0.409241	1.312977	0.681572
H	-0.069923	2.160572	0.078778
H	-1.488071	1.380744	0.844398
H	0.092825	1.381486	1.647742
Br	3.501642	0.0	0.0
