15

C	-0.368122	-0.072948	-1.498574
C	0.0	0.0	0.0
Cl	-0.568424	1.678009	-2.176173
H	1.095234	0.0	0.0
H	-1.373535	-0.46661	-1.653886
N	0.583482	-0.805203	-2.186904
H	0.294899	-1.546504	-2.791802
H	1.5245	-0.837283	-1.813667
C	-0.438849	-1.28018	0.558854
N	-0.849449	-2.290856	0.996308
C	-0.547813	1.159455	0.820742
H	-0.31272	0.99869	1.874496
H	-0.078967	2.087635	0.501257
H	-1.631242	1.253641	0.709905
Br	3.512841	0.0	0.0
