15
Coordinates from ORCA-job run
  C   -0.95115801262937     -0.10940534910362     -0.03889068582609
  C   0.45392597948601     -0.23985215656000     -0.65756287446257
  F   -1.85944624626052     -0.14854983293766     -1.11077190353528
  H   0.41735136013267     -1.10786985122234     -1.32394822032344
  N   -1.07022891485640      1.05865021147471      0.74134530102337
  H   -1.97568016330305      1.12100889737991      1.18886605358212
  H   -0.90320251072417      1.88772387227945      0.18208287427117
  C   -1.24408851641250     -1.29365058591528      0.79260695814290
  N   -1.46648343605041     -2.24564436870070      1.44218632476449
  C   1.55055126136701     -0.41613681729578      0.39458667690879
  H   2.52416602983893     -0.49161486636008     -0.09154404684078
  H   1.37891561332679     -1.32961687446975      0.96645391334395
  H   1.55779325623159      0.43186358249479      1.07849282980296
  C   0.69596085807073      0.95002386224038     -1.47647533629183
  N   0.89162344178268      1.93407027669596     -2.08642786455976
