15
Coordinates from ORCA-job run
  C   -0.95484086462071     -0.09169841930642      0.00937024166563
  C   0.41354275455645     -0.24105950741012     -0.68295071769977
  F   -1.91780461455037     -0.10282264801266     -1.01403371350725
  H   0.32626320097119     -1.10069991799159     -1.35532517508130
  N   -1.01104751674050      1.06919700171298      0.80647408799723
  H   -0.85523152038503      1.90193134113710      0.24958496125921
  H   -1.89022665023186      1.14415277019463      1.30174836303648
  C   -1.22652649265907     -1.28001946858628      0.84249156405826
  N   -1.43476705986494     -2.23924054507843      1.48620986358447
  C   1.56019887266979     -0.44836918361290      0.30857026188878
  H   1.39931555018290     -1.36141359275852      0.88425222149186
  H   2.50458241382771     -0.54168857832757     -0.22944152426918
  H   1.62278148708959      0.39506615537390      0.99537415882152
  C   0.63701572692618      0.95394445883097     -1.49974111930653
  N   0.82574471282866      1.94372013383490     -2.10258347393943
