15
Coordinates from ORCA-job run
  C   -0.83330116840661      0.02704851153340      0.20380785856976
  C   0.56567896975378     -0.23742498685895     -0.38205486340265
  F   -1.24162350209178      1.28800465393248     -0.17367106407840
  H   0.86830354958853     -1.24253007794847     -0.06166854155463
  N   -0.77898121529059      0.01442487300750      1.63575930941001
  H   -0.48669126886283     -0.89388169786902      1.97692998033186
  H   -1.69657204404660      0.22066573352917      2.01505303896860
  C   -1.81967058961494     -0.93018611218243     -0.36251608410477
  N   -2.58939894784219     -1.73642754073021     -0.73449010056660
  C   1.58383511737805      0.80005265735239      0.10095869218258
  H   1.27972017675003      1.79658119272340     -0.21839102424178
  H   1.64942143897151      0.78475928614318      1.18744478362279
  H   2.56330771563959      0.57947615672545     -0.32578697011422
  C   0.48596738108712     -0.24410273539719     -1.84455761141328
  N   0.45000438698692     -0.22745991396069     -3.01781740360927
