13
Coordinates from ORCA-job run
  C   -0.57367663279681      0.34383936463350      0.31303776824794
  C   0.92300264018455      0.27666244795217     -0.09556063386574
  F   -0.93179507206332      1.68530246034091      0.12253301369118
  H   1.45222312865163      1.05044552937488      0.47188748440631
  C   -0.70601812059766      0.06408876691480      1.75380921992194
  N   -0.80783291564511     -0.13770503341479      2.90592816112371
  N   -1.33911630312844     -0.56411595199952     -0.43211084905836
  H   -2.29754090151454     -0.61755424129772     -0.11361593937005
  H   -1.30357684557213     -0.36914883466591     -1.42585167686392
  C   1.03992682187350      0.57446722475088     -1.52626323161428
  N   1.08822205951899      0.80417705065375     -2.67651638273748
  C   1.49298862950058     -1.03493925633332      0.21744241179083
  N   1.96319351158878     -2.07651952690963      0.48528065432794
