13
Coordinates from ORCA-job run
  C   -0.66635177546682      0.25266823792838      0.05745748575919
  C   0.70421772683101     -0.02527981620265     -0.61229608067727
  F   -1.14692878777969      1.40534093238680     -0.57316859826732
  H   0.49404461345238     -0.22253562009525     -1.67194940761884
  C   -0.49761864416548      0.57204830514182      1.48501341426259
  N   -0.37442333835470      0.83446369581124      2.62281142659127
  N   -1.50457435978600     -0.86549057484509     -0.09322287377882
  H   -2.36461453923383     -0.77802601308098      0.43214204454128
  H   -1.70396830153159     -1.06068483236500     -1.06660484679455
  C   1.34293191753575     -1.20377533192664     -0.02371902905306
  N   1.86559135868908     -2.14871233467482      0.43650235925829
  C   1.57696713885019      1.14871031652332     -0.52885152943096
  N   2.27472699095968      2.09027303539888     -0.46411436479181
