13
Coordinates from ORCA-job run
  C   -0.67058084024461      0.24205276148167      0.04790558745568
  C   0.71477025254784     -0.00933271259708     -0.60204299761834
  F   -1.15720034822259      1.39409664640044     -0.57911972773108
  H   0.52575874681694     -0.19769172166415     -1.66726682718481
  C   -0.52911006377339      0.54935328267783      1.48110202965341
  N   -0.42904972666904      0.80317048369974      2.62311771839896
  N   -1.49050376537149     -0.88602430333358     -0.12735596527769
  H   -2.35835860802114     -0.81758658540175      0.38755904756638
  H   -1.67408582244032     -1.07207080168779     -1.10563993644562
  C   1.36077379323243     -1.18491308957386     -0.01544050741296
  N   1.89164365000557     -2.12651861545467      0.44217133064200
  C   1.56826850684852      1.17639541138208     -0.48930735534162
  N   2.24767422529129      2.12906924407112     -0.39768239670432
