13
Coordinates from ORCA-job run
  C   -0.59020960704683      0.43954637209936      0.19498484569858
  C   0.93214549162955      0.29251000964239     -0.06249505383572
  F   -0.92132508922262      1.74086823963386     -0.09156296676866
  H   1.44762247098042      0.98568017716472      0.61306483201075
  C   -0.85103705180290      0.23275947512475      1.64312586935014
  N   -1.07040357244478      0.01632423235288      2.77728506899078
  N   -1.32104765574787     -0.40434592244119     -0.68497078666258
  H   -2.31802089245807     -0.28071320386903     -0.55303724711435
  H   -1.08367553329225     -1.38170686475160     -0.56207107146327
  C   1.24457507960835      0.65789939889753     -1.44680271491887
  N   1.52817193713814      0.96601403855067     -2.54301225474344
  C   1.35637419209310     -1.07721705096319      0.23529038889656
  N   1.64583023056575     -2.18861890144114      0.48020109056007
