12
Coordinates from ORCA-job run
  C   0.18669162026975     -0.17163414333100      0.51208781285497
  C   -0.75988692814122     -0.04942245542955     -0.68160833111462
  Cl  -0.60156289669224      0.53054727720527      1.95700902817097
  H   -1.03011897865293      1.00044738074346     -0.82596505062881
  H   0.34868346481995     -1.22613224689244      0.74360109972701
  H   -0.24065427755514     -0.38759283407032     -1.58454753064404
  C   1.50611432062849      0.52903583440814      0.25056641671245
  H   2.00965043055483      0.07117993456775     -0.60534236689266
  H   1.34300038316192      1.58796160562940      0.03932648326699
  H   2.16163599203868      0.45053387189726      1.11834668653838
  C   -1.97798230371756     -0.84097557776350     -0.52369739560882
  N   -2.94457082671452     -1.49394864696447     -0.39977685238183
