12
Coordinates from ORCA-job run
  C   0.27003270366771     -0.31090851543557      0.63735978089932
  C   -1.13808915979654     -0.25333540782115      0.03942577007103
  Cl  0.11995783355218      0.00582587024308      2.39477316237809
  H   -1.55803109381448      0.74581975329840      0.18781764229112
  H   0.65853318388936     -1.32738261159938      0.55019307299828
  H   -1.79324718326225     -0.96382317245646      0.54948623513104
  C   1.22455237755725      0.68407022725301      0.00943583790015
  H   1.34424485732285      0.46816232000995     -1.05510676908640
  H   2.20357696550022      0.62766528680756      0.48656926100134
  H   0.84466502042115      1.70179822261345      0.12319521636134
  C   -1.11389046855782     -0.56207685529667     -1.38934520576189
  N   -1.06130503647963     -0.81581511761621     -2.53380400418341
