13

C	0.0	0.0	0.0
C	-0.549684	-0.122442	-1.394928
Cl	1.760658	0.0	0.0
H	-0.187596	0.66432	-2.048222
H	-0.373207	-0.772182	0.663435
H	-1.651208	-0.112189	-1.299488
N	-0.41089	1.324823	0.596151
O	-0.512396	1.358407	1.814453
O	-0.526189	2.273379	-0.171179
N	-0.151365	-1.416065	-1.994801
O	-0.08805	-2.399377	-1.258938
O	0.045687	-1.429306	-3.208895
Cl	-3.408744	0.0	0.0
