12

C	-0.422874	0.01078	-1.455008
C	0.0	0.0	0.0
Cl	-0.040588	-1.590616	-2.169768
H	1.091299	0.0	0.0
H	0.178014	0.746715	-1.991471
H	-0.387128	-0.847073	0.561545
C	-1.844238	0.280867	-1.661955
N	-2.985716	0.495331	-1.839688
N	-0.399057	1.223869	0.655659
O	-0.505421	1.211704	1.888329
O	-0.470404	2.249028	-0.045019
H	2.548793	0.0	0.0
