12

C	-0.566214	-0.016383	-1.401162
C	0.0	0.0	0.0
Cl	0.329977	1.051125	-2.546292
H	1.087956	0.0	0.0
H	-1.593129	0.355762	-1.416028
H	-0.274127	-0.896819	0.555256
C	-0.553428	-1.371365	-1.949005
N	-0.630101	-2.453135	-2.399502
N	-0.471581	1.135204	0.761029
O	-0.934219	2.121323	0.157857
O	-0.28336	1.095319	1.984644
H	2.534229	0.0	0.0
