12

C	-0.57143	0.022593	-1.404576
C	0.0	0.0	0.0
Cl	-0.35685	1.675911	-2.080556
H	1.088062	0.0	0.0
H	-1.647135	-0.162153	-1.397568
H	-0.301822	0.883561	0.560811
C	0.034565	-0.94245	-2.323666
N	0.468598	-1.670092	-3.136317
N	-0.473234	-1.15753	0.72289
O	-0.313347	-1.164306	1.949321
O	-0.917965	-2.120758	0.069149
H	2.551912	0.0	0.0
