12

C	-0.552794	-0.047518	-1.412787
C	0.0	0.0	0.0
Cl	-0.425255	1.595051	-2.13812
H	1.088378	0.0	0.0
H	-1.616384	-0.292035	-1.409613
H	-0.319736	0.896927	0.527081
C	0.111639	-1.001334	-2.303062
N	0.579379	-1.725104	-3.101068
N	-0.445962	-1.143855	0.754397
O	-0.771116	-2.169212	0.124562
O	-0.361386	-1.082473	1.989005
H	2.536559	0.0	0.0
