14

C	-0.445664	-0.051292	-1.440247
C	0.0	0.0	0.0
Cl	-2.363437	0.079116	-1.474983
H	1.094345	0.0	0.0
H	-0.313068	-1.070229	-1.799905
N	0.18195	0.858888	-2.284422
H	0.134896	1.797293	-1.913086
H	-0.156506	0.800634	-3.232802
C	-0.441255	-1.166888	0.731449
N	-0.726295	-2.176982	1.26186
N	-0.335879	1.213848	0.706167
O	-0.282752	2.275986	0.061152
O	-0.478026	1.160053	1.935432
H	2.380415	0.0	0.0
