14

C	-0.316805	-0.11218	-1.488815
C	0.0	0.0	0.0
Cl	0.075907	1.526496	-2.277947
H	1.09223	0.0	0.0
H	-1.374431	-0.238657	-1.713714
N	0.485569	-1.171732	-1.950286
H	1.451067	-1.020779	-1.637277
H	0.444453	-1.272791	-2.954338
C	-0.501107	-1.152954	0.72084
N	-0.899293	-2.078378	1.327587
N	-0.59071	1.212122	0.634341
O	0.070766	1.768382	1.503935
O	-1.718898	1.547961	0.268615
H	2.631309	0.0	0.0
