14

C	-0.368389	0.04894	-1.471673
C	0.0	0.0	0.0
Cl	0.079163	-1.513496	-2.225587
H	1.090053	0.0	0.0
H	0.296086	0.785286	-1.933936
N	-1.783258	0.272688	-1.686503
H	-1.951646	0.331306	-2.685732
H	-1.984415	1.185148	-1.290522
C	-0.506943	-1.140241	0.72481
N	-0.859214	-2.104724	1.297803
N	-0.325684	1.231056	0.67173
O	-0.322904	1.240627	1.912534
O	-0.39676	2.26224	-0.033581
H	2.364471	0.0	0.0
