14

C	-0.251512	-0.038834	-1.511078
C	0.0	0.0	0.0
Cl	-1.997809	0.23223	-1.886267
H	1.093965	0.0	0.0
H	-0.048163	-1.070067	-1.808395
N	0.568676	0.833728	-2.303694
H	1.526215	0.621686	-2.007873
H	0.391094	1.778361	-1.979718
C	-0.51749	-1.162803	0.682574
N	-0.875403	-2.17123	1.170592
N	-0.40489	1.22735	0.668973
O	-0.786196	1.163343	1.843417
O	-0.233065	2.287103	0.051666
H	2.472781	0.0	0.0
