15

C	-0.528611	-0.010309	-1.424559
C	0.0	0.0	0.0
Br	0.194196	-1.576712	-2.327056
H	1.092784	0.0	0.0
C	-1.982352	-0.050396	-1.52238
N	-3.154172	-0.143335	-1.569723
N	-0.025225	1.198659	-2.242691
O	1.031041	1.695757	-1.904923
O	-0.723794	1.503409	-3.201558
C	-0.449999	-1.16759	0.727817
N	-0.803765	-2.125725	1.311607
N	-0.467018	1.213833	0.712913
O	-0.254017	1.265816	1.918787
O	-0.995552	2.104815	0.041056
F	2.406221	0.0	0.0
