15

C	-0.4505	0.015435	-1.468118
C	0.0	0.0	0.0
Br	-2.407811	-0.073	-1.600927
H	1.114945	0.0	0.0
C	-0.003308	1.290484	-2.253967
N	-0.402004	1.473252	-3.407418
N	0.138879	-1.146829	-2.229428
O	-0.399847	-1.313046	-3.400485
O	1.459306	-1.06809	-2.258836
C	-0.380868	-1.272391	0.806892
N	0.171991	-1.455868	1.896589
N	-0.476142	1.184122	0.761001
O	-1.723443	1.058824	1.147123
O	0.347495	1.45868	1.749854
F	2.492985	0.0	0.0
