15

C	-0.49667	0.002038	-1.444276
C	0.0	0.0	0.0
Br	-2.41529	0.212209	-1.632864
H	1.093661	0.0	0.0
C	0.159201	0.986365	-2.292057
N	0.694323	1.694276	-3.064829
N	-0.121715	-1.388887	-2.090511
O	0.996002	-1.783397	-1.800457
O	-0.930856	-1.890229	-2.854598
C	-0.512522	-1.145681	0.723503
N	-0.90419	-2.087417	1.308403
N	-0.4119	1.272795	0.691128
O	-0.306226	2.29856	0.029395
O	-0.671646	1.201465	1.888787
F	2.462895	0.0	0.0
