15

C	-0.42111	0.110306	-1.439101
C	0.0	0.0	0.0
Br	0.137149	1.833292	-2.140018
H	1.115456	0.0	0.0
C	0.140025	-0.898524	-2.348655
N	0.180183	-1.400211	-3.435163
N	-1.958589	-0.117353	-1.750508
O	-2.465167	0.526072	-2.637737
O	-2.491733	-0.971165	-1.037878
C	-0.124927	-1.370813	0.492047
N	0.193879	-2.496627	0.637363
N	-0.600715	0.990117	0.912078
O	0.159421	1.518875	1.733746
O	-1.781749	1.292298	0.757433
F	2.411483	0.0	0.0
