14

C	0.0	0.0	0.0
C	-0.4434	-0.243226	-1.450132
Br	1.992484	0.0	0.0
H	-1.529609	-0.361237	-1.374793
H	0.002069	-1.174043	-1.821682
N	-0.494777	1.202691	0.583738
H	-1.497313	1.038525	0.739069
H	-0.42404	1.906764	-0.148374
C	-0.335258	-1.16507	0.829151
N	-0.530388	-2.116261	1.490441
N	-0.13555	0.933123	-2.253081
H	0.732429	0.812008	-2.754259
H	-0.881526	1.099236	-2.914392
Cl	-3.576065	0.0	0.0
