15
Coordinates from ORCA-job run
  C   -0.67790525255851      0.12450868661822     -0.58541940317004
  C   0.72544692700776     -0.11146751085824     -0.02168571218770
  F   -0.87121751247331     -0.71371770870290     -1.63540866685565
  H   1.40201453109010      0.05474900599927     -0.86862748986257
  N   -0.73439138442420      1.55366499776567     -1.13992516719217
  O   -1.33892992043284      2.38577194042688     -0.47727104155885
  O   -0.11571397470333      1.71884402474795     -2.18088212006634
  C   -1.73880693693303     -0.05813675623380      0.40412035959683
  N   -2.56267789901809     -0.28559955336918      1.21051058569586
  C   0.87687709630270     -1.53979003539102      0.50874868278615
  H   0.21928680764747     -1.70911363465085      1.36299874659536
  H   0.63972673096518     -2.25640335186656     -0.27789151785982
  H   1.90713205336656     -1.70013640383732      0.82863698140988
  C   1.01278417431570      0.88170962007183      1.01271087705503
  N   1.25637455984785      1.65611667928006      1.86138488561401
