15
Coordinates from ORCA-job run
  C   -0.69649532606596      0.18083901051933     -0.54769527674969
  C   0.72087528279257     -0.12525780919378     -0.05782852093024
  F   -0.94958302255947     -0.57482193436945     -1.64642260566869
  H   1.36919252919658      0.08886659209366     -0.91604297028981
  N   -0.73872516898546      1.64758770410876     -0.99625001697347
  O   -1.29577432924154      2.44299511187941     -0.25201118712246
  O   -0.15701369436041      1.87353277712505     -2.04703220532052
  C   -1.72363083005203     -0.04907724134929      0.46726025058186
  N   -2.52247065528905     -0.31310097318939      1.28750512069295
  C   0.85842213843815     -1.59164201315593      0.36059367130332
  H   1.89513634213779     -1.79551457370633      0.63095867022816
  H   0.22674238977332     -1.81098720274471      1.22301323718810
  H   0.57865526018588     -2.24317136100827     -0.46755508504858
  C   1.07029946827766      0.78260978327558      1.03429142622239
  N   1.36536961575196      1.48614212971536      1.92721549188669
