15
Coordinates from ORCA-job run
  C   -0.54430240313580      0.13809276231442     -0.70758176694396
  C   0.72124147355277     -0.04215133933462      0.13411549342932
  F   -0.40358429817285     -0.56482979135909     -1.86058286952354
  H   1.54031534961886      0.29433025095436     -0.51282278525734
  N   -0.64942528178294      1.61803173401914     -1.09901670209974
  O   -1.48412702523281      2.29360892726191     -0.51271333078003
  O   0.16196736967462      1.97845653120189     -1.93900923971285
  C   -1.76527075246024     -0.27325086387389     -0.01623025460995
  N   -2.71198068764748     -0.68755833761628      0.54290921169113
  C   0.92163096261769     -1.50753967813099      0.52896630355473
  H   1.86721675495934     -1.61312980530394      1.06211103941406
  H   0.95200087907408     -2.13238952063066     -0.36414295085997
  H   0.11625792544417     -1.84861692693827      1.18181527456434
  C   0.65860264833065      0.83212716467057      1.30481628553111
  N   0.61945708515994      1.51681889276546      2.25836629160269
