13

C	0.0	0.0	0.0
C	-0.556594	-0.404154	-1.338837
Cl	1.763797	0.0	0.0
H	-0.173737	-1.363191	-1.674301
H	-0.370139	0.966307	0.325643
H	-1.656953	-0.405807	-1.233284
N	-0.41359	-1.000397	1.050502
O	-0.529391	-0.56723	2.188997
O	-0.517199	-2.170439	0.699637
N	-0.207065	0.601083	-2.370761
O	-0.125453	1.779431	-2.027728
O	-0.07078	0.189656	-3.522493
Cl	-3.425587	0.0	0.0
