14

C	0.0	0.0	0.0
C	-0.504917	-0.312518	-1.386999
Br	1.94797	0.0	0.0
H	-0.075645	0.360508	-2.126611
H	-1.593918	-0.214498	-1.366853
H	-0.233098	-1.341916	-1.62997
N	-0.383357	1.426604	0.378315
O	-0.539034	2.227528	-0.53618
O	-0.458326	1.68385	1.574443
C	-0.498648	-0.966079	1.049548
H	-0.195764	-1.973904	0.756487
H	-0.085733	-0.733052	2.029519
H	-1.590113	-0.899399	1.063837
Cl	-3.756812	0.0	0.0
