14

C	-0.589876	0.027057	-1.374716
C	0.0	0.0	0.0
F	-0.148341	-1.08038	-2.053406
H	1.089765	0.0	0.0
H	-0.294501	-0.934363	0.481315
C	-2.063312	0.010267	-1.406492
N	-3.230884	-0.112944	-1.368015
N	-0.123459	1.211048	-2.23139
O	-0.830082	1.455062	-3.209108
O	0.931849	1.742868	-1.934432
N	-0.529063	1.093765	0.802743
O	-0.42899	1.01346	2.025313
O	-1.014191	2.065596	0.204662
F	2.457743	0.0	0.0
