14

C	-0.487247	0.082304	-1.416489
C	0.0	0.0	0.0
F	0.105374	-0.795971	-2.247983
H	1.088921	0.0	0.0
H	-0.335528	0.863672	0.568614
C	-1.950878	-0.005004	-1.580562
N	-3.118592	-0.042669	-1.704404
N	-0.124935	1.497043	-1.933738
O	0.466184	1.561408	-2.998458
O	-0.50779	2.432164	-1.242995
N	-0.513369	-1.193829	0.666446
O	-0.491438	-1.198355	1.896152
O	-0.897386	-2.141425	-0.027975
F	2.471387	0.0	0.0
