14

C	-0.576348	0.051837	-1.376689
C	0.0	0.0	0.0
F	-1.943768	0.160104	-1.386686
H	1.089782	0.0	0.0
H	-0.31396	0.900131	0.532284
C	-0.013432	1.199625	-2.103129
N	0.423896	2.132383	-2.665579
N	-0.233702	-1.185699	-2.233888
O	0.958776	-1.388262	-2.383882
O	-1.168549	-1.807793	-2.712335
N	-0.515144	-1.136724	0.760526
O	-0.684067	-0.978258	1.969322
O	-0.690093	-2.204722	0.165781
F	2.461673	0.0	0.0
