14

C	-0.59182	-0.003045	-1.375874
C	0.0	0.0	0.0
F	-0.159329	-1.130518	-2.027599
H	1.089818	0.0	0.0
H	-0.300042	-0.920987	0.503115
C	-2.065577	-0.010339	-1.403811
N	-3.23305	-0.128564	-1.363176
N	-0.120122	1.155844	-2.262096
O	-0.854179	1.424037	-3.210239
O	0.965215	1.645908	-2.012825
N	-0.521695	1.116653	0.774966
O	-0.982865	2.084383	0.152317
O	-0.436436	1.056855	1.999225
F	2.464763	0.0	0.0
