14

C	-0.425558	-0.044807	-1.439113
C	0.0	0.0	0.0
F	0.20033	-0.999944	-2.154265
H	1.090594	0.0	0.0
H	-0.346961	0.913872	0.47696
C	-1.878806	-0.139257	-1.674837
N	-3.038417	-0.176893	-1.862388
N	-0.010674	1.316137	-2.04901
O	-0.522005	2.301253	-1.529617
O	0.758729	1.294597	-2.994276
N	-0.536271	-1.128276	0.753236
O	-0.912757	-2.130272	0.133688
O	-0.544993	-1.024444	1.979219
F	2.467895	0.0	0.0
