13

C	-0.513399	0.014971	-1.431343
C	0.0	0.0	0.0
Br	-0.417307	1.865554	-2.148225
H	1.095978	0.0	0.0
H	0.200732	-0.513237	-2.072367
H	-0.429167	0.841611	0.551165
N	-1.873432	-0.449323	-1.522901
H	-2.079158	-0.753859	-2.46679
H	-1.897133	-1.253502	-0.898927
N	-0.394513	-1.301616	0.609213
H	-0.886661	-1.1372	1.477548
H	0.482534	-1.751068	0.850201
F	2.706931	0.0	0.0
