13

C	-0.522331	0.099624	-1.4117
C	0.0	0.0	0.0
Br	-0.202133	1.865752	-2.210158
H	1.093104	0.0	0.0
H	0.082862	-0.563086	-2.04127
H	-0.296595	-1.018178	0.329539
N	-1.958384	-0.1457	-1.495324
H	-2.242785	-0.191419	-2.46809
H	-2.125389	-1.057138	-1.078822
N	-0.499684	1.048647	0.878817
H	0.232611	1.247449	1.548658
H	-1.334382	0.768038	1.374427
F	2.710641	0.0	0.0
