13

C	-0.55743	-0.027041	-1.400437
C	0.0	0.0	0.0
Br	0.167576	1.62499	-2.41237
H	1.095885	0.0	0.0
H	-0.11764	-0.825694	-1.99525
H	-0.364563	-0.928646	0.46138
N	-1.968834	-0.045619	-1.417561
H	-2.34514	0.145905	-2.336007
H	-2.279549	0.657632	-0.754339
N	-0.604003	1.141443	0.729404
H	0.017915	1.926452	0.55954
H	-0.516288	0.941691	1.719183
F	2.721773	0.0	0.0
