13

C	-0.597824	-0.03191	-1.382626
C	0.0	0.0	0.0
Br	0.101721	1.606726	-2.429788
H	1.095841	0.0	0.0
H	-0.187142	-0.839666	-1.986033
H	-0.358477	-0.92514	0.4741
N	-2.009974	-0.041415	-1.347672
H	-2.420064	0.148978	-2.25174
H	-2.289146	0.667347	-0.675692
N	-0.585204	1.146409	0.740322
H	0.048344	1.922571	0.571851
H	-0.492826	0.939147	1.728329
F	2.719095	0.0	0.0
