13

C	-0.41456	0.004264	-1.464267
C	0.0	0.0	0.0
Br	-0.069549	1.807794	-2.201104
H	1.09212	0.0	0.0
H	0.258972	-0.650635	-2.020986
H	-0.445173	0.854609	0.522513
N	-1.786253	-0.33468	-1.809684
H	-2.411846	0.12698	-1.15547
H	-1.912121	-1.336812	-1.717058
N	-0.35407	-1.261858	0.666247
H	0.434989	-1.887061	0.550089
H	-1.183672	-1.696382	0.279997
F	2.690381	0.0	0.0
