14
Coordinates from ORCA-job run
  C   -0.55271598830989     -0.06690684215950     -0.17058281066686
  C   0.81111847431210      0.59701276664698     -0.21781412508430
  F   -1.07041396735144     -0.18357239019251     -1.43255818566206
  H   0.80006529760384      1.39858446419797     -0.95020655408366
  H   1.10460065003378      0.96407572161682      0.76377422385885
  N   -0.55616736572670     -1.29956844803352      0.46064309965480
  H   -1.48702130485928     -1.61692637778056      0.69216241716849
  H   0.08902795094908     -1.38129910976720      1.23155415067038
  N   -1.53721875833316      0.95810147717414      0.47700664246124
  O   -1.28317558071183      2.14957496841106      0.33313447118831
  O   -2.51919505990478      0.48183848056764      1.03430234663720
  N   1.82136519640253     -0.41265415406681     -0.63992414869323
  O   2.35521031053958     -1.05826364419939      0.26123620714511
  O   2.02552014535616     -0.53199691241512     -1.84272773459426
