14
Coordinates from ORCA-job run
  C   -0.50882970997335     -0.21214410450883     -0.15362535666462
  C   0.96493315800836     -0.33439071650709      0.15612201751139
  F   -0.66955821228252     -0.02792834672808     -1.50402667531645
  H   1.34524609850839     -1.29415152032901     -0.19109009294608
  H   1.13613096475488     -0.21874254080880      1.22417794475805
  N   -1.22234163540507     -1.31086161967931      0.35842666541053
  H   -0.89151027367394     -2.18098647759119     -0.03792309096577
  H   -2.21403795531606     -1.21032235331100      0.17357028489240
  N   -1.12010280746107      1.01633714290925      0.52452679284030
  O   -0.63742710237050      1.35082758978362      1.59657051198438
  O   -2.09380165768948      1.50153375449772     -0.03444707166357
  N   1.76518769728277      0.71379069674799     -0.54347267099109
  O   1.26136861073287      1.82665459948137     -0.65048290593372
  O   2.88474282488471      0.38138389604336     -0.91832635291574
