14
Coordinates from ORCA-job run
  C   -0.61115264755734     -0.23435315706174     -0.21101830112719
  C   0.73719591102945     -0.01525643883585     -0.86328085665314
  F   -1.46725484958799     -0.62396819000530     -1.24230023811064
  H   0.68867325424528      0.83484212778466     -1.54022260055198
  H   1.04007161801689     -0.92023019033521     -1.38705224063312
  N   -0.55210204886884     -1.09967955259405      0.87034995506759
  H   -0.20746755133747     -2.01571198901849      0.62098471958075
  H   -1.41336178812791     -1.13754713899427      1.39660565079661
  N   -1.23303494163183      1.08888555267901      0.24710140429022
  O   -1.09031469056415      2.03768245024806     -0.51060095980401
  O   -1.89154882089643      1.06626345446732      1.27966034317745
  N   1.75282712994635      0.26889370593082      0.18408329845844
  O   2.65841595510344     -0.54802668380335      0.32621561679775
  O   1.58905347023054      1.29720604953838      0.83247420871127
