14
Coordinates from ORCA-job run
  C   -0.51732975639548      0.02206904937729     -0.13585430876975
  C   0.88620504998407      0.46407327723478      0.23213598876262
  F   -0.61972685051218      0.07932282456692     -1.52047981385652
  H   1.06095342641790      1.48523922599953     -0.08990724998878
  H   1.05794297895295      0.35442802051727      1.30159529789718
  N   -0.91870935355649     -1.18398846304833      0.42791207166699
  H   -1.83645932088959     -1.45482236073199      0.09842161338474
  H   -0.22862061220954     -1.90863258130349      0.28214599243060
  N   -1.52136630271110      1.07395079689068      0.33954449592714
  O   -1.09495954846811      2.04772150886316      0.95091026929121
  O   -2.68910124422592      0.83181147492056      0.06571115216248
  N   1.88565822606334     -0.38977397625417     -0.47979790883968
  O   2.71343391096194      0.18302822200999     -1.17808249424207
  O   1.82107939658820     -1.60442701904220     -0.29225510582616
