14
Coordinates from ORCA-job run
  C   -0.58015465388874     -0.17530752822610     -0.24507808621715
  C   0.89795041116190     -0.38448809141280      0.05248653876701
  F   -0.72346071975964      0.03698088954419     -1.57117335673626
  H   1.22675691288520     -1.32529299859116     -0.38645745488838
  H   1.06524900606718     -0.37165149633474      1.12913160665879
  N   -1.44559284664293     -1.22694533182596      0.15452030042945
  H   -1.20482234745312     -2.09519794638803     -0.30520659049813
  H   -1.45361190937331     -1.33856774329271      1.15930688741135
  N   -1.08556160741185      1.05924158855902      0.49990846672280
  O   -0.97498004750524      0.97929533347797      1.71980875057929
  O   -1.57390728409402      1.96579783621785     -0.14757661924711
  N   1.74206713050742      0.69044473500884     -0.54504852484191
  O   2.68520773139697      0.34096983084212     -1.24691329750609
  O   1.42486022411018      1.84372092242149     -0.26770862063367
