14
Coordinates from ORCA-job run
  C   -0.59749134303057     -0.17285943190930     -0.29509365760916
  C   0.82785722798035     -0.00751530159432     -0.77708604241169
  F   -1.35410819422098     -0.42147141050630     -1.44128657384939
  H   0.91290344218370      0.89014770304954     -1.38551981140152
  H   1.12928373052457     -0.89264628279183     -1.33452889069453
  N   -0.71915056997195     -1.11592069491247      0.71311584198394
  H   -0.40553193052805     -2.03414161391626      0.43319308258916
  H   -1.63471714348546     -1.12879740900024      1.13913980553996
  N   -1.17909209866423      1.15653143234082      0.19778695121644
  O   -0.89048378985662      2.14406406688493     -0.46270384646806
  O   -1.94902939757605      1.10868940792505      1.14925538509766
  N   1.73357429292218      0.12512877947158      0.39419549163233
  O   1.56439506972529      1.11346132682033      1.10074787691099
  O   2.56159070399783     -0.76467057186155      0.56878438746387
