14
Coordinates from ORCA-job run
  C   -0.53893551766840     -0.05230293949763     -0.23583804918034
  C   0.82889387045503      0.59666264126918     -0.11782602674305
  F   -0.93476655784414     -0.12281915218069     -1.52333121718393
  H   1.04493814693557      0.86109845648029      0.91414964895875
  H   0.87278190071179      1.46175975478475     -0.77850191305418
  N   -0.59405796861357     -1.32612231229605      0.34000951884761
  H   -0.26178684770179     -1.34314918354988      1.29353049877384
  H   -1.51174877762846     -1.74349636060402      0.25809216529379
  N   -1.52217361578629      0.95556326820763      0.44511198134344
  O   -2.38853186405292      1.48506226630526     -0.23484586660092
  O   -1.33323044944329      1.10031635299208      1.65028821203384
  N   1.86380442379050     -0.37677200408436     -0.56244915997016
  O   2.40922076797645     -1.03499594256458      0.31999885031895
  O   2.06559248886953     -0.45980484526203     -1.76938864283763
