14
Coordinates from ORCA-job run
  C   -0.58416932900449      0.01819678940559     -0.23155515831341
  C   0.84797869914377      0.42375171371950      0.13611953307233
  F   -0.69503587872380      0.12983310836459     -1.57561593795026
  H   1.04243879041489      1.45388384167253     -0.15912098130005
  H   1.02389223883774      0.27303280408571      1.20047397964052
  N   -1.10555864107397     -1.22270860377485      0.18704808382253
  H   -0.47535562879831     -1.96972285725201     -0.07674869139205
  H   -1.24784256589432     -1.22853669770745      1.18836849322005
  N   -1.46282564605181      1.09526297137188      0.40925404729059
  O   -1.52260239990732      1.03912970618725      1.63516951177778
  O   -1.99115430065284      1.91524173074761     -0.32251732907398
  N   1.81548419902959     -0.42633014996713     -0.61393676949871
  O   1.72622825734455     -1.64212874889357     -0.44392087054174
  O   2.62852220533634      0.14109439204041     -1.33401791075363
