14
Coordinates from ORCA-job run
  C   -0.50434466862258     -0.26264993375394     -0.24156977246867
  C   0.98740581244210     -0.37186868834275     -0.00829068130977
  F   -0.76110183610510     -0.02635266695355     -1.54485782949504
  H   1.35445153755948     -1.26758839926765     -0.50365615096258
  H   1.21257459312441     -0.39209729271784      1.05760307937367
  N   -1.15395947785193     -1.45886781696451      0.14664507595688
  H   -2.13090209432481     -1.42916071170826     -0.12245770486300
  H   -1.07651543550669     -1.60909759647803      1.14453902045364
  N   -1.07319002719175      0.94183898047072      0.54375111165250
  O   -0.78669092847850      0.93138084198541      1.73771776301684
  O   -1.80986416989298      1.72225807548851     -0.03419531995093
  N   1.72513655398781      0.78672455753505     -0.59067780792657
  O   2.80118239319985      0.53811673268122     -1.12283048195147
  O   1.21481774766069      1.89536391802562     -0.46172030152547
