14
Coordinates from ORCA-job run
  C   -0.59934015389234     -0.18153937237176     -0.18620163413944
  C   0.89875777086772     -0.38578337654484     -0.01086172180913
  F   -0.85833712531305     -0.01823617843968     -1.50151288680202
  H   1.18744808773621     -1.34328894697376     -0.44182513791436
  H   1.15878906747435     -0.33401239151102      1.04601372784814
  N   -1.42815261964026     -1.21343575591110      0.32649724237953
  H   -1.33992334113889     -1.29597540561075      1.33021213658804
  H   -1.23841136369090     -2.09631837515848     -0.12920906178607
  N   -1.03599657019271      1.08242475742858      0.55347157992286
  O   -1.57936924105107      1.96584515583852     -0.08217399494497
  O   -0.81814804739354      1.04782438742750      1.76098766465118
  N   1.68815649625009      0.66283391752754     -0.71936463811145
  O   2.56310565078337      0.28368081127071     -1.49082898076894
  O   1.40042138920103      1.82698077302853     -0.45520429511339
