14
Coordinates from ORCA-job run
  C   -0.52377299419475     -0.26195361712013     -0.19601053444063
  C   0.98019580856321     -0.38386974015036     -0.07278270259864
  F   -0.87574648878974     -0.05527572473740     -1.48193716622577
  H   1.28496763195190     -0.37976381170485      0.97331412288308
  H   1.29932770635096     -1.29638256139846     -0.57062846420551
  N   -1.15498048911709     -1.44002291820077      0.27053267063214
  H   -1.00663521178351     -1.56508472480849      1.26387761879310
  H   -2.14853738527069     -1.40556354357588      0.07207067723462
  N   -1.01932454818942      0.96852663834944      0.59858041055270
  O   -1.79053145273812      1.74224639010774      0.05786961644030
  O   -0.64299432817097      0.98523095830723      1.76727511318007
  N   1.68421584454472      0.75048418695304     -0.73868203526219
  O   2.71646013799321      0.47542451835603     -1.34008145231344
  O   1.19535576885030      1.86800394962285     -0.60339787466983
