14
Coordinates from ORCA-job run
  C   -0.46987592566377     -0.32402816158325     -0.03966147482526
  C   1.01283571029899     -0.11914771719635      0.16714649933166
  F   -0.70483775642441     -0.59185923032471     -1.36497941471256
  H   1.19776826233820      0.34490574494336      1.13351739893671
  H   1.53881847992119     -1.06992213283264      0.09172258343629
  N   -0.96746717229988     -1.30674892227311      0.83518532954621
  H   -0.50886867998921     -2.19639682845845      0.68711634763237
  H   -1.96798273882304     -1.41809075784782      0.71548373049664
  N   -1.25854672952727      0.94553636338019      0.28988126782873
  O   -0.80485769050620      1.66234319189078      1.16988565457598
  O   -2.31816140123151      1.08180814252379     -0.30556035866954
  N   1.59800605107010      0.77094114037753     -0.87873415351461
  O   0.90867342932252      1.70726776499945     -1.26836231766644
  O   2.74349616151428      0.51239140240123     -1.23264109239619
