14
Coordinates from ORCA-job run
  C   -0.64644767347386     -0.32568080267502     -0.27346948765386
  C   0.69070399402008     -0.00301436370304     -0.90986720344439
  F   -1.55709932084218     -0.43408771178520     -1.29235259133767
  H   1.08380405121706     -0.90923726173950     -1.37292281506613
  H   0.57269213620794      0.78275211326534     -1.64972065475882
  N   -0.67457192813941     -1.48651377754820      0.49356774439527
  H   -1.57961118610320     -1.59985423617997      0.93402308018644
  H   0.05547689776444     -1.46388629472377      1.19324051308337
  N   -1.15632673795729      0.93666733753264      0.48599194235275
  O   -2.00909433786471      0.73644504750660      1.34251202563792
  O   -0.71115070261937      2.02403215030231      0.13366114364532
  N   1.71349401016750      0.47212216801840      0.06604084628586
  O   2.61423711359287      1.16528736109412     -0.38499992960444
  O   1.60289368403010      0.10396827063530      1.23529538627835
