14
Coordinates from ORCA-job run
  C   -0.61609315218011     -0.17534590563374     -0.13243419377863
  C   0.89188323027950     -0.38169516270570     -0.12370136381938
  F   -1.00938318355342      0.04860733598906     -1.40510454998072
  H   1.13288901447118     -1.31731018272777     -0.62620800981092
  H   1.26105319720718     -0.37842215741880      0.90150298508741
  N   -1.38738213104725     -1.23398813580296      0.41462167308018
  H   -1.22987152266384     -2.09908129312972     -0.08546488094841
  H   -1.20806425765551     -1.34944476696611      1.40293659532249
  N   -0.97315689047798      1.05053884108442      0.70671685415364
  O   -0.63238551076084      0.96042019564040      1.88255120146756
  O   -1.57704122726861      1.96120073049406      0.17222095350369
  N   1.60521692166445      0.70154943314357     -0.86041886884910
  O   1.34280978524842      1.85120909765509     -0.51816801486960
  O   2.40052572673683      0.36176197037820     -1.73005038055823
