14
Coordinates from ORCA-job run
  C   -0.62016444722809     -0.08350360350361     -0.06318890482959
  C   0.80337133027667      0.44871907712707     -0.26437668324967
  F   -1.04749293734754     -0.53592369402622     -1.26488396307763
  H   0.80865000906380      1.26571784086830     -0.98456161405510
  H   1.23294088676033      0.75336696476333      0.68916530474908
  N   -0.89001140524416     -1.04585186787589      0.93063917426919
  H   -0.25665460037596     -1.82972314042674      0.83497039275183
  H   -0.80001009636459     -0.63950568038901      1.85240770050061
  N   -1.44335415071106      1.15540672886486      0.29866319342039
  O   -1.21738254129604      1.60677290769827      1.41878815027725
  O   -2.20953023877059      1.59973716430280     -0.53953864186587
  N   1.66359855566684     -0.62753719691128     -0.83256176214990
  O   1.75235211796824     -1.66504663839155     -0.17621754498857
  O   2.22268751760214     -0.40162886210034     -1.89930480175208
