14
Coordinates from ORCA-job run
  C   -0.61796265792643     -0.22530973118387     -0.20303866224085
  C   0.72799940339948     -0.03976941403161     -0.87075258828973
  F   -1.49136083382506     -0.61120143135585     -1.22083982543430
  H   0.68966930257223      0.80329980995191     -1.55701507886560
  H   1.00779010272963     -0.95664365318263     -1.38665509970473
  N   -0.56436927161150     -1.07746288607070      0.88865478145057
  H   -1.41989481044612     -1.09314433607845      1.42508940259233
  H   -0.23581727974296     -2.00220040782695      0.65036611387226
  N   -1.21019939605401      1.11545420869849      0.24442089444613
  O   -1.85775532602220      1.11864218758465      1.28411499725354
  O   -1.05763580042037      2.05157403473657     -0.52706420615553
  N   1.75871003524268      0.23660179756314      0.16399606787376
  O   2.64627800693029     -0.59885482231924      0.31172832092119
  O   1.62354852517435      1.27801464351452      0.79799488228093
