14
Coordinates from ORCA-job run
  C   -0.70107219681864     -0.26265922996948     -0.19605119660666
  C   0.57170057096166     -0.04056169915018     -0.98837756334242
  F   -1.73532959566373     -0.26693472548792     -1.09567587855100
  H   0.82483221628858     -0.96559727693736     -1.50837812802222
  H   0.43411062621576      0.76977380997991     -1.69769166659961
  N   -0.73745315864461     -1.43538939794568      0.55229909952015
  H   -1.58823463650643     -1.48147003696970      1.10004060543700
  H   0.07119986436131     -1.49204706870997      1.15716449955787
  N   -1.00044198527254      1.01993874926002      0.63818781811404
  O   -0.51718337627077      2.07472105795511      0.23996776379876
  O   -1.74676042848809      0.87193907528141      1.59829026087428
  N   1.74324703542347      0.32243316198817     -0.13974587181520
  O   2.64262476334373      0.94051468219992     -0.69156352656864
  O   1.74076030107025     -0.05566110149425      1.03153378420365
