17

C	-0.60145	-0.035887	-1.396376
C	0.0	0.0	0.0
Cl	0.060805	-1.38585	-2.360458
H	1.09323	0.0	0.0
N	-2.016314	-0.123532	-1.350201
H	-2.300419	0.616766	-0.709581
H	-2.400259	0.047933	-2.272039
N	-0.175056	1.232598	-2.190166
O	-0.87701	1.513156	-3.163947
O	0.80706	1.858046	-1.822271
N	-0.420841	-1.165524	0.763001
H	0.356795	-1.814705	0.757997
H	-1.229701	-1.609733	0.343579
N	-0.556532	1.226098	0.621532
H	0.212297	1.89171	0.648906
H	-0.750813	0.956481	1.581937
F	2.650224	0.0	0.0
