17

C	-0.115547	-0.04991	-1.532657
C	0.0	0.0	0.0
Cl	-0.120337	1.63922	-2.262573
H	1.102969	0.0	0.0
N	0.93497	-0.853668	-1.97012
H	1.045331	-0.869729	-2.973176
H	1.798071	-0.591077	-1.440238
N	-1.464206	-0.593985	-2.012962
O	-1.464116	-1.446135	-2.89938
O	-2.464029	-0.1321	-1.475869
N	-0.509829	-1.301829	0.499648
H	-0.110325	-1.395227	1.429848
H	-0.042943	-2.018268	-0.053847
N	-0.612063	1.112714	0.651895
H	-0.08059	1.337225	1.481846
H	-1.560963	0.864053	0.906433
F	2.729363	0.0	0.0
