17

C	-0.134869	0.04177	-1.535838
C	0.0	0.0	0.0
Cl	-1.770114	0.554545	-2.090395
H	1.100762	0.0	0.0
N	0.872485	0.865519	-2.1257
H	1.735366	0.610406	-1.604196
H	0.641496	1.804893	-1.814057
N	0.072819	-1.386779	-2.053443
O	-0.879808	-2.166222	-2.022617
O	1.214644	-1.684858	-2.381918
N	-0.571828	-1.128425	0.703434
H	0.114897	-1.871551	0.726318
H	-1.39674	-1.481039	0.231199
N	-0.421483	1.304043	0.490109
H	0.143616	1.490064	1.310391
H	-1.387372	1.243335	0.796031
F	2.670479	0.0	0.0
