17

C	-0.427036	-0.102729	-1.438341
C	0.0	0.0	0.0
Cl	-2.339076	-0.705986	-1.520484
H	1.098809	0.0	0.0
N	-0.25573	1.052855	-2.13037
H	-0.561502	1.042962	-3.088841
H	-0.518199	1.839337	-1.548237
N	0.193682	-1.257282	-2.206877
O	0.517136	-2.259282	-1.586038
O	0.297903	-1.10884	-3.421866
N	-0.414269	-1.072101	0.883401
H	-1.172357	-1.607014	0.484441
H	0.383175	-1.68845	0.991001
N	-0.423342	1.327046	0.47455
H	0.37632	1.694239	0.979355
H	-1.166114	1.179105	1.148174
F	2.583912	0.0	0.0
