17

C	-0.680049	-0.00415	-1.377408
C	0.0	0.0	0.0
Cl	0.124346	-1.187336	-2.417336
H	1.095021	0.0	0.0
N	-2.089526	-0.279103	-1.372975
H	-2.153923	-1.179909	-0.904603
H	-2.503865	0.412686	-0.754496
N	-0.488078	1.379782	-1.992761
O	-1.437408	2.157485	-1.892499
O	0.609549	1.66188	-2.454936
N	-0.40975	-1.240284	0.656854
H	0.428848	-1.643576	1.057174
H	-1.068487	-1.028676	1.398113
N	-0.545216	1.142902	0.772461
H	-0.201521	2.001159	0.350878
H	-0.040074	1.092203	1.653439
F	2.642475	0.0	0.0
