16

C	0.0	0.0	0.0
C	-0.441951	0.149848	-1.480672
Cl	1.840552	0.0	0.0
H	0.450716	0.379654	-2.070963
H	-0.208429	0.965402	0.469414
N	-0.579886	-1.116529	0.671651
H	-0.390664	-1.003696	1.663294
H	-1.598895	-0.910117	0.538134
N	-1.321762	1.323191	-1.551973
H	-1.619865	1.417595	-2.520881
H	-2.150478	1.03025	-0.999036
C	-1.071079	-1.127259	-2.03423
H	-1.230391	-1.006471	-3.113339
H	-2.034707	-1.256685	-1.541004
H	-0.441654	-2.005292	-1.870932
F	-2.978467	0.0	0.0
