16

C	0.0	0.0	0.0
C	-0.456032	-0.160684	-1.448273
Cl	1.868193	0.0	0.0
H	-1.547903	-0.135027	-1.283784
H	-0.272643	0.99559	0.348474
N	-0.535334	-0.970838	0.886566
H	-0.448123	-1.856965	0.392924
H	-1.554358	-0.710996	0.805084
N	-0.083828	-1.489494	-1.939701
H	-0.712232	-1.749293	-2.69012
H	0.859808	-1.466158	-2.313067
C	-0.028187	0.978406	-2.364261
H	-0.520551	0.880692	-3.337599
H	1.055349	0.979221	-2.524287
H	-0.31178	1.947915	-1.941695
F	-2.836965	0.0	0.0
