16

C	0.0	0.0	0.0
C	-0.223136	0.016907	-1.553953
Cl	1.797417	0.0	0.0
H	0.48077	-0.745842	-1.924004
H	-0.280385	0.979931	0.397651
N	-0.629789	-1.122936	0.600588
H	-0.458099	-1.084718	1.602808
H	-1.655005	-0.842465	0.44817
N	0.138344	1.361487	-2.040961
H	1.146157	1.46641	-2.030206
H	-0.163454	1.435129	-3.005605
C	-1.573057	-0.357999	-2.137292
H	-1.859277	-1.359907	-1.821682
H	-1.458123	-0.35774	-3.232587
H	-2.360629	0.301241	-1.785834
F	-2.944249	0.0	0.0
