13
Coordinates from ORCA-job run
  C   0.87344547993404     -0.51278911837405     -0.19340945264030
  C   -0.21056017167324      0.25196399058734      0.09160686552531
  C   2.19966191959825     -0.26442945566285      0.28714780439440
  N   3.31033199963244     -0.15904637321078      0.66417028456510
  C   0.71801617983097     -1.66959087876135     -1.02447499476684
  N   0.59003951276411     -2.61105220869294     -1.71945791492343
  N   -0.02460702931931      1.42443724879477      0.95934438795112
  O   0.97125604036079      2.12076140497811      0.77791359372441
  O   -0.90625910556646      1.60658123815059      1.79635612673046
  C   -1.60895901682470     -0.00314720666870     -0.33729182400119
  H   -1.65457461397998     -0.82078355175986     -1.05468403662331
  H   -2.21430425225513     -0.25874455648412      0.53560706582839
  H   -2.04348694250176      0.89583946710382     -0.78282790576410
