13
Coordinates from ORCA-job run
  C   0.89725105957097     -0.45986746678865     -0.18570823038773
  C   -0.23361152784118      0.23904955603623      0.08355361808404
  C   2.21538660362949     -0.07842946372296      0.22503713792415
  N   3.33456142264033      0.15569169717476      0.50536089158020
  C   0.81859071429829     -1.68850730472126     -0.91839921044820
  N   0.79291095640825     -2.69044824062627     -1.53673268889603
  N   -0.11260866496813      1.48067228697149      0.86581201327844
  O   -0.99082735036299      1.66506887288422      1.70551811568879
  O   0.83784677168276      2.22079793355648      0.62475223604894
  C   -1.62175391354083     -0.14801538909096     -0.27805179141460
  H   -2.10080377445603      0.66711903531262     -0.82738600305000
  H   -2.20311151605754     -0.31594905782021      0.63079711019098
  H   -1.63183078100340     -1.04718245916549     -0.89355319859899
