13
Coordinates from ORCA-job run
  C   0.90641899312126     -0.45486024053892     -0.20682229126092
  C   -0.22653334469268      0.23234395830045      0.08331298270117
  C   2.22068442300995     -0.06253176343862      0.20312171017994
  N   3.32713330389444      0.17955591051856      0.52353421256224
  C   0.81696904645567     -1.68004618654280     -0.94382563214470
  N   0.73785023283235     -2.68510782672945     -1.55135028776777
  N   -0.10242505994754      1.46983552325119      0.87063110480033
  O   0.80363303855481      2.24681410466785      0.57950744568274
  O   -0.94292145243773      1.61862494675446      1.75527141595501
  C   -1.61704680822601     -0.15209433902755     -0.26777544531153
  H   -2.11587233312576      0.68212284308494     -0.76879659155543
  H   -1.62949190375410     -1.02438308828541     -0.92031951903702
  H   -2.17839813568466     -0.36927384201472      0.64351089519592
