13
Coordinates from ORCA-job run
  C   0.89290170128097     -0.46149801277492     -0.24417138622036
  C   -0.21572201956704      0.23174037075040      0.12612846218055
  C   0.74748592261205     -1.56496362842709     -1.14743261040544
  N   0.61195895692816     -2.47268990940332     -1.88463483736956
  C   2.22711820119853     -0.20165781314429      0.20191113069185
  N   3.34977139894899     -0.07185960143068      0.53194419064153
  N   -0.06148546017383      1.35747383595318      1.06655324836812
  O   0.97329555079278      2.01575956866031      1.01221717314167
  O   -1.00592454357723      1.54383849475647      1.83283527721070
  C   -1.61131976380911     -0.04958040350013     -0.29991347177937
  H   -2.01489145028264      0.81178859283453     -0.84123613166197
  H   -2.23235323105834     -0.20760536662516      0.58345370826592
  H   -1.66083526329329     -0.93174612764930     -0.93765475306364
