13
Coordinates from ORCA-job run
  C   0.85688712345130     -0.52086578084085     -0.31299547708449
  C   -0.20522133257351      0.23290747351086      0.06681004491983
  C   1.87088372496534     -0.05879372148350     -1.21155594762865
  N   2.71298952735090      0.29353081377819     -1.95391909502380
  C   0.96717822618848     -1.86472609510316      0.17065941901127
  N   1.00776356656080     -2.96820574727098      0.57578139854257
  N   -0.30840607126423      1.59755163127107     -0.47477478279302
  O   0.68114689967169      2.32119353244763     -0.39408941329834
  O   -1.40567762418376      1.89780070153221     -0.93957254484750
  C   -1.32575463736422     -0.16853057006779      0.95390668725082
  H   -2.25171470184285     -0.20160672734240      0.37466518899324
  H   -1.14509900532262     -1.14242897702376      1.40710874204856
  H   -1.45497569563733      0.58117346659247      1.73897577990951
