13
Coordinates from ORCA-job run
  C   0.87962455380896     -0.53082181650736     -0.12558191016596
  C   -0.22634180039045      0.21415564527747      0.12312100996513
  C   0.76181473889331     -1.72613622209414     -0.90640409087929
  N   0.65981291941883     -2.70624038057292     -1.55031359002067
  C   2.19998992471105     -0.19406795190666      0.31296442776087
  N   3.31589908574264      0.02747483905012      0.61486931757485
  N   -0.06361643943999      1.45604191940996      0.89678182688980
  O   -0.68649893834693      2.42701531365329      0.47219935195150
  O   0.65684993228444      1.42242815538164      1.89132242784132
  C   -1.60825397630875     -0.05629884352129     -0.34762637031972
  H   -1.67230079990246     -1.02698812678844     -0.83797990018898
  H   -2.29872574201950     -0.03281107326600      0.49998114743318
  H   -1.91825345845116      0.72624854188432     -1.04333364784204
