13
Coordinates from ORCA-job run
  C   0.91545231890300     -0.41653096050378     -0.24288121864204
  C   -0.23458973927344      0.18270343565421      0.15409468410823
  C   2.22870453266254      0.04714976672988      0.08813356022440
  N   3.34015769756714      0.37546783972463      0.29512150132450
  C   0.85344751854213     -1.57789263636358     -1.07927730026694
  N   0.79845271593567     -2.53325098886874     -1.76462429360516
  N   -0.13410557149932      1.39027097823945      0.98930355884776
  O   -0.90235908410565      2.30322983934308      0.69343391257070
  O   0.68104742652993      1.38500625115399      1.90892399236459
  C   -1.61914068312698     -0.22127541718702     -0.19951218789880
  H   -1.62440197728619     -1.16205021368981     -0.74889732796301
  H   -2.08488653846045      0.55946596098300     -0.80455677140424
  H   -2.21677861638840     -0.33029385521531      0.70973789034000
