13
Coordinates from ORCA-job run
  C   0.92125057320849     -0.39832673190323     -0.25183734685190
  C   -0.23644633714885      0.21691469543702      0.09597061040302
  C   2.22698774558669      0.07472356364353      0.09521620083747
  N   3.33083898350955      0.38473905305770      0.36148797930101
  C   0.87325539923757     -1.62421630228509     -0.99163211680874
  N   0.83121733125928     -2.62923565198253     -1.60299464331175
  N   -0.15048434275911      1.45817032202233      0.88270718660383
  O   -0.95298057817953      1.55165694016118      1.80917681985124
  O   0.68787799261410      2.29203244587197      0.54932436767141
  C   -1.61617928955705     -0.25138728733973     -0.18934233626563
  H   -2.11604330433515     -0.51136708234133      0.74626511794246
  H   -2.19119716704278      0.55369877920644     -0.65499387494529
  H   -1.60709700639322     -1.11740274354825     -0.85034796442712
