13
Coordinates from ORCA-job run
  C   0.89592340081364     -0.45311384880039     -0.27816371464443
  C   -0.22610912999735      0.15169055450193      0.18311274978185
  C   0.78698681077178     -1.49487372357687     -1.25656763324100
  N   0.68458482051492     -2.33509275238035     -2.07521389637072
  C   2.21662023602610     -0.04476161087395      0.08712730661133
  N   3.31862873537018      0.29790185570872      0.31963727821092
  N   -0.05848950493014      1.26130424217539      1.13083865405420
  O   0.55652345770737      1.02802019064662      2.16854639161747
  O   -0.56590990035342      2.32709728389622      0.79366610103502
  C   -1.63152421465584     -0.13886798199904     -0.19971098089611
  H   -1.70097238881421     -1.06691710782926     -0.76571497842223
  H   -2.02349602306392      0.68338811390118     -0.80347079413970
  H   -2.25476629938914     -0.21577521537020      0.69591351640340
