13
Coordinates from ORCA-job run
  C   0.80340579611504     -0.56481262939701     -0.32701656975620
  C   -0.19353524853622      0.26332371474157      0.07319483230070
  C   0.84267399859340     -1.90910350993118      0.16651153738428
  N   0.87076121100974     -3.01218860101404      0.57628479609378
  C   1.83188035644012     -0.20574983896634     -1.25576942728037
  N   2.69289645449641      0.00495441959770     -2.03018146990772
  N   -0.22197199861577      1.62780617558961     -0.47814261288240
  O   -1.33069791957379      2.03741877728672     -0.81596422712653
  O   0.83989070337693      2.24240571706432     -0.54299036430504
  C   -1.31543995509926     -0.06870460362327      0.98719112850332
  H   -1.37299308593586      0.67379161602480      1.78791117085716
  H   -2.25850805994969     -0.03097310639704      0.43770499693582
  H   -1.18636225232105     -1.05916813097583      1.42226620918322
