13
Coordinates from ORCA-job run
  C   0.88325331549812     -0.51446047559123     -0.16037478838311
  C   -0.22623602754674      0.20807882152218      0.13440249218803
  C   0.76131488429388     -1.69768054169616     -0.95879061801756
  N   0.65574154192863     -2.66964433242893     -1.61437854451320
  C   2.21100766409912     -0.16296048877944      0.24309232934535
  N   3.33263129544922      0.07183812858795      0.51236053074965
  N   -0.05968773506074      1.43758202049502      0.92640344972489
  O   0.69030567338888      1.39647111463431      1.89871611600060
  O   -0.70902771066469      2.40664677482325      0.53880247852839
  C   -1.61687747881769     -0.07499647113717     -0.30167873605005
  H   -1.68073356514819     -1.03844248033389     -0.80631222298071
  H   -1.95748781942122      0.71323632326723     -0.97648453407653
  H   -2.28320403799858     -0.07566839336311      0.56524204748424
