13
Coordinates from ORCA-job run
  C   0.83115136590564     -0.54856545177729     -0.29658405821934
  C   -0.23842501505164      0.22419483987164      0.01232294582337
  C   1.91462412595158     -0.11674785697294     -1.12569584367323
  N   2.84247550455585      0.19202734295895     -1.78044835155961
  C   0.93834837752908     -1.86226296397705      0.26398966088222
  N   1.01175890144862     -2.94089792206672      0.72754561999111
  N   -0.29188544913882      1.57892280480233     -0.56178692565648
  O   -0.12284037671295      1.69272079459350     -1.77260712263106
  O   -0.52443194825367      2.48077934784938      0.24052964979297
  C   -1.37178473920887     -0.12119139893887      0.90583358254796
  H   -1.42735899384595      0.60922028475763      1.71360452168971
  H   -1.25274226026633     -1.11801125404580      1.32420417983399
  H   -2.31088949291254     -0.07018856705476      0.34909214117841
