13
Coordinates from ORCA-job run
  C   0.87771699266664     -0.49127913734417     -0.24319850617368
  C   -0.25045182647936      0.22247175316471     -0.00257745621741
  C   0.98971530637423     -1.82475581406205      0.26867505803598
  N   1.07619330122683     -2.92016374369937      0.69064652194132
  C   2.01202846326128      0.00202416766660     -0.96379373118092
  N   2.99024962850915      0.34142461750913     -1.52344775855477
  N   -0.32033297395803      1.59999572327899     -0.51656162666781
  O   0.07689768818141      1.80617447538489     -1.66063635240830
  O   -0.79298262537548      2.42905226733888      0.25836376686335
  C   -1.43508978459050     -0.21813516132842      0.77661203850542
  H   -1.52793557534502      0.38948857511775      1.67928361027097
  H   -2.34277957792368     -0.06931275376586      0.18526640974759
  H   -1.35322901654748     -1.26898496926107      1.05236802583825
