13
Coordinates from ORCA-job run
  C   0.80489639095608     -0.57140562841613     -0.30875716882060
  C   -0.22884043604809      0.24434006916514      0.01634768517002
  C   0.85222867068947     -1.89794171670463      0.23020916764744
  N   0.88521774133268     -2.99010798603731      0.66746389865975
  C   1.90034053212333     -0.19643759831837     -1.15062920116652
  N   2.84205890307297      0.04028303864979     -1.81611620497511
  N   -0.23142939127386      1.60976324363360     -0.53297519729391
  O   -0.55346729433670      2.49533995349588      0.25656187344391
  O   0.06873032310691      1.75319103202263     -1.71575764848000
  C   -1.36508531330786     -0.07238731307266      0.91812344483978
  H   -1.35042891649735     -1.12109064383858      1.21303805363702
  H   -2.30960888686232      0.14819770487955      0.41325179448975
  H   -1.31461232295526      0.55825584454109      1.80823950284847
