13
Coordinates from ORCA-job run
  C   0.87539187352075     -0.47043422164415     -0.28862745365117
  C   -0.21372470630480      0.23600671608905      0.10458405038931
  C   0.69782100061514     -1.68121126424986     -1.03353931439617
  N   0.54617659532948     -2.67418450510066     -1.64700083508509
  C   2.22752731407954     -0.11398629635186      0.01827882899114
  N   3.36151819373015      0.09798400921433      0.25140697401514
  N   0.00383493059721      1.45709531914995      0.89772898469369
  O   0.90073380445081      2.21890311353196      0.54442339127702
  O   -0.75712022391999      1.60892318728373      1.85115168908458
  C   -1.63687351051003     -0.11267860433777     -0.13520240519706
  H   -2.15596090949306      0.73906156858610     -0.58348920026310
  H   -1.72326021170693     -0.97571592350958     -0.79455906750487
  H   -2.12606415038828     -0.32976309866123      0.81684435764659
