18

C	-0.477971	0.025285	-1.445264
C	0.0	0.0	0.0
Br	0.420744	1.859135	-2.243598
H	1.08807	0.0	0.0
N	0.019096	-1.054483	-2.165979
H	-0.099064	-0.945288	-3.16387
H	0.993572	-1.227909	-1.938143
N	-1.870897	0.189387	-1.579725
H	-2.143205	0.163175	-2.554711
H	-2.152998	1.081714	-1.195092
N	-0.42582	-1.333946	0.576461
O	-1.452538	-1.375098	1.257753
O	0.28957	-2.302187	0.337414
C	-0.531685	1.105589	0.884794
H	-0.100304	0.994541	1.88112
H	-1.617461	1.064928	0.980315
H	-0.213572	2.067199	0.485432
Cl	3.305693	0.0	0.0
