16

C	0.0	0.0	0.0
C	-0.19703	-0.001707	-1.598747
Br	1.955654	0.0	0.0
H	0.533597	-0.760419	-1.91518
C	-0.479769	1.197646	0.672707
N	-0.606626	2.198202	1.279063
C	-0.457741	-1.241007	0.609924
N	-0.579173	-2.31432	1.0788
N	0.193749	1.321439	-2.064922
H	-0.425208	1.62148	-2.801795
H	1.14419	1.340757	-2.395302
C	-1.513215	-0.404053	-2.234067
H	-1.910795	-1.317521	-1.805249
H	-2.264928	0.361899	-2.091474
H	-1.296184	-0.557946	-3.304438
F	-2.307065	0.0	0.0
