16

C	0.0	0.0	0.0
C	-0.370085	0.441944	-1.526661
Br	1.968011	0.0	0.0
H	0.581421	0.769064	-1.953373
C	-0.414357	1.0247	0.951887
N	-0.545905	1.934353	1.685655
C	-0.439372	-1.328829	0.406378
N	-0.614488	-2.445975	0.731067
N	-1.301568	1.530176	-1.643842
H	-2.092483	1.214112	-1.05565
H	-0.896121	2.362384	-1.226191
C	-0.876259	-0.77269	-2.286583
H	-1.824239	-1.062036	-1.834102
H	-0.171924	-1.609268	-2.246101
H	-1.032525	-0.479128	-3.326794
F	-2.456708	0.0	0.0
