16

C	0.0	0.0	0.0
C	-0.52902	0.275112	-1.472452
Br	1.959189	0.0	0.0
H	-1.343676	0.978355	-1.295721
C	-0.401178	1.100187	0.87769
N	-0.527384	2.063957	1.539707
C	-0.419118	-1.283741	0.559987
N	-0.582848	-2.319714	1.090497
N	-1.059995	-0.990077	-1.96673
H	-1.334696	-0.850906	-2.934979
H	-1.917565	-1.056648	-1.402047
C	0.472147	0.863983	-2.451586
H	-0.085099	1.144547	-3.353215
H	1.239559	0.140818	-2.733172
H	0.95069	1.76566	-2.065282
F	-2.497429	0.0	0.0
