16

C	0.0	0.0	0.0
C	-0.400623	-0.233885	-1.522274
Br	1.966823	0.0	0.0
H	-1.486366	-0.136304	-1.433139
C	-0.443287	1.298783	0.493526
N	-0.579545	2.41181	0.850751
C	-0.455259	-1.105575	0.833913
N	-0.585724	-2.080111	1.480865
N	-0.0806	-1.562658	-1.997519
H	0.899322	-1.775007	-1.839708
H	-0.635875	-2.239507	-1.486251
C	0.176631	0.821583	-2.4486
H	0.030809	1.82857	-2.049898
H	1.242031	0.672234	-2.642519
H	-0.352824	0.745644	-3.401358
F	-2.425925	0.0	0.0
