16

C	0.0	0.0	0.0
C	-0.368913	0.083494	-1.588492
Br	1.966808	0.0	0.0
H	0.58054	0.320889	-2.075725
C	-0.414712	1.215707	0.691396
N	-0.575205	2.255856	1.216687
C	-0.446641	-1.198525	0.698338
N	-0.607829	-2.219912	1.259683
N	-1.316014	1.100161	-1.951718
H	-0.927207	2.016223	-1.754189
H	-2.10278	0.925534	-1.302375
C	-0.855371	-1.280121	-2.050092
H	-0.148154	-2.077277	-1.805392
H	-0.998289	-1.246335	-3.133037
H	-1.807684	-1.463616	-1.55279
F	-2.464323	0.0	0.0
