16

C	0.0	0.0	0.0
C	-0.421812	-0.079172	-1.505767
Br	1.969268	0.0	0.0
H	-1.499028	-0.250274	-1.376383
C	-0.454168	1.215735	0.667825
N	-0.587587	2.258776	1.195932
C	-0.415281	-1.203497	0.719492
N	-0.567744	-2.214239	1.299924
N	0.221006	-1.230241	-2.119802
H	-0.426299	-1.66732	-2.76077
H	1.05529	-0.963745	-2.628089
C	-0.192081	1.243648	-2.221514
H	0.863812	1.535798	-2.222116
H	-0.780833	2.038833	-1.760146
H	-0.518484	1.138615	-3.260705
F	-2.461507	0.0	0.0
