16

C	0.0	0.0	0.0
C	-0.384801	0.098181	-1.543409
Br	1.963141	0.0	0.0
H	0.557417	0.254692	-2.074883
C	-0.416806	1.161647	0.787077
N	-0.558195	2.105846	1.473463
C	-0.424559	-1.234223	0.658102
N	-0.598051	-2.261545	1.202768
N	-1.194512	1.289045	-1.745504
H	-1.440977	1.331919	-2.729049
H	-2.037464	1.07281	-1.186177
C	-1.002647	-1.209187	-2.034119
H	-1.181471	-1.128348	-3.112712
H	-1.944202	-1.333242	-1.49873
H	-0.3431	-2.067686	-1.867254
F	-2.494925	0.0	0.0
