15

C	0.0	0.0	0.0
C	-0.475035	-0.342621	-1.401223
F	1.414587	0.0	0.0
H	-1.546733	-0.123207	-1.433538
H	0.057951	0.321386	-2.087707
C	-0.339353	1.404761	0.333281
N	-0.466958	2.551064	0.547076
N	-0.51121	-0.864322	0.97752
H	-0.30357	-0.57048	1.919974
H	-0.248522	-1.824299	0.823136
C	-0.212283	-1.801429	-1.762366
H	-0.377115	-1.955654	-2.832682
H	-0.90292	-2.458696	-1.231616
H	0.818695	-2.091828	-1.536971
Br	-4.016736	0.0	0.0
