15

C	0.0	0.0	0.0
C	-0.462077	0.078862	-1.445723
F	1.403823	0.0	0.0
H	0.029234	0.952309	-1.88456
H	-1.540119	0.254573	-1.436691
C	-0.307806	1.277479	0.714087
N	-0.456504	2.283592	1.301765
N	-0.495895	-1.163629	0.652634
H	-1.509948	-1.159307	0.504551
H	-0.352967	-1.082583	1.654531
C	-0.11785	-1.183021	-2.227743
H	0.946122	-1.415753	-2.145881
H	-0.685569	-2.036217	-1.856688
H	-0.363062	-1.042511	-3.284278
Br	-3.769665	0.0	0.0
