15

C	0.0	0.0	0.0
C	-0.467231	0.088743	-1.442305
F	1.388186	0.0	0.0
H	-1.558992	0.048585	-1.435356
H	-0.088192	-0.820859	-1.919336
C	-0.330362	1.248114	0.754596
N	-0.495455	2.242082	1.358267
N	-0.48981	-1.191481	0.61011
H	-1.505614	-1.186753	0.471137
H	-0.326152	-1.155382	1.610877
C	0.031494	1.336134	-2.160121
H	-0.405205	2.237522	-1.724059
H	-0.260166	1.303398	-3.212877
H	1.119641	1.418346	-2.109154
Br	-3.764773	0.0	0.0
