15

C	0.0	0.0	0.0
C	-0.472712	0.040757	-1.444354
F	1.38744	0.0	0.0
H	0.022834	0.898169	-1.911333
H	-1.549449	0.226187	-1.431635
C	-0.322326	1.294475	0.677756
N	-0.492195	2.328597	1.208504
N	-0.494866	-1.147991	0.682101
H	-0.318803	-1.055734	1.676824
H	-1.512616	-1.14799	0.55366
C	-0.145758	-1.246778	-2.191926
H	-0.732129	-2.07866	-1.803031
H	-0.38039	-1.129342	-3.253207
H	0.912831	-1.498825	-2.096957
Br	-3.772442	0.0	0.0
