15

C	0.0	0.0	0.0
C	-0.406324	0.571499	-1.356511
F	1.386192	0.0	0.0
H	-0.269612	-0.254074	-2.063691
H	0.354503	1.323157	-1.586156
C	-0.33635	0.945788	1.104598
N	-0.546095	1.660042	2.013272
N	-0.51053	-1.314371	0.202952
H	-1.497702	-1.325219	-0.045009
H	-0.439819	-1.580462	1.17873
C	-1.79777	1.18079	-1.463191
H	-2.611343	0.510737	-1.180349
H	-1.891262	2.062838	-0.826588
H	-1.967798	1.490353	-2.4975
Br	-4.8497	0.0	0.0
