15

C	0.0	0.0	0.0
C	-0.324589	0.50987	-1.411528
F	1.386523	0.0	0.0
H	-0.123247	-0.349054	-2.061267
H	0.457166	1.248387	-1.613077
C	-0.346626	1.009329	1.041727
N	-0.564654	1.778866	1.901707
N	-0.536717	-1.293237	0.247239
H	-1.52513	-1.282046	-0.006492
H	-0.486297	-1.519104	1.234044
C	-1.686285	1.118087	-1.697498
H	-1.722214	1.383727	-2.758812
H	-1.851387	2.02394	-1.110757
H	-2.523051	0.457797	-1.479624
Br	-4.518743	0.0	0.0
