15

C	0.0	0.0	0.0
C	-0.392516	-0.314846	-1.441311
F	1.411378	0.0	0.0
H	-0.26725	-1.398136	-1.544515
H	0.378497	0.15853	-2.056327
C	-0.319816	1.411666	0.353934
N	-0.546648	2.522452	0.661142
N	-0.514142	-0.953729	0.918623
H	-0.474096	-0.603944	1.868821
H	-1.492092	-1.131001	0.697305
C	-1.775171	0.140169	-1.882705
H	-2.596159	-0.263547	-1.288164
H	-1.935317	-0.157589	-2.922595
H	-1.867095	1.227688	-1.828558
Br	-4.792524	0.0	0.0
