15

C	0.0	0.0	0.0
C	-0.405023	0.292337	-1.447767
F	1.386056	0.0	0.0
H	0.406016	0.906041	-1.849332
H	-0.364495	-0.67267	-1.964446
C	-0.335056	1.145212	0.896674
N	-0.537477	2.017937	1.657561
N	-0.519065	-1.245618	0.454893
H	-1.497487	-1.309246	0.179021
H	-0.48474	-1.306056	1.465878
C	-1.743104	0.986961	-1.654177
H	-1.736275	1.982426	-1.202649
H	-1.929257	1.113719	-2.725309
H	-2.594197	0.453881	-1.227448
Br	-4.765043	0.0	0.0
