18

C	-0.408726	0.021176	-1.474585
C	0.0	0.0	0.0
F	-0.073119	-1.308171	-1.903276
H	1.096427	0.0	0.0
N	-1.810232	0.217384	-1.609252
H	-2.258504	-0.459966	-0.998823
H	-2.09248	0.041491	-2.566665
C	0.455531	0.922706	-2.324014
H	0.363731	0.620873	-3.372258
H	1.483052	0.786879	-1.975529
H	0.160066	1.961717	-2.206764
N	-0.625532	-1.153293	0.643648
H	-0.594397	-0.986461	1.641892
H	-0.000778	-1.926193	0.446483
N	-0.434697	1.233217	0.689581
O	-0.21238	2.311752	0.144178
O	-0.93317	1.133604	1.817155
F	2.606808	0.0	0.0
