18

C	-0.347837	0.034148	-1.501109
C	0.0	0.0	0.0
F	-0.019508	-1.257585	-1.960723
H	1.090318	0.0	0.0
N	-1.758486	0.195453	-1.733361
H	-2.193005	0.750912	-1.008721
H	-1.934284	0.616341	-2.635981
C	0.588343	0.969117	-2.241278
H	0.330141	2.011044	-2.046813
H	0.521876	0.769561	-3.316117
H	1.597043	0.774662	-1.859626
N	-0.542786	-1.108624	0.721888
H	-1.356885	-1.48736	0.255395
H	0.180764	-1.814046	0.745146
N	-0.506033	1.286268	0.584124
O	0.201641	2.287418	0.481505
O	-1.63485	1.297298	1.091982
F	2.630669	0.0	0.0
