18

C	-0.155108	0.020498	-1.531736
C	0.0	0.0	0.0
F	-1.472667	0.366473	-1.892309
H	1.091518	0.0	0.0
N	0.750783	0.959398	-2.158899
H	0.483335	1.884509	-1.840902
H	1.648921	0.780641	-1.688815
C	0.157599	-1.361574	-2.060556
H	-0.548253	-2.099054	-1.683457
H	1.164101	-1.614578	-1.715903
H	0.137778	-1.316206	-3.151688
N	-0.553007	-1.141723	0.650374
H	-0.067536	-1.280417	1.527301
H	-1.532218	-0.992109	0.857553
N	-0.501136	1.289793	0.605989
O	-1.304422	1.215813	1.54346
O	-0.088522	2.36376	0.162455
F	2.616761	0.0	0.0
