18

C	-0.276956	-0.0406	-1.520015
C	0.0	0.0	0.0
F	-0.200734	1.277475	-1.990429
H	1.09498	0.0	0.0
N	0.786299	-0.777235	-2.149046
H	0.61755	-1.762577	-1.980358
H	1.649708	-0.542774	-1.631206
C	-1.645177	-0.556473	-1.906931
H	-2.418545	0.072548	-1.461405
H	-1.735008	-0.520293	-2.993896
H	-1.776362	-1.582957	-1.560234
N	-0.461854	-1.209575	0.621819
H	0.133724	-1.400368	1.417959
H	-1.416487	-1.095524	0.942268
N	-0.598338	1.229335	0.613079
O	0.03496	2.278125	0.567281
O	-1.732205	1.126871	1.112082
F	2.641088	0.0	0.0
