18

C	-0.412431	0.078142	-1.480031
C	0.0	0.0	0.0
F	-0.192963	-1.241639	-1.929358
H	1.094541	0.0	0.0
N	-1.805978	0.343757	-1.733245
H	-1.963418	1.331693	-1.578429
H	-2.335037	-0.169073	-1.032349
C	0.532536	0.952294	-2.273941
H	1.540915	0.744437	-1.903202
H	0.310746	2.007988	-2.124317
H	0.434083	0.698889	-3.331894
N	-0.63173	-1.157816	0.62906
H	-0.179633	-1.956278	0.200491
H	-0.342948	-1.150153	1.600548
N	-0.425909	1.200684	0.74604
O	-0.546535	2.276467	0.149237
O	-0.583854	1.086337	1.964198
F	2.610617	0.0	0.0
