18

C	-0.131643	-0.064346	-1.522732
C	0.0	0.0	0.0
F	-1.466773	-0.003829	-1.962039
H	1.092874	0.0	0.0
N	0.581527	1.074003	-2.038751
H	1.476093	1.080806	-1.537142
H	0.778329	0.921494	-3.022121
C	0.449252	-1.39039	-1.989328
H	0.474297	-1.408613	-3.083113
H	1.465799	-1.432913	-1.587895
H	-0.135873	-2.244243	-1.641456
N	-0.582499	-1.064794	0.758329
H	-1.434497	-1.407084	0.334681
H	0.094479	-1.807546	0.850752
N	-0.572537	1.293881	0.477501
O	-1.788812	1.317754	0.682532
O	0.175846	2.257716	0.624348
F	2.656966	0.0	0.0
