18

C	0.0	0.0	0.0
C	-0.484734	-0.141848	-1.450891
Cl	1.798624	0.0	0.0
H	-1.567205	0.006034	-1.330863
C	-0.436776	1.348566	0.557367
H	-0.07518	1.453828	1.586153
H	-1.530846	1.310747	0.532836
H	-0.050981	2.166158	-0.051128
N	-0.556583	-1.112707	0.734984
H	-1.581279	-0.914542	0.609435
H	-0.33904	-0.978188	1.7177
N	-0.148583	-1.482836	-1.957563
H	-0.915685	-1.783312	-2.551999
H	-0.155762	-2.097923	-1.147609
N	0.059221	0.908574	-2.300323
H	-0.52745	0.96823	-3.124572
H	0.969752	0.582817	-2.610089
F	-2.941715	0.0	0.0
