18

C	0.0	0.0	0.0
C	-0.572087	-0.027773	-1.451628
Cl	1.88525	0.0	0.0
H	0.271536	-0.033796	-2.149132
C	-0.406674	1.212879	0.811836
H	-1.496085	1.14126	0.874698
H	-0.099577	2.141329	0.335568
H	0.033686	1.142857	1.811388
N	-0.380812	-1.167076	0.708811
H	0.159968	-1.276538	1.554449
H	-0.334982	-1.980752	0.1108
N	-1.356627	1.184175	-1.680578
H	-2.213835	1.00303	-1.119169
H	-1.628492	1.171848	-2.659715
N	-1.322627	-1.279824	-1.611977
H	-1.637222	-1.30823	-2.576982
H	-2.159449	-1.099828	-1.018043
F	-3.120939	0.0	0.0
