18

C	0.0	0.0	0.0
C	-0.464509	0.254901	-1.494154
Cl	1.837134	0.0	0.0
H	0.444492	0.364254	-2.092027
C	-0.369196	1.121725	0.967601
H	-1.457641	1.115754	1.03742
H	-0.014995	2.090775	0.620668
H	0.068971	0.900964	1.947121
N	-0.479113	-1.286107	0.445656
H	-1.502331	-1.125893	0.425877
H	-0.208789	-1.387727	1.419966
N	-1.211089	1.502816	-1.562197
H	-1.496711	1.586328	-2.533189
H	-2.06286	1.288745	-1.028103
N	-1.249384	-0.831514	-2.076999
H	-0.792406	-1.708774	-1.849506
H	-2.1191	-0.809056	-1.5351
F	-2.914639	0.0	0.0
