18

C	0.0	0.0	0.0
C	-0.324485	0.072873	-1.514506
Cl	1.890453	0.0	0.0
H	0.424439	-0.577995	-2.004478
C	-0.551261	1.13565	0.81708
H	-1.64023	1.033828	0.688293
H	-0.199553	2.100305	0.458487
H	-0.289705	1.004266	1.87211
N	-0.441341	-1.233227	0.50897
H	-0.059498	-1.449565	1.41759
H	-0.341326	-1.994547	-0.145308
N	-0.116066	1.468716	-1.960524
H	0.884309	1.652035	-1.968486
H	-0.429555	1.518868	-2.924333
N	-1.635166	-0.442385	-1.776074
H	-1.981445	-0.043032	-2.641608
H	-2.370838	-0.251418	-0.998922
F	-3.383636	0.0	0.0
