18

C	0.0	0.0	0.0
C	-0.302935	-0.165935	-1.553625
Cl	1.793686	0.0	0.0
H	0.483617	0.418584	-2.047607
C	-0.461957	1.368169	0.476311
H	-1.555166	1.327322	0.449184
H	-0.114333	1.547268	1.499029
H	-0.078354	2.168714	-0.16343
N	-0.597807	-1.078952	0.741317
H	-0.39479	-0.947628	1.728339
H	-1.615809	-0.892007	0.605098
N	-1.5647	0.33674	-2.057576
H	-2.314793	0.127662	-1.363845
H	-1.507304	1.348475	-2.111607
N	-0.130199	-1.575245	-1.899916
H	-0.352818	-2.123065	-1.074829
H	-0.829501	-1.761171	-2.608947
F	-3.091147	0.0	0.0
