18

C	0.0	0.0	0.0
C	-0.227377	0.039406	-1.576295
Cl	1.80779	0.0	0.0
H	0.53004	0.743751	-1.944921
C	-0.459972	1.284262	0.670089
H	-1.553598	1.258181	0.624412
H	-0.128398	1.300063	1.714316
H	-0.070797	2.168351	0.159751
N	-0.594116	-1.189837	0.544556
H	-1.61233	-0.983295	0.428124
H	-0.41531	-1.213719	1.544067
N	-1.530204	0.495903	-1.992019
H	-2.251831	0.307941	-1.26603
H	-1.752344	-0.042437	-2.820308
N	0.088887	-1.252986	-2.198751
H	-0.38269	-1.957881	-1.637673
H	1.082286	-1.434337	-2.088298
F	-3.094791	0.0	0.0
