18

C	0.0	0.0	0.0
C	-0.251413	0.317445	-1.530613
Cl	1.808252	0.0	0.0
H	0.397995	-0.403478	-2.060793
C	-0.513298	1.078643	0.92536
H	-1.604161	1.056616	0.823071
H	-0.232107	0.831897	1.95234
H	-0.119219	2.051617	0.642433
N	-0.550359	-1.261109	0.403525
H	-1.568423	-1.065998	0.406425
H	-0.375704	-1.942368	-0.33087
N	0.13551	1.702922	-1.819934
H	-0.262468	1.905895	-2.727662
H	1.143271	1.78748	-1.866089
N	-1.590546	0.13549	-2.034729
H	-1.69804	-0.837697	-2.293138
H	-2.298592	0.275462	-1.273911
F	-3.143292	0.0	0.0
