18

C	0.0	0.0	0.0
C	-0.259514	0.117133	-1.552491
Cl	1.818961	0.0	0.0
H	0.413988	-0.640542	-1.982229
C	-0.486422	1.192835	0.797574
H	-0.195439	1.077484	1.847944
H	-1.578869	1.157558	0.711234
H	-0.096362	2.129364	0.403251
N	-0.551491	-1.256401	0.437947
H	-0.359616	-1.35325	1.432364
H	-1.57124	-1.069934	0.357597
N	0.085471	1.47281	-1.99801
H	1.092479	1.571313	-2.061649
H	-0.311929	1.548182	-2.927131
N	-1.584481	-0.172098	-2.040896
H	-2.302013	0.094316	-1.329226
H	-1.665339	-1.180153	-2.098327
F	-3.127059	0.0	0.0
