15

C	-0.534835	0.028133	-1.417548
C	0.0	0.0	0.0
F	-0.123363	-1.054948	-2.124315
H	1.095829	0.0	0.0
H	-1.62635	0.085653	-1.472533
N	-0.067265	1.266965	-2.155498
O	-0.719578	2.284483	-1.916312
O	0.873418	1.173002	-2.928017
C	-0.491481	-1.226043	0.607516
N	-0.902295	-2.207394	1.109612
C	-0.403624	1.215799	0.836019
H	-1.48078	1.407568	0.828968
H	-0.074814	1.045327	1.862727
H	0.120481	2.098476	0.468258
H	2.68627	0.0	0.0
