15

C	-0.347777	-0.084619	-1.465976
C	0.0	0.0	0.0
F	0.007636	1.060967	-2.107635
H	1.096587	0.0	0.0
H	0.128375	-0.938891	-1.951084
N	-1.834722	-0.257899	-1.680143
O	-2.535147	0.751558	-1.697081
O	-2.237778	-1.416214	-1.776781
C	-0.452665	-1.18838	0.699777
N	-0.7928	-2.137811	1.305413
C	-0.469508	1.283209	0.67704
H	-0.037916	1.317288	1.679732
H	-1.557272	1.3597	0.74741
H	-0.084635	2.137996	0.119738
H	2.654826	0.0	0.0
