15

C	-0.343519	-0.043393	-1.469241
C	0.0	0.0	0.0
F	-0.012384	1.130294	-2.071901
H	1.096588	0.0	0.0
H	0.154558	-0.869366	-1.980023
N	-1.824297	-0.2441	-1.693228
O	-2.199794	-1.408529	-1.830138
O	-2.548428	0.749291	-1.6778
C	-0.4503	-1.209403	0.664343
N	-0.787424	-2.174982	1.245609
C	-0.475561	1.261151	0.71275
H	-0.061523	1.259382	1.723387
H	-1.564136	1.339545	0.767185
H	-0.077904	2.132675	0.191514
H	2.655379	0.0	0.0
