12

C	-0.52747	-0.068494	-1.421811
C	0.0	0.0	0.0
Br	-0.396664	1.721323	-2.223416
H	1.08822	0.0	0.0
H	-1.591116	-0.310169	-1.445462
H	-0.331181	0.895957	0.520132
C	0.167651	-1.007867	-2.29956
N	0.672322	-1.721043	-3.084942
N	-0.445755	-1.146112	0.752678
O	-0.397564	-1.07321	1.98796
O	-0.737899	-2.181362	0.122051
H	2.533405	0.0	0.0
