12

C	-0.449097	-0.004239	-1.430393
C	0.0	0.0	0.0
Br	-2.430189	0.006076	-1.619318
H	1.09331	0.0	0.0
H	-0.134902	-0.930073	-1.911821
H	-0.357871	0.853796	0.571109
C	0.054734	1.15053	-2.15849
N	0.440684	2.084999	-2.756346
N	-0.412113	-1.210981	0.677117
O	-0.386748	-2.270635	0.033244
O	-0.646953	-1.137635	1.890529
H	2.533703	0.0	0.0
