12

C	-0.398479	0.038855	-1.461434
C	0.0	0.0	0.0
Br	0.000488	-1.709252	-2.254939
H	1.091379	0.0	0.0
H	0.237454	0.755762	-1.983975
H	-0.399815	-0.84853	0.549726
C	-1.804909	0.332729	-1.705431
N	-2.93892	0.569416	-1.905212
N	-0.395023	1.222774	0.662825
O	-0.431937	2.257433	-0.025623
O	-0.532709	1.196417	1.892283
H	2.542898	0.0	0.0
