12

C	-0.401733	-0.027509	-1.444038
C	0.0	0.0	0.0
Br	-2.363864	-0.141617	-1.720095
H	1.093299	0.0	0.0
H	-0.002559	-0.92746	-1.912841
H	-0.374791	0.857852	0.553043
C	0.063354	1.162136	-2.146066
N	0.401278	2.121436	-2.734464
N	-0.401369	-1.207858	0.685002
O	-0.370562	-2.270157	0.046088
O	-0.622013	-1.130954	1.900924
H	2.534317	0.0	0.0
