18
Coordinates from ORCA-job run
  C   -0.79341161386255      0.09685222004836      0.06988975040668
  C   0.68902497156927      0.49181174821727     -0.03767594714565
  Br  -1.77568479380929      1.81718283920954     -0.52452297453763
  H   0.83349302473155      1.41796011171594      0.51737495331900
  C   -1.25198144478811     -0.13765568138692      1.49737961235341
  H   -2.33858086186876     -0.23846794498638      1.52511204870401
  H   -0.96499630087456      0.69037497243906      2.14392947453572
  H   -0.80277833842224     -1.05925534979504      1.87389880842366
  N   -1.10237290478632     -1.00245316281720     -0.74060979087196
  H   -0.90162304999848     -0.86084935302645     -1.72066071676282
  H   -2.05772631530878     -1.31281982400486     -0.62384674480004
  C   1.24480844714927      0.58735177741273     -1.44346344358556
  H   2.28190967169390      0.92641085097206     -1.40675044908402
  H   0.66790234700721      1.30797606568350     -2.02325354237822
  H   1.23361436253313     -0.38577957799774     -1.93299688051461
  N   1.48674996202265     -0.52785958667199      0.74118744674541
  O   1.73609853929943     -0.24529697609299      1.91348388120799
  O   1.81455429771270     -1.56448312891889      0.17152451398464
