18
Coordinates from ORCA-job run
  C   -0.76062170231857      0.06171042109202      0.25413625550552
  C   0.64428661825804      0.13569613634743     -0.35518248018694
  Br  -0.62813156971936     -0.14672179682596      2.27118733775207
  H   0.49669732468747      0.01325445695608     -1.43206980857738
  C   -1.45934637792952     -1.20145509007478     -0.23092355376810
  H   -2.45538630984807     -1.26057504674768      0.21209396435044
  H   -1.56147184352515     -1.15712956949758     -1.31880677461344
  H   -0.91891738443499     -2.10249595452616      0.05292585375868
  N   -1.52103497006901      1.19356354331173     -0.12857831309609
  H   -1.16876647401185      2.04203123883333      0.29575752174337
  H   -2.49550175823580      1.07597524692168      0.11803294254491
  C   1.68111376444571     -0.85657593144349      0.14690593799816
  H   2.55932168427856     -0.81074295788332     -0.49853458169390
  H   1.28656257705589     -1.87223620319966      0.12378236574663
  H   1.97331507998591     -0.62307724715527      1.17030921308335
  N   1.26792376760444      1.50358893500318     -0.25310166714001
  O   2.11506848993878      1.75925082094484     -1.10398478479219
  O   0.94588908383751      2.24393899794362      0.67405057138493
