14

C	-0.386208	-0.107129	-1.479014
C	0.0	0.0	0.0
Br	-0.134042	1.719718	-2.341664
H	1.092219	0.0	0.0
H	-1.451609	-0.276596	-1.624873
N	0.410257	-1.122821	-2.02325
H	0.259014	-1.258729	-3.01215
H	1.397512	-0.97387	-1.818467
C	-0.512988	-1.168229	0.707604
N	-0.942986	-2.098571	1.281515
N	-0.593754	1.214871	0.641033
O	-1.821349	1.295607	0.588998
O	0.162463	2.022183	1.162848
Cl	3.231059	0.0	0.0
