14

C	-0.476552	-0.019219	-1.444032
C	0.0	0.0	0.0
Br	-2.569624	0.259525	-1.388401
H	1.095391	0.0	0.0
H	-0.45816	-1.040368	-1.816963
N	0.191832	0.846296	-2.278396
H	0.30368	1.777977	-1.912014
H	-0.100762	0.814113	-3.241714
C	-0.496002	-1.154028	0.732777
N	-0.853572	-2.129088	1.280688
N	-0.383993	1.265309	0.709041
O	-0.172441	2.31051	0.096961
O	-0.823374	1.187439	1.849473
Cl	3.15237	0.0	0.0
