14

C	-0.313104	0.019663	-1.493027
C	0.0	0.0	0.0
Br	-2.257299	0.047145	-1.843291
H	1.094465	0.0	0.0
H	-0.004787	-0.959878	-1.875389
N	0.303543	1.155339	-2.100078
H	1.25677	1.24048	-1.750723
H	0.321182	1.038906	-3.104242
C	-0.531909	-1.176635	0.661148
N	-0.919305	-2.149205	1.192615
N	-0.486166	1.238363	0.689075
O	-1.552677	1.170381	1.300349
O	0.212983	2.237377	0.57222
Cl	3.213349	0.0	0.0
