14

C	-0.579733	-0.000417	-1.418855
C	0.0	0.0	0.0
Br	0.143966	1.513736	-2.406451
H	1.090447	0.0	0.0
H	-1.654093	0.202446	-1.36022
N	-0.206433	-1.221582	-2.088466
H	-0.698473	-2.003887	-1.669017
H	-0.446698	-1.166932	-3.069668
C	-0.518865	-1.17019	0.701864
N	-0.952993	-2.139821	1.204141
N	-0.517858	1.219025	0.722772
O	-1.743898	1.34466	0.768004
O	0.299562	1.994812	1.198212
Cl	3.259166	0.0	0.0
