14

C	-0.402483	-0.100759	-1.474053
C	0.0	0.0	0.0
Br	-0.115274	1.719769	-2.333013
H	1.092237	0.0	0.0
H	-1.473529	-0.247281	-1.606928
N	0.365763	-1.132541	-2.031247
H	0.189789	-1.268816	-3.016243
H	1.359896	-1.000653	-1.848333
C	-0.514335	-1.165996	0.710631
N	-0.946517	-2.09451	1.285574
N	-0.586498	1.216501	0.647852
O	-1.812807	1.310217	0.587714
O	0.173727	2.011025	1.184238
Cl	3.230438	0.0	0.0
