14

C	-0.528531	0.008226	-1.441463
C	0.0	0.0	0.0
Br	0.023971	-1.674218	-2.261393
H	1.094371	0.0	0.0
H	0.001418	0.789605	-1.982741
N	-1.945759	0.175385	-1.616805
H	-2.454449	-0.493758	-1.049851
H	-2.197212	1.117306	-1.3418
C	-0.565116	-1.0812	0.790472
N	-1.067119	-1.970702	1.371172
N	-0.359833	1.307498	0.662639
O	-0.4453	1.324106	1.884522
O	-0.485171	2.287751	-0.071572
Cl	3.153243	0.0	0.0
