14

C	-0.541519	-0.01432	-1.422483
C	0.0	0.0	0.0
Br	0.160628	-1.664803	-2.312232
H	1.089005	0.0	0.0
H	-0.083325	0.80183	-1.975841
N	-1.956468	0.089347	-1.434959
H	-2.308768	0.180375	-2.378733
H	-2.383657	-0.721682	-1.00306
C	-0.557167	-1.08335	0.795967
N	-1.038907	-1.985934	1.373476
N	-0.383087	1.327156	0.614119
O	-0.17324	2.315418	-0.080425
O	-0.826455	1.334566	1.75944
Cl	3.174983	0.0	0.0
