14

C	-0.304169	-0.013846	-1.512486
C	0.0	0.0	0.0
Br	-2.220741	0.309872	-1.821555
H	1.094813	0.0	0.0
H	-0.143194	-1.044461	-1.833815
N	0.487782	0.854149	-2.327898
H	0.414361	1.795543	-1.960006
H	1.458228	0.570348	-2.195956
C	-0.540193	-1.160973	0.682591
N	-0.938239	-2.146176	1.183367
N	-0.445736	1.254481	0.676027
O	-0.184459	2.308448	0.10006
O	-1.013873	1.163861	1.760164
Cl	3.165873	0.0	0.0
