18

C	-0.403511	0.03726	-1.464838
C	0.0	0.0	0.0
F	0.01304	-1.244164	-2.009386
H	1.102123	0.0	0.0
N	-1.81757	0.12901	-1.624676
H	-2.061283	-0.14707	-2.570372
H	-2.205577	-0.56078	-0.987244
N	0.295137	1.069252	-2.138151
H	1.293386	0.91769	-2.006946
H	0.080297	1.04991	-3.129267
N	-0.574687	-1.218665	0.592037
H	-0.064057	-2.003883	0.201616
H	-0.355178	-1.203767	1.582566
C	-0.497217	1.223065	0.748873
H	-0.168294	2.129192	0.241321
H	-0.080761	1.227131	1.761204
H	-1.588186	1.224549	0.80925
Cl	3.5877	0.0	0.0
