18

C	-0.329686	-0.012027	-1.495445
C	0.0	0.0	0.0
F	-0.081784	-1.319905	-1.982473
H	1.09831	0.0	0.0
N	-1.747369	0.170968	-1.755401
H	-1.937132	-0.148463	-2.69897
H	-1.93568	1.165582	-1.720828
N	0.502817	0.928061	-2.16948
H	1.465799	0.811864	-1.853132
H	0.465029	0.764611	-3.169569
N	-0.51404	-1.165863	0.705644
H	0.055591	-1.960879	0.442649
H	-1.450371	-1.343493	0.353335
C	-0.507942	1.271443	0.66101
H	-1.602664	1.268882	0.709484
H	-0.123414	1.308649	1.6811
H	-0.170246	2.159534	0.123088
Cl	3.539926	0.0	0.0
