18

C	-0.340328	0.04297	-1.493323
C	0.0	0.0	0.0
F	-1.714339	0.420392	-1.650791
H	1.096142	0.0	0.0
N	0.436048	1.067965	-2.117473
H	1.408402	0.937862	-1.84447
H	0.36904	1.000855	-3.127078
N	-0.177491	-1.245745	-2.101742
H	-0.39603	-1.174213	-3.089434
H	-0.828396	-1.898855	-1.6833
N	-0.463888	-1.192755	0.700656
H	0.098973	-1.988006	0.426997
H	-1.43828	-1.375842	0.485608
C	-0.508847	1.242226	0.712335
H	-0.08625	1.261856	1.717955
H	-1.600567	1.22503	0.787679
H	-0.212647	2.144006	0.176374
Cl	3.526119	0.0	0.0
