18

C	-0.402032	-0.050476	-1.475776
C	0.0	0.0	0.0
F	-0.14691	1.227712	-2.027348
H	1.104135	0.0	0.0
N	0.375185	-1.057103	-2.099599
H	1.364342	-0.881193	-1.934383
H	0.167054	-1.080281	-3.090127
N	-1.802191	-0.293142	-1.753767
H	-2.093466	-1.005216	-1.090406
H	-2.304246	0.556135	-1.519883
N	-0.52717	-1.234868	0.616898
H	-0.216569	-1.241975	1.583506
H	-0.043285	-2.005954	0.165041
C	-0.542055	1.210857	0.728477
H	-0.193063	1.205867	1.765079
H	-1.637152	1.202444	0.738264
H	-0.186554	2.12816	0.260271
Cl	3.54367	0.0	0.0
