13
Coordinates from ORCA-job run
  C   -0.57675854972574      0.09791065797193      0.43017651333321
  C   0.65150448616708     -0.78734318343367      0.23511294697767
  Br  -1.64540130644779     -0.89719491906983      1.85871487793290
  H   1.25700788396955     -0.81777106928923      1.13887219678704
  H   0.34943633120679     -1.78691682144133     -0.07266993960451
  N   -1.25284977892608      0.28696190307637     -0.78398300565726
  H   -2.05838474468578      0.89345407371470     -0.70997808668492
  H   -1.48833245777179     -0.58012072642481     -1.24968959773215
  C   -0.26051474685021      1.38743874304719      1.04129600906764
  N   -0.03701541181491      2.43301921704138      1.52883572217872
  N   1.48734726561026     -0.22073523197430     -0.86652776573135
  O   2.15476506054592      0.77201986175069     -0.59212839300252
  O   1.41919596872270     -0.77972250496909     -1.95803147786447
