13
Coordinates from ORCA-job run
  C   -0.51467364007487      0.35672998010505      0.27661558941305
  C   0.88900545626674      0.20637549130183     -0.31286771024925
  Br  -0.38488671206406     -0.28190729316178      2.20923345023543
  H   0.84659321888101      0.45093296437364     -1.37743456595966
  H   1.60123383630312      0.84057856547985      0.20878737367991
  N   -1.50541399719261     -0.27835676995778     -0.49020859710884
  H   -1.29459013416283     -1.25750340364773     -0.63595411025677
  H   -2.43383296429506     -0.15074902033325     -0.10974780400004
  C   -0.80290040012677      1.78674943424688      0.39038315909647
  N   -1.02340615261301      2.93975757865421      0.44411659754421
  N   1.40813269160488     -1.19021039712589     -0.21337376151884
  O   2.55151185877573     -1.32993986730770      0.20212505296639
  O   0.66322693869773     -2.09345726262733     -0.59067467384206
