13
Coordinates from ORCA-job run
  C   -0.58068882376328      0.04393384535087      0.43320710890242
  C   0.70705102948425     -0.74494548447490      0.21052347584401
  Br  -1.57012682894804     -1.06555338402295      1.83431271369286
  H   0.47585132087780     -1.75400660740158     -0.12644905991137
  H   1.31632993415565     -0.75895265066799      1.11216974979665
  N   -1.27317726048048      0.21845838390398     -0.77377962470448
  H   -1.44627970644403     -0.64944441063362     -1.26462072504578
  H   -2.12042457369212      0.76230864851989     -0.68113494341339
  C   -0.35542018300643      1.33473248202980      1.08107232564849
  N   -0.20586293142167      2.37656134123352      1.60365905600659
  N   1.49615061416851     -0.08792479374121     -0.87519499773770
  O   2.08960308193957      0.94322316657699     -0.57368958815566
  O   1.46599432713028     -0.61939053667280     -1.98207549092263
