13
Coordinates from ORCA-job run
  C   -0.54804635418620      0.20542892810532      0.42814710612703
  C   0.78906403689534     -0.53112853734785      0.44199530802272
  Br  -1.32284554655755     -0.20178797400825      2.27482959829653
  H   0.63103406473684     -1.59350216743634      0.61969357260648
  H   1.46244431766582     -0.10219500714841      1.18161847790034
  N   -1.34063776732687     -0.22040939390038     -0.64770870358960
  H   -2.22562799918496      0.26367101770724     -0.71587222226523
  H   -1.46956338402719     -1.22395277488089     -0.67583407009950
  C   -0.39940228571722      1.65916081492570      0.40752779903356
  N   -0.30767049201802      2.83071700212284      0.39342256876397
  N   1.42761944549894     -0.39868187242483     -0.90271928774883
  O   1.36638296427580     -1.37583297159868     -1.64420852901241
  O   1.93624899994528      0.68751293588454     -1.16189161803507
