14
Coordinates from ORCA-job run
  C   0.78785085642824      0.33111122301904     -0.23312756294182
  C   -0.71256220329149      0.52362697311353      0.02213954393704
  Br  1.72650898191060      1.92837077621963      0.34008058503329
  H   -1.08205647759927      1.25492809419381     -0.70593806825560
  N   1.34699454669338     -0.84033458461605      0.59519857033398
  O   2.36889417856777     -1.34984394208964      0.17013405889109
  O   0.73299153854387     -1.10663784987980      1.61559182996952
  C   1.06368364293265      0.10378201783815     -1.64128767066145
  N   1.24843879393159     -0.01707730170950     -2.79657838593407
  C   -1.06282542361575      0.97104081609518      1.36264112607593
  N   -1.40578321354776      1.35796736602737      2.41742234171818
  N   -1.48437542947534     -0.75968864394547     -0.29612611978191
  O   -2.68371461991799     -0.71015910033847     -0.07992871803792
  O   -0.84304517156049     -1.68808584392778     -0.77022153034627
