14
Coordinates from ORCA-job run
  C   0.68147242251485      0.06836129326658     -0.43419104554225
  C   -0.73501657761602     -0.20194724438463      0.12162707556256
  Br  0.94152441084906      1.82417725072057     -1.18799836984670
  H   -0.74102777948340     -1.21246543089767      0.54120779485489
  N   1.72793516928310     -0.11106797336149      0.68707972495476
  O   2.83599994881179     -0.47658676745967      0.33417419881479
  O   1.34852796190306      0.16831207448740      1.81540023218574
  C   0.94854300015056     -0.93216700367299     -1.45730291766933
  N   1.11389513599336     -1.75902009526394     -2.27787483796611
  C   -1.71508575153239     -0.08328076788595     -0.94892847168579
  N   -2.51417273761509      0.00506819149534     -1.80593092286450
  N   -1.17732938723047      0.69924674829036      1.27143627176007
  O   -1.19528103729073      1.90006814166060      1.05510195977166
  O   -1.52098477873767      0.11130158300549      2.28519930767022
