14
Coordinates from ORCA-job run
  C   0.72650337190818      0.27752057119640     -0.13315329523145
  C   -0.60785688002644     -0.01014732821552      0.57506132763557
  Br  1.46732602248938      1.95377972629747      0.47986875596818
  H   -0.44439856697455     -0.00791535380856      1.65263088607216
  N   1.71966324667465     -0.83569055467764      0.30877821308711
  O   1.58124493426780     -1.23722422378240      1.45401798569544
  O   2.56067137446311     -1.16424618174868     -0.50930885537125
  C   0.63077693254901      0.26584835310638     -1.57960714671743
  N   0.56740499975098      0.25561143642109     -2.75476513434990
  C   -1.15306842591369     -1.28154772402549      0.12042874146998
  N   -1.57032371840681     -2.31858939924650     -0.24210719086311
  N   -1.59509365035341      1.10199735546653      0.27800270230147
  O   -1.85568441401184      1.84422409802156      1.21613961739370
  O   -2.02616522641636      1.15637922499535     -0.86698660709046
