14
Coordinates from ORCA-job run
  C   0.64429442599195      0.25093196426691     -0.36277468408652
  C   -0.71767767449311     -0.33127480083670      0.05701527882635
  Br  0.50621756582637      2.10703819686488     -0.81382048214614
  H   -0.53978033954254     -1.32765930567711      0.47676658818828
  N   1.66408372899952      0.00813786991139      0.80786277747874
  O   1.67124636751967     -1.15169467361938      1.19008867638186
  O   2.35192887340764      0.93402596726697      1.17754948658984
  C   1.16474168624501     -0.50614965942503     -1.49046661498061
  N   1.58655435343218     -1.12748655227908     -2.39672350808931
  C   -1.63511008544908     -0.39299638470669     -1.06820900881502
  N   -2.35045282039789     -0.46941023035630     -1.99734748716500
  N   -1.31320618547532      0.48790581475901      1.19430612077558
  O   -2.50537663178871      0.74533836596756      1.14040970310495
  O   -0.52546326427567      0.77329342786358      2.08634315393701
