14
Coordinates from ORCA-job run
  C   0.65341678451657      0.21927749722728     -0.36735176336934
  C   -0.72655653866612     -0.30987958306717      0.06392247800213
  Br  0.56765499492794      2.06050166469431     -0.88814756100806
  H   -0.57921059898158     -1.29453188904584      0.52155383858188
  N   1.65867982551167     -0.00652176053390      0.81837958030533
  O   2.36810451349105      0.91434584040895      1.15863741692811
  O   1.63240416791356     -1.15076188807707      1.24375303800310
  C   1.15950213304330     -0.59240756936092     -1.46303371763148
  N   1.56954769925337     -1.25705025804025     -2.34349892293648
  C   -1.63891821146492     -0.38795021586147     -1.06435383254574
  N   -2.35262839603779     -0.47838291241615     -1.99351116368907
  N   -1.30627286042789      0.56660376599865      1.16657606832958
  O   -2.48986778553679      0.85646190525557      1.09363952548909
  O   -0.51685572754235      0.86029540281801      2.05443501554095
