14
Coordinates from ORCA-job run
  C   0.75745884873735      0.37092645955838     -0.26723549970814
  C   -0.68701365765750      0.50784983652809      0.23062716817446
  Br  1.81665905655873      1.80843788133788      0.48840821371242
  H   -1.12991881700419      1.37686689538279     -0.26955148081928
  N   1.38651770271018     -0.95059495753646      0.21286934759287
  O   0.90452553683235     -1.42790856979156      1.22731879298409
  O   2.32780811641236     -1.35916375701931     -0.44399800453744
  C   0.83185034082361      0.44363101061252     -1.71634854822317
  N   0.86564862461063      0.57544323975894     -2.88462786314330
  C   -0.83615003504741      0.66359229338346      1.67043910129782
  N   -1.01771461312016      0.83016854953386      2.81892627169356
  N   -1.53432723234010     -0.67826932477232     -0.23690819546091
  O   -0.99545526934597     -1.48284110750145     -0.98538002870366
  O   -2.68888860216986     -0.67813844947481      0.15646072514068
