14
Coordinates from ORCA-job run
  C   0.59662792623544      0.21673912252247     -0.45479649187523
  C   -0.69280365726188     -0.34444854090525      0.17127245352132
  Br  0.32711255719810      1.97850229991726     -1.15660474148731
  H   -0.43082227347525     -1.26130063198978      0.71115512523080
  N   1.72678175392141      0.18918962219768      0.63603793501826
  O   1.81758169592811     -0.89468548480134      1.19086250006440
  O   2.40766085990581      1.17958045998681      0.78752539583097
  C   1.05260433557386     -0.68120811311805     -1.50420280529498
  N   1.42309619604742     -1.41661677489626     -2.34506429591686
  C   -1.70243541064401     -0.60318484458979     -0.84134599345460
  N   -2.49500017211476     -0.83833972887935     -1.67636742685696
  N   -1.22492475490218      0.61141245233049      1.23113667090513
  O   -2.42980507180484      0.80581488490888      1.26032132391244
  O   -0.37567398460723      1.06054527731624      1.98907035040264
