14
Coordinates from ORCA-job run
  C   0.81919086912387      0.27421043773638      0.18875056464608
  C   -0.67188913342344      0.19657136809926      0.54099892755207
  Br  1.85348814128141      0.18558217691237      1.82669961830360
  H   -0.95269916674699      1.14634012375416      1.01060804761506
  N   1.24663830263333     -0.92520426174558     -0.67756780572597
  O   2.24459112980338     -0.76050845983407     -1.35682720900280
  O   0.56599967671988     -1.93134320311683     -0.55943294951549
  C   1.14013565471033      1.51054908395333     -0.50348026988859
  N   1.37550451793399      2.54829468900327     -1.00449148899786
  C   -1.04578049047793     -0.89738587949213      1.42577279137183
  N   -1.39130605972171     -1.73024203120404      2.17851782156844
  N   -1.52392044508774      0.12964645127019     -0.72901177274476
  O   -2.72369602765565      0.01189903989299     -0.54293971008166
  O   -0.93625696909272      0.24259046477073     -1.79659656509996
