14
Coordinates from ORCA-job run
  C   0.72487412144608      0.27910872837552     -0.12806925472547
  C   -0.60530151874254     -0.03515390432704      0.57543276102833
  Br  1.46672484939949      1.93036135850789      0.54943632162809
  H   -0.43466582726324     -0.08897110557867      1.65045614888721
  N   1.72435815184111     -0.84842535583006      0.26224671098901
  O   2.59006645789166     -1.10577373958948     -0.55519740621357
  O   1.56659171987210     -1.33082468517309      1.37329484052358
  C   0.62396042321416      0.32252248324850     -1.57352282188465
  N   0.55705087714253      0.34515975288392     -2.74823388958215
  C   -1.16554245263887     -1.27752240128762      0.06248410982347
  N   -1.59572835386471     -2.29225041711024     -0.34553169089958
  N   -1.58720524609704      1.09758956942004      0.34463016029321
  O   -1.87761172528922      1.75725986795934      1.33433319047231
  O   -1.98757147691153      1.24591984850099     -0.80275918033979
