14
Coordinates from ORCA-job run
  C   0.77751686685164      0.36625057707300     -0.20896130010868
  C   -0.66221408121414      0.50098711193090      0.30372667404047
  Br  1.90311055073303      1.61836494042282      0.75223109316335
  H   -1.05698778569354      1.45597511438405     -0.06189721632699
  N   1.33422339964650     -1.04285568566367      0.06782237396079
  O   0.82248009883933     -1.63916801017084      1.00156125720030
  O   2.25709865218630     -1.39772091789067     -0.64413564063400
  C   0.86508489897192      0.65090129481338     -1.63102016102249
  N   0.90751590001939      0.95093114052088     -2.76742924703015
  C   -0.81474878151683      0.44993510779921      1.75061762439402
  N   -0.98532369819320      0.46951586367737      2.91264336198469
  N   -1.56443204702946     -0.55765372263933     -0.33494482891744
  O   -2.72017570066476     -0.55723974631366      0.05518157561282
  O   -1.06214827293619     -1.26722306794342     -1.19639556631670
