14
Coordinates from ORCA-job run
  C   0.67188476806334      0.19031077080662     -0.35002810614036
  C   -0.74779797319698     -0.25841701387908      0.04137345642801
  Br  0.72729622649609      2.05668141504646     -0.77535904600759
  H   -0.67671084475875     -1.27316113623549      0.44854221850042
  N   1.64361616060059     -0.16849596012637      0.83247937454575
  O   2.41379992142558      0.67945122223777      1.22568459850313
  O   1.52847438495393     -1.32765653372575      1.19824936656620
  C   1.13180863380295     -0.60027859760679     -1.48085145791399
  N   1.50165597878483     -1.24941012721521     -2.39021769458256
  C   -1.64896121475002     -0.21387242100321     -1.09780969169510
  N   -2.35450207812229     -0.20953578596014     -2.03756195429556
  N   -1.27678286937338      0.60112681097714      1.18165382970697
  O   -2.43528820458364      0.97981488433036      1.11263206156071
  O   -0.47949288934224      0.79244247235368      2.09021304482398
