14
Coordinates from ORCA-job run
  C   0.67298586421915      0.19370905997909     -0.34582869200770
  C   -0.75023511883043     -0.25342887910691      0.03441241042244
  Br  0.74336535762439      2.07060585018408     -0.71949347716620
  H   -0.68870462831653     -1.28039160240289      0.41153003852028
  N   1.64294104358255     -0.20548956394736      0.82430458669536
  O   2.42070584235886      0.62475843357592      1.23994637432554
  O   1.51896601560696     -1.37350301736621      1.15798061271131
  C   1.12501285117468     -0.56953759878146     -1.49844348135763
  N   1.49094256145668     -1.19936104742952     -2.42272769607729
  C   -1.65184082350125     -0.16489048738463     -1.10184981637626
  N   -2.35738127750441     -0.11663426917992     -2.04050845853112
  N   -1.27032818958455      0.57604691827432      1.20103692097457
  O   -2.42677442380417      0.96333504844819      1.14671078555057
  O   -0.46965507448194      0.73478115513732      2.11292989231615
