14
Coordinates from ORCA-job run
  C   0.75768943479365      0.44021342537115     -0.19642569542215
  C   -0.75165764101766      0.49332772945288      0.10404999620727
  Br  1.56230599253159      2.08923872900747      0.40444374240818
  H   -1.17790613659157      1.32638662709296     -0.46030957055069
  N   1.42958350848899     -0.73266054774324      0.56572923252823
  O   1.96255190481491     -1.58547370149700     -0.12560892905293
  O   1.35090580889651     -0.67733695318858      1.77881807853078
  C   0.96791155213359      0.27221979800650     -1.62370734211676
  N   1.07763991514813      0.17523181120221     -2.79133943036437
  C   -1.09011162860491      0.61411768834812      1.51460667736780
  N   -1.45137741025215      0.75913688952245      2.62318211898064
  N   -1.39900673381782     -0.76204138729717     -0.46283568979975
  O   -2.20705567174639     -0.59303903760059     -1.36591204678665
  O   -1.03247289477686     -1.81932107067717      0.03530885807040
