14
Coordinates from ORCA-job run
  C   0.72361723385381      0.31007166618137     -0.00865031688955
  C   -0.66629370716207     -0.11857993425902      0.48762371661007
  Br  1.30825296766102      1.89403323237460      0.93248201718182
  H   -0.62042743715085     -0.29704195454259      1.56169530757097
  N   1.71634213510662     -0.82572230662873      0.37716180238667
  O   2.68546596384266     -0.96122940557232     -0.34827111430696
  O   1.44553695860033     -1.43790961488081      1.39902104591450
  C   0.79605602726033      0.51380247325362     -1.44203482737633
  N   0.87123802971700      0.66839483744079     -2.60625822316083
  C   -1.11649370197815     -1.30323661462548     -0.22960963471165
  N   -1.46526171744816     -2.26833927477569     -0.80241761425987
  N   -1.65852382539421      1.00868826968961      0.27453243392909
  O   -1.90140918887345      1.30848007450490     -0.88715809057443
  O   -2.11709973803489      1.51058855183975      1.29288349768645
