14
Coordinates from ORCA-job run
  C   0.73318440763978      0.25188174245734     -0.14192246650845
  C   -0.60316051829954      0.00844546283932      0.57807711054555
  Br  1.52394150271188      1.91055783404140      0.45712398482450
  H   -0.43098243939944      0.00284712100598      1.65416218276746
  N   1.70072385907431     -0.88513782051209      0.29724628630262
  O   2.55511841171027     -1.20519707601156     -0.51001785969950
  O   1.53332398971787     -1.31124356364664      1.42982076278268
  C   0.62839151050687      0.23359643700191     -1.58781112295967
  N   0.55875022554134      0.21660173511507     -2.76246252156273
  C   -1.19933929003735     -1.24157884788666      0.12829237116414
  N   -1.66471974673453     -2.26065959999412     -0.22689275393575
  N   -1.55483772939942      1.15445211354947      0.29319386182529
  O   -1.95889014989277      1.25357287940317     -0.85828575612643
  O   -1.82050403313925      1.87286158263742      1.24847592058029
