14
Coordinates from ORCA-job run
  C   0.74760716994731      0.30186149485969     -0.36192809359659
  C   -0.62063457107435      0.56404618555369      0.28071818409955
  Br  1.98395459130149      1.67946474468074      0.21522082012924
  H   -1.05333027101797      1.44575323672077     -0.20599683710899
  N   1.32849677389642     -1.04663542694302      0.10298946317225
  O   2.15977865195377     -1.54789837140916     -0.63334278795591
  O   0.92848257681682     -1.45029092436227      1.18294542384295
  C   0.66747799287524      0.32043873903877     -1.81243348956777
  N   0.57646224454508      0.40814597960861     -2.98175772594611
  C   -0.59927210260664      0.78268226480786      1.71997050862149
  N   -0.62725531987472      1.02154783075597      2.86976058144959
  N   -1.59535179898257     -0.57096153033745     -0.04184336215342
  O   -1.20135300265161     -1.43788883721209     -0.81062502896451
  O   -2.69606293512827     -0.47126538576211      0.47432234397823
