14
Coordinates from ORCA-job run
  C   0.73813379391956      0.41480739282411     -0.25091256435846
  C   -0.70621587604845      0.46507902915968      0.26403817273932
  Br  1.74678729086854      1.84731483168843      0.57993313238836
  H   -1.18775082813554      1.34268815871964     -0.18268418550480
  N   1.42192335181367     -0.90618213796152      0.14742415847452
  O   0.96744502179682     -1.45967893937223      1.13557216001738
  O   2.37318764208464     -1.23860523773167     -0.53746355414476
  C   0.79706158442652      0.57483907605760     -1.69369982477514
  N   0.83068249100606      0.77669829766342     -2.85194082139297
  C   -0.84828534098614      0.53353265544955      1.71135393950429
  N   -1.02042158705441      0.63553767591919      2.86880290604581
  N   -1.50912168973429     -0.72588641533234     -0.26424415559020
  O   -2.65695553830289     -0.79958931671188      0.14176012116050
  O   -0.94747031565409     -1.45955507037200     -1.06693948456385
