14
Coordinates from ORCA-job run
  C   0.80260933000106      0.32134354051635     -0.17711054613157
  C   -0.57901720304020      0.47807554602763      0.47144109465367
  Br  2.12906747236257      1.15164169949410      0.96837520968295
  H   -0.87036390333233      1.53128356382576      0.38476979347736
  N   1.18651599142457     -1.16489066515882     -0.30524081386172
  O   0.62124952281456     -1.92665482114057      0.46269765797724
  O   2.04610903501701     -1.42008638870954     -1.13039638593004
  C   0.85751534681286      0.94942653807298     -1.48587640971998
  N   0.89071558682178      1.52603312255225     -2.51047113723748
  C   -0.65384547594764      0.07835632738316      1.86940964062916
  N   -0.74576814384062     -0.18588211484208      3.01031590657346
  N   -1.64029552994923     -0.28256306959601     -0.32792995083032
  O   -2.75445452503888     -0.29635476442516      0.16788000373358
  O   -1.28803750410551     -0.76072851400005     -1.39786406301630
