14
Coordinates from ORCA-job run
  C   0.63041162416796      0.28372009404180     -0.36230173221071
  C   -0.70916087791572     -0.35026347244775      0.05473609130352
  Br  0.44175437201214      2.15749546338063     -0.71117366918765
  H   -0.50154028795932     -1.36337822988428      0.41688471293971
  N   1.68119901774448      0.00313649351675      0.77099012331198
  O   2.35642311034671      0.92396386806505      1.17497544889375
  O   1.72275549800743     -1.17473258392870      1.09023667902223
  C   1.14099074800197     -0.40064906194269     -1.53988077172021
  N   1.55576309432429     -0.96291644560670     -2.48702299771551
  C   -1.64999860457766     -0.37206194936137     -1.05254127719378
  N   -2.38385979130683     -0.41394367383633     -1.96929559284610
  N   -1.29603559803161      0.39394243330050      1.24690698547206
  O   -2.49390494537182      0.62874772955343      1.23177318327392
  O   -0.49479735944200      0.64693933514965      2.13671281665678
