16

C	0.0	0.0	0.0
C	-0.616227	-0.040218	-1.383147
Br	1.920897	0.0	0.0
H	-1.686574	-0.184084	-1.16946
H	-0.341665	0.872626	0.552451
N	-0.406735	-1.171254	0.866636
O	-0.59711	-2.254031	0.32138
O	-0.468984	-0.95643	2.071362
N	-0.030412	-1.07985	-2.231664
H	-0.463707	-0.993181	-3.144908
H	-0.313366	-1.978508	-1.857855
C	-0.438412	1.313575	-2.052557
H	-0.97547	1.318012	-3.005414
H	-0.864228	2.109001	-1.437465
H	0.618033	1.515282	-2.249264
Cl	-3.714554	0.0	0.0
