16

C	0.0	0.0	0.0
C	-0.620447	-0.123665	-1.375823
Br	1.929142	0.0	0.0
H	-1.67956	-0.31712	-1.149451
H	-0.340852	0.89973	0.507188
N	-0.396204	-1.126884	0.926301
O	-0.518835	-0.839351	2.110584
O	-0.518319	-2.249481	0.44448
N	0.015817	-1.160251	-2.191697
H	-0.140965	-2.050717	-1.733361
H	-0.49442	-1.19365	-3.067941
C	-0.532141	1.214671	-2.091349
H	-1.055063	1.984647	-1.520817
H	0.508589	1.504348	-2.258522
H	-1.029414	1.137966	-3.062393
Cl	-3.702017	0.0	0.0
