16

C	0.0	0.0	0.0
C	-0.574682	0.694579	-1.286748
Br	1.931933	0.0	0.0
H	0.283438	1.220394	-1.72135
H	-0.309952	0.542505	0.8898
N	-0.436575	-1.420725	0.262069
O	-0.124697	-2.281057	-0.554216
O	-1.057942	-1.606258	1.30361
N	-1.582112	1.686604	-0.986793
H	-1.250076	2.338123	-0.283989
H	-2.447697	1.247965	-0.651645
C	-1.12949	-0.27563	-2.324462
H	-1.454941	0.322049	-3.177663
H	-2.009831	-0.780804	-1.921049
H	-0.394316	-1.010385	-2.645237
Cl	-4.163842	0.0	0.0
