16

C	0.0	0.0	0.0
C	-0.584711	-0.125179	-1.415132
Br	1.924694	0.0	0.0
H	-1.642928	-0.347361	-1.228507
H	-0.348765	0.894427	0.510707
N	-0.397089	-1.138311	0.907392
O	-0.581366	-0.854385	2.084601
O	-0.459524	-2.263825	0.420142
N	-0.026192	-1.152064	-2.275403
H	-0.16647	-2.052796	-1.835873
H	0.973349	-1.011167	-2.377965
C	-0.510763	1.23182	-2.097719
H	-0.974516	1.143154	-3.081322
H	0.524465	1.565584	-2.229625
H	-1.062641	1.978033	-1.522452
Cl	-3.612666	0.0	0.0
