17

C	-0.595468	-0.021422	-1.413764
C	0.0	0.0	0.0
Cl	0.152959	1.249125	-2.404957
H	1.091935	0.0	0.0
N	-0.20574	-1.354519	-2.050654
O	0.880568	-1.819871	-1.751063
O	-1.002906	-1.841375	-2.847816
C	-2.098891	0.115727	-1.435242
H	-2.535417	-0.699607	-0.85582
H	-2.375358	1.07495	-0.996198
H	-2.468789	0.063701	-2.456783
N	-0.465035	-1.201706	0.704039
H	-1.092807	-0.96989	1.460086
H	0.351348	-1.663335	1.086325
C	-0.436362	1.223533	0.67834
N	-0.840917	2.15677	1.267559
Cl	3.294514	0.0	0.0
