17

C	-0.399207	0.006954	-1.479894
C	0.0	0.0	0.0
Cl	0.32467	-1.41015	-2.254419
H	1.101364	0.0	0.0
N	-1.924904	-0.110387	-1.572859
O	-2.526316	0.897948	-1.208084
O	-2.443702	-1.145019	-1.965229
C	0.063441	1.261325	-2.188664
H	-0.421993	2.13491	-1.754607
H	-0.172815	1.201183	-3.253111
H	1.145579	1.334723	-2.056682
N	-0.577845	-1.170654	0.674161
H	-0.422321	-1.05451	1.669984
H	-0.014085	-1.968851	0.397537
C	-0.442279	1.217277	0.680157
N	-0.739256	2.185289	1.275745
Cl	3.295752	0.0	0.0
