17

C	-0.431151	-0.086547	-1.46375
C	0.0	0.0	0.0
Cl	-2.207379	-0.285927	-1.572934
H	1.10727	0.0	0.0
N	-0.098868	1.203065	-2.211204
O	0.507075	2.07578	-1.598864
O	-0.427869	1.249854	-3.392537
C	0.281664	-1.212285	-2.173715
H	1.358492	-1.02941	-2.099112
H	0.045775	-2.141865	-1.659039
H	-0.034219	-1.256666	-3.215469
N	-0.379114	-1.246034	0.668166
H	0.324441	-1.443708	1.369692
H	-1.280164	-1.151809	1.120696
C	-0.534992	1.177174	0.690363
N	-1.026352	2.034256	1.327632
Cl	3.269771	0.0	0.0
