17

C	-0.319256	-0.045275	-1.513689
C	0.0	0.0	0.0
Cl	0.047346	-1.666287	-2.144312
H	1.096958	0.0	0.0
N	-1.816159	0.141967	-1.767496
O	-2.155491	0.658652	-2.826331
O	-2.589569	-0.26816	-0.904054
C	0.470169	0.995418	-2.270453
H	0.161077	1.992861	-1.949589
H	0.308838	0.900336	-3.342838
H	1.524802	0.850256	-2.022749
N	-0.432825	-1.079932	0.854244
H	0.256234	-1.818236	0.814842
H	-1.340656	-1.42411	0.578788
C	-0.477524	1.292246	0.511106
N	-0.855938	2.33017	0.911591
Cl	3.296456	0.0	0.0
