17

C	-0.57805	-0.036782	-1.420265
C	0.0	0.0	0.0
Cl	0.15867	1.253063	-2.394196
H	1.093168	0.0	0.0
N	-0.165035	-1.355963	-2.073586
O	-0.771748	-1.667025	-3.096383
O	0.741199	-1.995271	-1.5583
C	-2.08481	0.064558	-1.464775
H	-2.391316	1.021779	-1.040995
H	-2.503849	-0.749957	-0.87204
H	-2.435463	-0.006395	-2.491984
N	-0.509854	-1.165047	0.742515
H	-0.885767	-0.875957	1.636364
H	0.286677	-1.76686	0.916052
C	-0.43951	1.241434	0.639416
N	-0.831413	2.195477	1.202463
Cl	3.298087	0.0	0.0
