17

C	-0.431265	0.035171	-1.473431
C	0.0	0.0	0.0
Cl	-2.207835	-0.146242	-1.607602
H	1.097969	0.0	0.0
N	-0.08386	1.409479	-2.05203
O	-0.78716	2.358107	-1.721239
O	0.902981	1.466091	-2.779286
C	0.266474	-1.046593	-2.257148
H	1.344035	-0.939273	-2.120367
H	-0.055342	-2.006238	-1.856729
H	0.012506	-0.974178	-3.315097
N	-0.37993	-1.288269	0.572343
H	-1.259611	-1.221818	1.066944
H	0.347163	-1.565412	1.220206
C	-0.510237	1.128135	0.784013
N	-0.948652	1.948888	1.502016
Cl	3.246368	0.0	0.0
