17

C	-0.599396	-0.019783	-1.412086
C	0.0	0.0	0.0
Cl	0.157478	1.23831	-2.411072
H	1.092069	0.0	0.0
N	-0.219965	-1.361309	-2.041526
O	-1.049508	-1.878333	-2.788756
O	0.88808	-1.803559	-1.784089
C	-2.101539	0.129593	-1.431452
H	-2.474824	0.074666	-2.451523
H	-2.369308	1.093611	-0.997734
H	-2.544727	-0.678605	-0.847156
N	-0.461117	-1.205358	0.699687
H	-1.088928	-0.97846	1.459601
H	0.35702	-1.667934	1.079254
C	-0.436754	1.22153	0.681321
N	-0.844342	2.158468	1.262315
Cl	3.301888	0.0	0.0
