11
Coordinates from ORCA-job run
  C   -0.14427721706836      0.17733277570241      0.32859628745850
  C   1.25324560058203     -0.09294912870065     -0.18005561884878
  Cl  -0.17524552547359      0.21325093195768      2.10489353140346
  H   1.90460149686184      0.72765706419415      0.12171659209158
  H   1.23975919774581     -0.16218323836930     -1.26967186043317
  H   1.62014913990019     -1.02781191696947      0.23863430688054
  C   -0.69108932237406      1.42401417622732     -0.19466951704794
  N   -1.05340919606261      2.45058986855763     -0.63665007343636
  N   -1.09367821017396     -0.96527575276310     -0.08754699990403
  O   -2.26939742448595     -0.66871985488950     -0.24550398814004
  O   -0.58965853945132     -2.07490492494717     -0.17974266002377
