11
Coordinates from ORCA-job run
  C   -0.13735449131373      0.17279994817296      0.33993172088245
  C   1.24110886501656     -0.10431000754663     -0.21764272377094
  Cl  -0.11595537441874      0.15985472143125      2.11589901595182
  H   1.60175716930697     -1.05706086761741      0.16495826621548
  H   1.91636401277203      0.69574653506937      0.08628961730688
  H   1.19325394434346     -0.14147018641571     -1.30816736189062
  C   -0.67997247298788      1.44180679298673     -0.13082008295502
  N   -1.03605265881556      2.49312269966154     -0.51610197829021
  N   -1.10199431502605     -0.95284711651201     -0.08757257011969
  O   -0.64125843243910     -2.08401900671107     -0.05454496674961
  O   -2.23989624643796     -0.62362351251901     -0.39222893658055
