11
Coordinates from ORCA-job run
  C   -0.12113634116891      0.17354990588314      0.39462601665761
  C   1.20269081451230     -0.10403407312184     -0.29686213875720
  Cl  0.05828614919135      0.13551507701824      2.14774682391662
  H   1.05333047191498     -0.09822240972965     -1.37828641239805
  H   1.92409275871430      0.66637050216879     -0.02525943946998
  H   1.57461935310107     -1.07787828355779      0.02489981950193
  C   -0.70327197102742      1.44848692263759     -0.00854504343748
  N   -1.11992605468057      2.50514291077537     -0.30908384145468
  N   -1.08708901733926     -0.94956308533061     -0.05357935639883
  O   -1.67443938880933     -0.72615188365871     -1.10396937672767
  O   -1.10715677440851     -1.97221558308453      0.60831294856772
