18

C	-0.342712	-0.024985	-1.511009
C	0.0	0.0	0.0
Cl	-2.147734	-0.198666	-1.747961
H	1.098131	0.0	0.0
C	0.018395	1.236586	-2.158454
N	0.29227	2.251954	-2.683272
C	0.345454	-1.184353	-2.21589
H	1.420481	-1.101805	-2.026623
H	-0.024184	-2.125945	-1.807792
H	0.144848	-1.163496	-3.288482
N	-0.418507	-1.199193	0.708128
H	0.228378	-1.955247	0.527104
H	-1.354535	-1.480443	0.440024
C	-0.524575	1.236008	0.708635
H	-0.149241	1.214596	1.732115
H	-0.176293	2.154076	0.231018
H	-1.618815	1.242257	0.738709
Cl	3.414577	0.0	0.0
