18

C	-0.395578	-0.02981	-1.486273
C	0.0	0.0	0.0
Cl	-2.202253	-0.227551	-1.640039
H	1.098195	0.0	0.0
C	-0.077499	1.238054	-2.146465
N	0.165754	2.256548	-2.680064
C	0.283034	-1.186283	-2.201605
H	1.364348	-1.063601	-2.08796
H	-0.025497	-2.109245	-1.712468
H	0.0098	-1.206285	-3.258402
N	-0.408901	-1.261347	0.613996
H	0.327724	-1.560274	1.241031
H	-1.260175	-1.13596	1.148441
C	-0.496731	1.233876	0.737923
H	-1.591135	1.255802	0.782667
H	-0.103243	1.210484	1.757004
H	-0.145806	2.155006	0.267677
Cl	3.405005	0.0	0.0
