13
Coordinates from ORCA-job run
  C   1.22401396914749     -0.35058337788611     -0.53344644430604
  C   -0.08085168432390     -0.27804444225561      0.23496127295023
  F   1.08848242202414     -1.21115165522515     -1.61825187765090
  H   -0.36797832875496     -1.30949467376424      0.49369164317347
  H   1.49542747498824      0.63966492829203     -0.90669677156351
  H   2.03162588239785     -0.73605408955522      0.09615867179874
  C   -1.17902236896736      0.33361196205334     -0.61709230764384
  H   -2.13708012852220      0.31810920919815     -0.08980286336242
  H   -0.93021990346781      1.37248895954977     -0.84924196454749
  H   -1.29512090066820     -0.22095763322979     -1.54880963437432
  N   0.16538242638589      0.56554419982798      1.40490874364203
  H   -0.71466259799980      0.82090723719824      1.83576333328992
  H   0.70100373776062      0.05695937579660      2.09885819859413
