13
Coordinates from ORCA-job run
  C   1.22008636379437     -0.27118589948466     -0.62718543884321
  C   -0.01861085122748     -0.35399676222259      0.24079274087196
  F   2.27064868610400     -0.97203794123766     -0.06327585039348
  H   -0.17647433202452     -1.41448676488653      0.46585991958082
  H   1.02580584926932     -0.69888462492594     -1.61517273880810
  H   1.53534211651743      0.77219882381746     -0.74355524781070
  C   -1.22646546277927      0.18291723205788     -0.53034402235984
  H   -1.42765741151432     -0.39595905844814     -1.43649916483232
  H   -1.06225782101111      1.22569345565995     -0.82166053092317
  H   -2.12038154658624      0.14975885669080      0.09656653611849
  N   0.23661572717321      0.32008260491979      1.51096277490013
  H   -0.51845267643276      0.13215605394268      2.15936580444787
  H   0.26280135871738      1.32374402411695      1.36414521805156
