13
Coordinates from ORCA-job run
  C   1.22428067312607     -0.38205506606263     -0.57201235679142
  C   -0.05164061349897     -0.40324468337720      0.23973879368428
  F   1.57067640511683      0.94267000996671     -0.85040788355917
  H   -0.27576368841415     -1.46043875792213      0.43148266502061
  H   1.10240991069790     -0.89780699344402     -1.52788143150016
  H   2.04416561380979     -0.82171839140044     -0.00178159196511
  C   -1.21369456831204      0.22113495201747     -0.53347477442103
  H   -1.40806275455746     -0.31091146750587     -1.46975933069731
  H   -2.12823255804290      0.19432062829381      0.06440759174733
  H   -0.98979740026133      1.26284725784017     -0.77194134871728
  N   0.22948382527612      0.22373728715724      1.53048664301501
  H   0.50973239661198      1.18438348198971      1.36789811035274
  H   -0.61255724155184      0.24808174244718      2.09324491383153
