13
Coordinates from ORCA-job run
  C   1.16999600179152     -0.38792458577057     -0.48122713263089
  C   -0.16748025491295     -0.36490104259915      0.23982690587957
  F   1.56821163530865      0.92011373563040     -0.75862886350599
  H   -0.43080090320000     -1.40932282635192      0.45109582958080
  H   1.11331992631257     -0.92594318545401     -1.43246985016477
  H   1.94601596152490     -0.83636626766525      0.14655779223625
  C   -1.25276496557287      0.25049649332129     -0.63325383700729
  H   -1.36616414952729     -0.29766295227386     -1.57193552995178
  H   -2.20298358857423      0.24215869876502     -0.09913288808135
  H   -1.00133209465678      1.28544959637161     -0.87576386608630
  N   -0.12546334343133      0.34327991233006      1.51827839976905
  H   0.21247954840998      1.28512348468884      1.35291011528595
  H   0.53596622652781     -0.10350106099247      2.14374292467674
