16

C	0.0	0.0	0.0
C	-0.582726	0.049656	-1.411317
Br	1.969069	0.0	0.0
H	-0.313699	-0.848373	-1.975572
H	-1.685345	0.045876	-1.181627
C	-0.47787	1.207931	0.790886
H	-1.573589	1.13027	0.755755
H	-0.114212	1.159724	1.821027
H	-0.133836	2.142163	0.339993
C	-0.487224	-1.281893	0.657741
H	-0.127296	-1.347838	1.68792
H	-1.582951	-1.194165	0.62608
H	-0.144129	-2.164014	0.108785
C	-0.204617	1.227677	-2.177493
N	0.101171	2.179119	-2.796148
F	-2.987429	0.0	0.0
