16

C	0.0	0.0	0.0
C	-0.462764	-0.059893	-1.455123
Cl	1.8067	0.0	0.0
H	-1.571867	0.094785	-1.266077
N	-0.494778	1.258448	0.723433
O	-0.657365	2.244367	0.012244
O	-0.442138	1.251273	1.947169
N	-0.422829	-1.153287	0.699366
H	-0.856586	-0.906244	1.587128
H	0.281446	-1.877512	0.746867
C	-0.27604	-1.427946	-1.939722
N	-0.174396	-2.537301	-2.321199
N	0.163376	0.911431	-2.341918
H	0.905797	0.495607	-2.882999
H	-0.532236	1.296998	-2.963432
H	-2.689826	0.0	0.0
