16

C	0.0	0.0	0.0
C	-0.632885	0.0679	-1.393261
Cl	1.756909	0.0	0.0
H	-1.744198	0.097488	-1.06797
N	-0.373059	1.324286	0.735377
O	-1.12345	1.244227	1.696974
O	0.097475	2.355182	0.270598
N	-0.525009	-1.058933	0.778545
H	-1.561583	-0.929479	0.709077
H	-0.266797	-1.938709	0.342285
C	-0.386823	-1.218007	-2.051301
N	-0.170342	-2.220918	-2.629383
N	-0.318938	1.213821	-2.215115
H	-0.988538	1.27074	-2.970928
H	0.616839	1.153247	-2.597987
H	-2.97048	0.0	0.0
