16

C	0.0	0.0	0.0
C	-0.589329	0.197355	-1.392041
Cl	1.756078	0.0	0.0
H	-1.685466	0.296077	-1.125115
N	-0.3185	1.25792	0.926227
O	-0.235887	2.388703	0.473035
O	-0.546797	0.974926	2.098732
N	-0.579124	-1.150555	0.532884
H	-0.337856	-1.223929	1.514522
H	-1.620783	-0.955287	0.461411
C	-0.415008	-1.054288	-2.142018
N	-0.279133	-1.961186	-2.879326
N	-0.11995	1.345973	-2.139687
H	-0.827059	1.590246	-2.821971
H	0.738955	1.125991	-2.630205
H	-2.938211	0.0	0.0
