16

C	0.0	0.0	0.0
C	-0.342794	-0.191331	-1.506582
Cl	1.791037	0.0	0.0
H	-1.441832	-0.135461	-1.505119
N	-0.724573	1.199063	0.532316
O	-0.722711	2.207834	-0.233482
O	-0.730724	1.305908	1.785887
N	-0.383919	-1.174928	0.75444
H	-1.088327	-0.875192	1.419318
H	0.419828	-1.521385	1.260911
C	0.026481	-1.551267	-1.914135
N	0.285642	-2.620362	-2.327463
N	0.314581	0.763429	-2.408191
H	-0.229507	0.780031	-3.263983
H	0.172771	1.661077	-1.956393
H	-2.220861	0.0	0.0
