16

C	0.0	0.0	0.0
C	-0.533642	0.044486	-1.42478
Cl	1.765615	0.0	0.0
H	-1.63053	0.193297	-1.248076
N	-0.348479	1.384006	0.680546
O	-1.108947	2.153014	0.114102
O	0.095275	1.522444	1.821937
N	-0.619947	-1.036527	0.688577
H	-0.375969	-0.992866	1.673071
H	-1.667702	-0.828132	0.558689
C	-0.335898	-1.268578	-2.050463
N	-0.129036	-2.241591	-2.677787
N	0.050832	1.119286	-2.20996
H	0.89799	0.801468	-2.664
H	-0.612035	1.405802	-2.918155
H	-2.977323	0.0	0.0
