16

C	0.0	0.0	0.0
C	-0.308784	-0.080024	-1.528317
Cl	1.811662	0.0	0.0
H	0.268262	-0.977796	-1.797992
N	-0.342658	1.385998	0.638692
O	-0.315501	2.381317	-0.072266
O	-0.579232	1.366028	1.840672
N	-0.583894	-1.059577	0.688863
H	-1.605436	-0.968621	0.534037
H	-0.413721	-0.952488	1.683719
C	0.333147	1.011829	-2.289686
N	0.795646	1.776803	-3.052534
N	-1.693985	-0.259442	-1.889373
H	-1.940939	0.347413	-2.661646
H	-2.386594	-0.073387	-1.084023
H	-3.253319	0.0	0.0
