19

C	0.0	0.0	0.0
C	-0.401509	-0.186331	-1.469212
Cl	1.842394	0.0	0.0
H	0.274174	-0.954311	-1.852009
N	-0.557795	1.107329	0.626226
H	-1.556538	1.143217	0.420482
H	-0.436484	1.057707	1.629975
N	-0.259691	-1.328766	0.788734
O	-0.606742	-1.206993	1.959008
O	-0.058925	-2.385896	0.205512
C	-0.161056	1.11574	-2.23469
H	-0.317206	0.935366	-3.302192
H	0.850709	1.498753	-2.092944
H	-0.868459	1.883905	-1.917346
C	-1.833175	-0.670535	-1.672629
H	-2.027398	-1.618613	-1.171948
H	-2.599649	0.02081	-1.321126
H	-1.985777	-0.823175	-2.746359
Cl	-4.685496	0.0	0.0
