11

C	-0.370984	-0.073969	-1.483408
C	0.0	0.0	0.0
Br	0.11047	1.554091	-2.430216
H	1.096101	0.0	0.0
H	0.218812	-0.874014	-1.928733
H	-1.435633	-0.22762	-1.663753
C	-0.443508	-1.232161	0.633156
N	-0.797503	-2.251001	1.102839
C	-0.555005	1.152869	0.682857
N	-0.988898	2.091279	1.243622
F	2.463971	0.0	0.0
