11

C	-0.375138	0.061656	-1.482537
C	0.0	0.0	0.0
Br	0.135235	-1.561031	-2.423692
H	1.096043	0.0	0.0
H	0.196405	0.871546	-1.933144
H	-1.442995	0.193167	-1.659527
C	-0.551235	-1.150226	0.690275
N	-0.976596	-2.088621	1.257598
C	-0.446117	1.235106	0.625803
N	-0.806701	2.254893	1.088503
F	2.464014	0.0	0.0
