11

C	-0.164898	-0.00191	-1.502128
C	0.0	0.0	0.0
Br	-2.020067	-0.001143	-2.162848
H	1.098838	0.0	0.0
H	0.313892	0.885373	-1.911327
H	0.312438	-0.891225	-1.909044
C	-0.505852	-1.202143	0.630132
N	-0.887367	-2.199417	1.122902
C	-0.505082	1.204025	0.627289
N	-0.88472	2.20266	1.118796
F	2.452369	0.0	0.0
