11

C	-0.163733	-1.3e-05	-1.502604
C	0.0	0.0	0.0
Br	-2.019298	-2.3e-05	-2.165581
H	1.098786	0.0	0.0
H	0.314448	0.888433	-1.910796
H	0.314456	-0.888464	-1.91078
C	-0.506646	-1.202439	0.628578
N	-0.888198	-2.200002	1.120466
C	-0.506657	1.202445	0.628558
N	-0.88826	2.199999	1.120425
F	2.451039	0.0	0.0
