11

C	-0.464118	0.028646	-1.455046
C	0.0	0.0	0.0
Br	0.173893	-1.517919	-2.447424
H	1.09612	0.0	0.0
H	-1.550687	0.026975	-1.557699
H	-0.036327	0.906449	-1.937592
C	-0.499935	-1.159189	0.720283
N	-0.891985	-2.105385	1.297996
C	-0.46062	1.223061	0.639485
N	-0.836123	2.232377	1.112978
F	2.465235	0.0	0.0
