17

C	-0.469388	-0.026561	-1.480789
C	0.0	0.0	0.0
Br	-0.001215	1.732623	-2.242937
H	1.091189	0.0	0.0
C	0.361293	-1.085225	-2.180977
H	0.172215	-1.0461	-3.254041
H	0.073687	-2.073875	-1.805499
H	1.419679	-0.921575	-1.953147
N	-1.877768	-0.2248	-1.729511
H	-2.111331	-1.167934	-1.437715
H	-2.411965	0.411307	-1.146045
C	-0.499517	-1.196114	0.653039
N	-0.909076	-2.186423	1.138265
N	-0.547155	1.18249	0.732773
O	-1.775595	1.229675	0.883745
O	0.240381	2.03746	1.118853
H	2.65936	0.0	0.0
