17

C	-0.446567	-0.023349	-1.465523
C	0.0	0.0	0.0
Br	0.320051	1.468422	-2.514098
H	1.091206	0.0	0.0
C	0.127216	-1.2878	-2.101595
H	-0.065974	-1.280356	-3.176517
H	-0.343956	-2.171168	-1.661193
H	1.20595	-1.326043	-1.919499
N	-1.886604	0.136471	-1.543123
H	-2.18306	0.04093	-2.509226
H	-2.317571	-0.60713	-1.000111
C	-0.461783	-1.212656	0.649911
N	-0.754431	-2.253957	1.115063
N	-0.465068	1.161692	0.773456
O	-0.0852	2.268009	0.39196
O	-1.123443	0.961638	1.804628
H	2.478062	0.0	0.0
