16

C	-0.575717	-0.011735	-1.418253
C	0.0	0.0	0.0
Cl	0.304414	-1.306844	-2.349364
H	1.094429	0.0	0.0
N	-1.968485	-0.158363	-1.391599
H	-2.345706	-0.30977	-2.316778
H	-2.18577	-0.917452	-0.755137
N	-0.274089	1.26966	-2.178926
O	0.499859	2.070686	-1.673289
O	-0.859448	1.394116	-3.250412
N	-0.480258	-1.248537	0.647063
H	0.254249	-1.935719	0.492813
H	-0.509272	-1.088546	1.648498
C	-0.52369	1.144865	0.743724
N	-0.920255	2.031315	1.40505
Cl	3.280828	0.0	0.0
