16

C	-0.284209	-0.065206	-1.501208
C	0.0	0.0	0.0
Cl	-0.118276	1.592844	-2.255173
H	1.103162	0.0	0.0
N	0.559826	-1.038492	-2.038819
H	1.527441	-0.841097	-1.7796
H	0.446	-1.154012	-3.034332
N	-1.741054	-0.42934	-1.780773
O	-1.953261	-1.251226	-2.667679
O	-2.586198	0.154518	-1.119611
N	-0.52784	-1.239445	0.595233
H	-0.44843	-1.15571	1.602836
H	0.111055	-1.9773	0.312049
C	-0.540007	1.164882	0.684368
N	-0.929519	2.075288	1.315069
Cl	3.281921	0.0	0.0
