16

C	-0.57208	-0.036735	-1.420065
C	0.0	0.0	0.0
Cl	0.3173	-1.343202	-2.327897
H	1.094215	0.0	0.0
N	-1.96361	-0.192415	-1.397365
H	-2.175314	-0.948735	-0.755523
H	-2.334765	-0.357864	-2.322962
N	-0.271824	1.233296	-2.200126
O	0.506541	2.038412	-1.707926
O	-0.856567	1.342305	-3.273879
N	-0.478136	-1.237944	0.66612
H	0.273451	-1.91355	0.564182
H	-0.558346	-1.052155	1.65917
C	-0.522848	1.157907	0.72263
N	-0.935692	2.047578	1.368329
Cl	3.27884	0.0	0.0
