16

C	-0.380914	0.092477	-1.483071
C	0.0	0.0	0.0
Cl	-2.101188	0.491878	-1.728034
H	1.09501	0.0	0.0
N	0.440655	1.051277	-2.09164
H	0.316334	1.091237	-3.094937
H	1.415904	0.88149	-1.842286
N	-0.168566	-1.348196	-2.066098
O	-1.116117	-2.100333	-2.228718
O	1.007175	-1.60055	-2.296531
N	-0.464151	-1.22514	0.61245
H	-1.398562	-1.126697	0.988688
H	0.174177	-1.481524	1.353908
C	-0.440333	1.221719	0.686053
N	-0.808854	2.139133	1.321121
Cl	3.272405	0.0	0.0
