16

C	-0.534769	-0.021138	-1.449686
C	0.0	0.0	0.0
Cl	0.125373	-1.410984	-2.326367
H	1.091719	0.0	0.0
N	-1.950879	-0.079377	-1.476525
H	-2.320856	0.761168	-1.042191
H	-2.275604	-0.100748	-2.436153
N	-0.005334	1.225122	-2.223634
O	-0.821781	1.80154	-2.943836
O	1.165899	1.523613	-2.064611
N	-0.447232	-1.13737	0.777153
H	-1.363114	-1.433338	0.461495
H	0.215675	-1.890481	0.64767
C	-0.497671	1.247207	0.597797
N	-0.956164	2.245128	1.016364
Cl	3.332454	0.0	0.0
