18

C	0.0	0.0	0.0
C	-0.544884	-0.179112	-1.429861
Br	1.976802	0.0	0.0
H	-1.631889	-0.248667	-1.2702
C	-0.356646	1.317679	0.528553
N	-0.589783	2.390415	0.949641
C	-0.494694	-1.100747	0.923856
H	-0.171559	-2.062019	0.527037
H	-1.589469	-1.043305	0.925854
H	-0.112962	-0.958997	1.936971
N	-0.078593	-1.460562	-1.955681
H	0.783758	-1.323106	-2.471324
H	-0.774417	-1.818091	-2.598647
C	-0.269393	1.008516	-2.344295
H	-0.712454	1.926679	-1.95193
H	-0.717693	0.811261	-3.322304
H	0.806704	1.162703	-2.479291
Br	-3.941449	0.0	0.0
