18

C	0.0	0.0	0.0
C	-0.424507	0.216182	-1.487675
Br	1.976369	0.0	0.0
H	0.102955	-0.567591	-2.04696
C	-0.382482	1.16138	0.799915
N	-0.668099	2.12622	1.408249
C	-0.523819	-1.291323	0.604782
H	-1.611662	-1.219883	0.700272
H	-0.089945	-1.462973	1.5914
H	-0.270589	-2.130648	-0.047563
N	-0.029394	1.500028	-2.042205
H	-0.612428	2.228451	-1.642623
H	0.937254	1.710602	-1.823474
C	-1.925273	0.050093	-1.659445
H	-2.176395	0.309778	-2.689881
H	-2.513162	0.689798	-0.99629
H	-2.269847	-0.965142	-1.469224
Br	-5.020648	0.0	0.0
