18

C	0.0	0.0	0.0
C	-0.554392	0.195779	-1.435638
Br	1.972641	0.0	0.0
H	-1.638231	0.259068	-1.260536
C	-0.346001	1.152359	0.835961
N	-0.560177	2.090315	1.511572
C	-0.496821	-1.283556	0.645311
H	-0.14236	-1.361181	1.674454
H	-1.592651	-1.248419	0.630851
H	-0.136762	-2.146719	0.083603
N	-0.321809	-0.934799	-2.31903
H	0.643456	-1.241365	-2.260221
H	-0.926342	-1.703854	-2.058662
C	-0.07694	1.477874	-2.097305
H	-0.234111	2.347123	-1.454885
H	-0.647228	1.613797	-3.01777
H	0.98373	1.417118	-2.356095
Br	-3.910733	0.0	0.0
