18

C	0.0	0.0	0.0
C	-0.43319	-0.201922	-1.508251
Br	1.972526	0.0	0.0
H	0.320897	0.34187	-2.089106
C	-0.332147	1.37265	0.38912
N	-0.56135	2.4927	0.665177
C	-0.597254	-0.991429	0.97963
H	-0.259789	-2.00386	0.75645
H	-0.317498	-0.739987	2.00423
H	-1.689634	-0.933231	0.887397
N	-1.716354	0.341571	-1.860373
H	-2.500369	-0.048674	-1.332034
H	-1.74968	1.343707	-1.710977
C	-0.389053	-1.675562	-1.888881
H	-1.22363	-2.207329	-1.425515
H	-0.508372	-1.753786	-2.970598
H	0.549871	-2.151928	-1.597789
Br	-4.489795	0.0	0.0
