12
Coordinates from ORCA-job run
  C   0.88945386918214      0.24301569180586      0.39324352894509
  C   -0.24889525949419     -0.18980859477966     -0.51402118400370
  F   0.63881108674168      1.51592015138797      0.88447207012318
  H   0.00312174671782     -1.16964815962420     -0.93165104758425
  H   0.97584044608005     -0.42363489766508      1.25732452328937
  H   -0.29870935314033      0.51557192930262     -1.34840704238658
  C   2.17538205182955      0.26062426209388     -0.32255293467180
  N   3.18865983792232      0.24991336217773     -0.91387976387976
  C   -1.57684501004824     -0.24022392003633      0.23301068767273
  H   -1.53934977173914     -0.95825144016194      1.05632559344081
  H   -2.38267690100859     -0.54263987303425     -0.43792732284486
  H   -1.82679274304305      0.73816148853338      0.64406289189978
