12
Coordinates from ORCA-job run
  C   1.08444833393699     -0.10412120984363     -0.34259710427894
  C   -0.29907769369563     -0.71533339578302     -0.21202797092035
  F   2.02076361453794     -1.10353613117614     -0.55411720675696
  H   -0.47787015828358     -1.29089966923658     -1.12469953262656
  H   1.13139485595242      0.57287238787163     -1.20150916832212
  H   -0.27775437183328     -1.42136605852829      0.62242951296138
  C   1.46037622028732      0.64683219577332      0.86705307474737
  N   1.72605624222280      1.24935923630715      1.83823052975146
  C   -1.38054001282695      0.34100002597087     -0.01081649164243
  H   -2.36538370267091     -0.12672693154361      0.03061705187032
  H   -1.38987321530097      1.06099737134382     -0.83328980538192
  H   -1.23254011232616      0.89092217884447      0.92072711059875
