12
Coordinates from ORCA-job run
  C   0.95923169834494     -0.28477570957885     -0.00701305854209
  C   -0.34599976804127      0.48666200473000     -0.09029217848067
  F   1.09174960982745     -0.84617239137342      1.25476045806166
  H   -0.31141080839402      1.28502341237472      0.65647420519782
  H   0.97409132654199     -1.10819961560339     -0.72836031513413
  H   -0.39619157197717      0.96387487285601     -1.07403754339401
  C   2.12095462898830      0.58340748706358     -0.25829263950343
  N   3.03953302241443      1.27770771947926     -0.48336558994796
  C   -1.55133020383286     -0.41806179530935      0.13941324652914
  H   -1.60082278947190     -1.20865498783096     -0.61377469402395
  H   -2.47764878319764      0.15617837469076      0.08258020271958
  H   -1.50215636120224     -0.88598937149836      1.12290790651804
