12
Coordinates from ORCA-job run
  C   1.06408827260399     -0.35693951737747     -0.21196827574897
  C   -0.28690376224523     -0.61432904714425      0.43064495415918
  F   2.01867512148255     -1.18625027644764      0.35461062581839
  H   -0.50295388639333     -1.67815338380686      0.29771468484875
  H   1.03450473113262     -0.57901817548677     -1.28348792146598
  H   -0.18928315415445     -0.43117053994002      1.50399239997718
  C   1.48922587849099      1.04203355588459     -0.03593168355884
  N   1.79405917417381      2.16591493838056      0.10788278131664
  C   -1.38947509495099      0.24705846008866     -0.17606425487528
  H   -2.35199679521717      0.00623423921973      0.27784247661941
  H   -1.20036195830489      1.31012430086761     -0.01389406879341
  H   -1.47857852661789      0.07749544576185     -1.25234171829707
