12
Coordinates from ORCA-job run
  C   1.09637567598777     -0.17283717959981     -0.26819724075081
  C   -0.32114744540077     -0.71080163260087     -0.19262145470899
  F   1.99260989954722     -1.22498732256434     -0.37024613735025
  H   -0.38519668224243     -1.36944616862564      0.67763209860170
  H   1.22834817018349      0.45414252565354     -1.15579100838667
  H   -0.47341329040270     -1.32757706254411     -1.08289170828605
  C   1.43672634714717      0.62365551423330      0.92272445136895
  N   1.67369530689513      1.26422575424291      1.87688388646947
  C   -1.35879110710867      0.40421519010311     -0.11595352147450
  H   -1.23925003914939      0.99894827816576      0.79177015344980
  H   -2.36629009663786     -0.01431106952765     -0.11019852672354
  H   -1.28366673881896      1.07577317306380     -0.97511099220910
