16

C	-0.589208	0.026121	-1.400805
C	0.0	0.0	0.0
F	-0.286769	1.199767	-2.032514
H	1.098386	0.0	0.0
N	0.00595	-1.094579	-2.250427
O	0.995591	-0.806475	-2.904937
O	-0.551345	-2.183793	-2.186874
C	-2.051112	-0.137647	-1.39947
N	-3.22173	-0.22866	-1.369014
N	-0.424887	-1.203904	0.660186
H	0.340489	-1.547569	1.227487
H	-1.242337	-1.028603	1.231269
N	-0.503191	1.209658	0.678418
H	-0.14035	2.009798	0.165016
H	0.005588	1.226583	1.560258
H	2.792031	0.0	0.0
