16

C	-0.501756	-0.012806	-1.425854
C	0.0	0.0	0.0
F	0.024693	-1.05953	-2.120948
H	1.10089	0.0	0.0
N	-2.023544	-0.235501	-1.428619
O	-2.71794	0.74096	-1.165151
O	-2.41805	-1.379509	-1.617849
C	-0.245392	1.237388	-2.145594
N	-0.034379	2.186437	-2.803287
N	-0.499665	-1.206634	0.681713
H	-0.412269	-1.99603	0.045804
H	0.191323	-1.386067	1.407959
N	-0.414227	1.216195	0.648948
H	0.340895	1.522883	1.251488
H	-1.252151	1.052629	1.193518
H	2.743682	0.0	0.0
