16

C	-0.61097	-0.01931	-1.383806
C	0.0	0.0	0.0
F	-0.080882	0.927898	-2.20591
H	1.095859	0.0	0.0
N	-0.364824	-1.342016	-2.110903
O	0.57375	-2.033081	-1.740731
O	-1.092475	-1.560088	-3.079798
C	-2.072197	0.171432	-1.315665
N	-3.218863	0.390905	-1.186139
N	-0.509623	-1.197356	0.688978
H	-0.763118	-0.930311	1.632044
H	0.274633	-1.840303	0.765965
N	-0.377536	1.262115	0.59461
H	-1.233609	1.200856	1.132161
H	0.38894	1.576609	1.17843
H	2.777406	0.0	0.0
