16

C	-0.504561	-0.013811	-1.425358
C	0.0	0.0	0.0
F	0.030563	-1.052944	-2.123886
H	1.100855	0.0	0.0
N	-2.02395	-0.252188	-1.424077
O	-2.725307	0.713743	-1.141119
O	-2.408293	-1.396615	-1.632189
C	-0.264335	1.240387	-2.143201
N	-0.066936	2.196456	-2.794797
N	-0.497679	-1.209431	0.679298
H	0.175353	-1.371949	1.421891
H	-0.37745	-2.000426	0.051929
N	-0.414351	1.213867	0.652087
H	0.338205	1.516157	1.262067
H	-1.259463	1.05026	1.189903
H	2.745517	0.0	0.0
