16

C	-0.630677	-0.045828	-1.37062
C	0.0	0.0	0.0
F	-1.999115	-0.174388	-1.26929
H	1.092217	0.0	0.0
N	-0.376193	1.263125	-2.111717
O	0.764441	1.412463	-2.525281
O	-1.308387	2.046961	-2.209589
C	-0.13535	-1.137475	-2.215919
N	0.195531	-2.012762	-2.925038
N	-0.35128	-1.257119	0.643058
H	0.419936	-1.51028	1.253162
H	-1.204718	-1.180044	1.18249
N	-0.372305	1.249129	0.634211
H	-1.236114	1.173718	1.156934
H	0.385589	1.508636	1.25741
H	2.721812	0.0	0.0
