16

C	-0.492001	0.001176	-1.431925
C	0.0	0.0	0.0
F	0.0627	-1.025212	-2.133279
H	1.100845	0.0	0.0
N	-2.00856	-0.246141	-1.451851
O	-2.712654	0.700739	-1.116827
O	-2.390606	-1.37356	-1.73143
C	-0.250311	1.266703	-2.129758
N	-0.02789	2.241502	-2.744896
N	-0.518052	-1.216231	0.650328
H	-0.229442	-2.015305	0.08613
H	0.030256	-1.299611	1.50388
N	-0.417216	1.202075	0.667956
H	-1.270939	1.046606	1.187039
H	0.329427	1.498742	1.282435
H	2.76487	0.0	0.0
