18

C	0.0	0.0	0.0
C	-0.197398	-0.080878	-1.551323
F	1.399732	0.0	0.0
H	0.479354	-0.877302	-1.868943
C	-0.532973	1.267109	0.611711
H	-0.102421	2.148665	0.133796
H	-0.283496	1.283637	1.675625
H	-1.622959	1.270215	0.505625
C	-0.496678	-1.243008	0.697252
H	-1.589897	-1.254818	0.684854
H	-0.14726	-1.215544	1.732883
H	-0.113978	-2.14359	0.214551
C	0.223578	1.15998	-2.197893
N	0.627736	2.146869	-2.689074
N	-1.532855	-0.512173	-2.106078
O	-2.20467	0.318123	-2.699168
O	-1.776235	-1.705614	-1.972537
Br	-4.075604	0.0	0.0
