11

C	0.0	0.0	0.0
C	-0.502167	-0.059414	-1.442347
F	1.384443	0.0	0.0
H	0.388084	-0.113182	-2.083726
H	-0.344823	-0.849171	0.587996
H	-0.34969	0.919794	0.465322
H	-1.092015	-0.974841	-1.567584
N	-1.286069	1.142464	-1.740622
H	-1.633317	1.050046	-2.691814
H	-2.099643	0.954275	-1.105407
F	-2.808199	0.0	0.0
