11

C	0.0	0.0	0.0
C	-0.547779	0.13143	-1.412594
F	1.384441	0.0	0.0
H	-1.309602	0.912487	-1.398321
H	-0.327202	0.82873	0.628112
H	-0.348229	-0.932075	0.439815
H	0.28026	0.413519	-2.078492
N	-1.149415	-1.152653	-1.806256
H	-1.462006	-1.066365	-2.76977
H	-1.997002	-1.091887	-1.213635
F	-2.771102	0.0	0.0
