11

C	0.0	0.0	0.0
C	-0.490164	0.230268	-1.407619
F	1.394912	0.0	0.0
H	-0.038047	1.155621	-1.789977
H	-0.35889	-0.95816	0.374063
H	-0.352998	0.786027	0.666133
H	-1.579486	0.328487	-1.275281
N	-0.163973	-0.867485	-2.331945
H	0.781692	-1.17873	-2.128885
H	-0.781418	-1.636646	-2.09345
F	-2.771148	0.0	0.0
