15

C	0.0	0.0	0.0
C	-0.458693	0.001453	-1.516381
Cl	1.790718	0.0	0.0
H	0.393	0.427685	-2.057527
H	-0.360896	-0.874473	0.538646
C	-0.407648	1.21947	0.693781
N	-0.579856	2.244451	1.241724
N	-1.635963	0.761577	-1.845914
H	-1.47167	1.745343	-1.644046
H	-2.403877	0.462053	-1.187324
C	-0.653844	-1.447935	-1.941255
H	0.238771	-2.051838	-1.744955
H	-0.875371	-1.472865	-3.009985
H	-1.509942	-1.856639	-1.400522
H	-3.279857	0.0	0.0
