15

C	0.0	0.0	0.0
C	-0.474457	0.086523	-1.507645
Cl	1.790401	0.0	0.0
H	0.376262	0.533167	-2.035706
H	-0.358905	-0.902644	0.492373
C	-0.402185	1.177706	0.765735
N	-0.602365	2.16763	1.365138
N	-1.646829	0.874514	-1.778555
H	-2.422199	0.535428	-1.146911
H	-1.474921	1.841938	-1.518675
C	-0.697831	-1.337103	-2.002051
H	-1.596903	-1.726702	-1.51849
H	0.154939	-1.987377	-1.778608
H	-0.864816	-1.323584	-3.080567
H	-3.342236	0.0	0.0
