15

C	0.0	0.0	0.0
C	-0.469104	-0.177341	-1.502784
Cl	1.788418	0.0	0.0
H	0.394396	0.143051	-2.097442
H	-0.360569	-0.802452	0.641411
C	-0.403619	1.29345	0.546936
N	-0.597175	2.376041	0.959428
N	-1.618606	0.579223	-1.923458
H	-2.396973	0.370925	-1.243636
H	-1.420766	1.572418	-1.839968
C	-0.733671	-1.660187	-1.731832
H	-1.648599	-1.92229	-1.196599
H	0.093922	-2.28453	-1.380559
H	-0.892287	-1.838875	-2.797143
H	-3.279751	0.0	0.0
