15

C	0.0	0.0	0.0
C	-0.470784	-0.375607	-1.465882
Cl	1.788396	0.0	0.0
H	0.393675	-0.142642	-2.09819
H	-0.359083	-0.711693	0.742165
C	-0.403462	1.353981	0.371376
N	-0.597891	2.480783	0.641063
N	-1.617522	0.32259	-1.984712
H	-1.415789	1.317511	-2.032174
H	-2.396165	0.207724	-1.283416
C	-0.741619	-1.874539	-1.492944
H	-0.906638	-2.193924	-2.523704
H	-1.652926	-2.060254	-0.920938
H	0.087757	-2.448371	-1.06661
H	-3.276516	0.0	0.0
