15

C	0.0	0.0	0.0
C	-0.241771	-0.022165	-1.563387
Cl	1.793581	0.0	0.0
H	0.526805	-0.729866	-1.913946
H	-0.30265	-0.947577	0.439207
C	-0.659342	1.094761	0.700364
N	-0.666633	2.078088	1.372064
N	0.002848	1.330535	-2.06918
H	-0.01903	1.301033	-3.083696
H	0.930016	1.634275	-1.79362
C	-1.533885	-0.520133	-2.194957
H	-1.852111	-1.468045	-1.76346
H	-1.327113	-0.670133	-3.271536
H	-2.339016	0.195152	-2.064816
H	-2.149884	0.0	0.0
