16

C	0.0	0.0	0.0
C	-0.627992	-0.05612	-1.414946
Cl	1.846933	0.0	0.0
H	-1.634286	-0.464422	-1.233286
C	-0.316342	1.301378	0.609957
N	-0.485237	2.357975	1.094
N	-0.489064	-1.049861	0.792276
H	-0.548978	-1.921505	0.286866
H	-0.018419	-1.143875	1.679621
N	0.150381	-1.083248	-2.203312
O	0.024392	-2.253283	-1.831292
O	0.860878	-0.710957	-3.127587
N	-0.752359	1.150113	-2.138608
H	-1.62097	1.589732	-1.854308
H	0.028456	1.778435	-2.014411
Br	-3.729862	0.0	0.0
