16

C	0.0	0.0	0.0
C	-0.513579	0.298499	-1.448399
Cl	1.822487	0.0	0.0
H	-0.38553	-0.619703	-2.026713
C	-0.381843	1.06866	0.928318
N	-0.628105	1.88943	1.731843
N	-0.581693	-1.217544	0.403378
H	-0.187914	-2.016961	-0.075989
H	-0.614784	-1.355952	1.40259
N	0.386586	1.311133	-2.104094
O	1.02337	0.963288	-3.093977
O	0.386288	2.434623	-1.607026
N	-1.830905	0.793854	-1.549797
H	-2.560227	0.146526	-1.232742
H	-1.950524	1.636075	-0.99879
Br	-4.643389	0.0	0.0
