14

C	0.0	0.0	0.0
C	-0.470891	-0.104115	-1.453464
F	1.345095	0.0	0.0
H	0.358783	-0.579338	-1.988878
H	-0.368042	-0.847482	0.56448
N	-0.417538	1.201917	0.800262
O	-0.371342	1.031338	2.015883
O	-0.640067	2.264051	0.236461
N	-0.573933	1.230728	-2.155076
O	-1.663542	1.614697	-2.55123
O	0.499911	1.808151	-2.314892
C	-1.680572	-0.913507	-1.634032
N	-2.27129	-1.763609	-2.204985
F	-2.350114	0.0	0.0
