14

C	0.0	0.0	0.0
C	-0.285922	-0.041738	-1.517317
F	1.352387	0.0	0.0
H	0.180636	0.859156	-1.922292
H	-0.412332	-0.810303	0.579435
N	-0.40222	1.288225	0.632144
O	-0.393456	2.292213	-0.075545
O	-0.537024	1.269149	1.850139
N	-1.687156	-0.029536	-2.096379
O	-2.09989	1.07016	-2.436547
O	-2.187702	-1.10933	-2.378144
C	0.394507	-1.217202	-2.070757
N	0.966485	-2.138078	-2.521841
F	-2.256645	0.0	0.0
