16

C	-0.397719	-0.023437	-1.470811
C	0.0	0.0	0.0
Cl	-2.181805	-0.389823	-1.626618
H	1.096229	0.0	0.0
H	-0.320743	-0.956838	0.426568
C	-0.205847	1.285342	-2.102211
N	-0.060361	2.335499	-2.607494
C	0.380309	-1.094119	-2.222548
H	0.16179	-2.067446	-1.778285
H	1.447889	-0.887879	-2.101647
H	0.107772	-1.111552	-3.279307
C	-0.545787	1.167511	0.803851
H	-1.639138	1.19303	0.801317
H	-0.20329	1.085472	1.837856
H	-0.172412	2.116043	0.411596
Br	3.631038	0.0	0.0
