16

C	-0.537297	-0.048955	-1.431019
C	0.0	0.0	0.0
Cl	0.159806	1.30022	-2.406229
H	1.093445	0.0	0.0
H	-0.317942	-0.932847	0.483231
C	-0.140859	-1.30389	-2.078132
N	0.068189	-2.340833	-2.588748
C	-2.058847	0.065559	-1.509279
H	-2.514614	-0.720941	-0.900741
H	-2.398088	-0.039749	-2.541031
H	-2.376513	1.038261	-1.134065
C	-0.488304	1.197658	0.80711
H	0.058189	1.22282	1.752048
H	-0.271884	2.131944	0.285133
H	-1.55796	1.159017	1.033339
Br	3.645736	0.0	0.0
