17

C	-0.437309	-0.016485	-1.447153
C	0.0	0.0	0.0
Cl	-0.29842	1.581626	-2.14351
H	1.087688	0.0	0.0
N	0.517866	-0.950029	-2.298314
O	1.597896	-1.172719	-1.766178
O	0.177706	-1.225575	-3.443696
N	-1.910388	-0.466727	-1.643231
O	-2.633631	-0.161382	-0.708481
O	-2.231462	-1.041632	-2.667328
N	-0.478828	-1.227502	0.66254
O	-0.578919	-2.211411	-0.08315
O	-0.437985	-1.243613	1.894935
N	-0.354307	1.189273	0.869268
O	-1.513526	1.350337	1.225043
O	0.58803	1.95279	1.092273
H	2.480663	0.0	0.0
