13
Coordinates from ORCA-job run
  C   -0.31986635470502      0.19144648411418     -0.04369616528577
  C   -0.54667668277782     -1.18272197250742      0.55912144579090
  Br  -1.76990385753767      1.38213463612442      0.59691542566474
  H   -0.53266033378290     -1.14057351891268      1.64849828115555
  H   -1.50370027780983     -1.58321806545853      0.22519119549342
  H   0.25284265948143     -1.85646783047017      0.22950751093491
  C   0.99128901266024      0.81172033700194      0.42385575436341
  H   1.11902766873546      1.80943811075819     -0.00118163873310
  H   1.03539747214659      0.89223341814760      1.51164860951289
  H   1.81925559140302      0.17995001722637      0.08351259555175
  N   -0.46874724398526      0.10366564111327     -1.47953373987679
  H   0.17031864762786     -0.59902349906511     -1.83721156595789
  H   -0.24657630145609      0.99141624192792     -1.91562770861402
