13
Coordinates from ORCA-job run
  C   -0.25181281940119      0.27441292690056     -0.04692180189144
  C   -0.58589459663872     -1.10882361755590      0.49853207693303
  Br  -1.67738093006704      1.49489140376431      0.59254165320028
  H   0.18193072785178     -1.81383110276914      0.16103621264176
  H   -1.55493721188477     -1.44671726278115      0.12543850152627
  H   -0.61473443559127     -1.11714952221541      1.58977949050669
  C   1.07359183469226      0.79045653989255      0.48239491848023
  H   1.26652021722390      1.79033058669360      0.09402529086167
  H   1.07653601550064      0.81910486277839      1.57229633854477
  H   1.87739956158207      0.12194003453696      0.15256420474406
  N   -0.24957624507876      0.37067313012117     -1.48991303484400
  H   -1.09284094109350     -0.03899265619060     -1.87555072417863
  H   0.55019882290460     -0.13629532317535     -1.85522312652468
