12

C	0.0	0.0	0.0
C	-0.444507	0.271383	-1.437782
F	1.394815	0.0	0.0
H	-1.539532	0.333822	-1.426165
H	-0.332853	0.81451	0.645635
H	-0.145526	-0.575956	-2.063721
N	-0.479697	-1.226606	0.544355
H	-0.401978	-1.962806	-0.149503
H	-1.476687	-1.095896	0.725973
C	0.137337	1.49065	-1.992804
N	0.60098	2.470133	-2.444087
Br	-3.715065	0.0	0.0
