12

C	0.0	0.0	0.0
C	-0.428273	-0.465563	-1.403981
F	1.410557	0.0	0.0
H	0.23272	-1.271177	-1.721102
H	-0.351413	1.01147	0.190825
H	-1.447016	-0.862542	-1.313478
N	-0.415949	-0.862477	1.060734
H	-1.433992	-0.840645	1.079715
H	-0.125855	-1.811533	0.852332
C	-0.485966	0.596484	-2.404596
N	-0.638092	1.483228	-3.156523
Br	-3.594705	0.0	0.0
