12

C	0.0	0.0	0.0
C	-0.438188	0.143229	-1.463318
F	1.387855	0.0	0.0
H	-0.05667	1.079226	-1.882105
H	-0.347135	0.879151	0.546329
H	-1.534628	0.163384	-1.466054
N	-0.466947	-1.162208	0.678786
H	-0.330648	-1.978563	0.091826
H	-1.471817	-1.042402	0.812853
C	0.047488	-0.971665	-2.271469
N	0.416756	-1.879715	-2.917233
Br	-3.698426	0.0	0.0
