15
Coordinates from ORCA-job run
  C   -0.67813385031474      0.52335897201800     -0.32080493905504
  C   0.51064042043721     -0.43861516637653     -0.31393228477197
  F   -0.68933370004101      1.25924834416954     -1.45598508523130
  H   0.44770446141765     -1.04204638473812     -1.22009549228603
  C   -0.71713489637431      1.38969470447471      0.85582403911332
  N   -0.69477682348473      2.09350239414548      1.79658800417889
  N   -1.93131351040117     -0.36633407203991     -0.34244833903277
  O   -2.65316764701052     -0.35794698651225      0.64221325102080
  O   -2.06461843295991     -1.00974392400077     -1.37307260370498
  N   0.47748851569702     -1.21798133680355      0.85999746973543
  H   1.06276401372489     -2.03836067500920      0.78866362659097
  H   0.74197141320546     -0.67898238356126      1.67662693975476
  N   1.76652320078097      0.42098180055997     -0.49181542171402
  O   2.28360120708893      0.84282901812781      0.53962039510703
  O   2.13978562823426      0.62039569554608     -1.64237955970509
