15
Coordinates from ORCA-job run
  C   -0.62595068389945      0.46337255105436     -0.44865352637910
  C   0.52450209730832     -0.49917054122855     -0.15386521876124
  F   -0.46553878842647      1.02094979527656     -1.67259484716604
  H   0.50022522205879     -1.28547809751063     -0.90686995467180
  C   -0.79546155701735      1.49684266162681      0.56911033117011
  N   -0.90824281278222      2.36033619041583      1.35756125626656
  N   -1.89534975617608     -0.40372270163308     -0.50582516853974
  O   -1.93329331428083     -1.16692013366875     -1.45908287490925
  O   -2.71981220287306     -0.26249226679802      0.38288851702098
  N   0.39700885578807     -1.00058777314514      1.15714268252002
  H   0.60386306007929     -0.29422612860305      1.85472205881360
  H   0.96164736055262     -1.82413608433523      1.31402620214523
  N   1.81093992240017      0.27651234662083     -0.43267428528791
  O   2.16634167555358      1.06366542376496      0.44129484953728
  O   2.37812092171465      0.05205475816309     -1.49718002175869
