15
Coordinates from ORCA-job run
  C   -0.82096101125047     -0.04460793504416     -0.08219787693350
  C   0.71449300949264     -0.08442023459088     -0.16033192423901
  F   -1.31782398308373     -1.17232781677461      0.46731462312612
  H   1.06274421642504      0.77543448232575     -0.73070466854955
  C   -1.34786075905339      0.11913235534791     -1.44164048818176
  N   -1.72614138718625      0.24031792955449     -2.54734422815798
  N   -1.30699287673734      1.15933975502365      0.72922959225300
  O   -0.68624584836383      2.18994689467284      0.50751662784451
  O   -2.26151193996247      0.98577374872419      1.46257100270234
  N   1.20763409749153     -1.29304817072468     -0.70291409926612
  H   1.48782732354050     -1.23183754485030     -1.66769725349162
  H   0.63448846853588     -2.10171019280152     -0.51584731558663
  N   1.30415848905218      0.11626085015584      1.23112121908855
  O   2.49686400867307      0.37972383498186      1.25511445110384
  O   0.56032819242664     -0.03797795600036      2.19681033828781
