15
Coordinates from ORCA-job run
  C   -0.68142744530142      0.50665722902395     -0.42981083961458
  C   0.55513481364292     -0.39227424711729     -0.28714034445797
  F   -0.76453887426421      1.10832636541403     -1.63827108500698
  H   0.65216705304687     -0.97065682612288     -1.20808758904325
  C   -0.75491514649496      1.48473021144011      0.65437256958244
  N   -0.71115795858784      2.30117324376049      1.49868510529979
  N   -1.88850190970571     -0.43778551999982     -0.35720434147311
  O   -2.80948006342515     -0.13135960829884      0.38360708822072
  O   -1.81597457568552     -1.40419733470296     -1.10440772605791
  N   0.40262133586936     -1.17852161589212      0.88764719097826
  H   1.06761948092768     -0.89885006561408      1.59806787029721
  H   0.50141048619510     -2.16400073840606      0.69295654037413
  N   1.78736548721854      0.50873912453309     -0.23684088267835
  O   1.91563933011324      1.28863540124927     -1.17192499222271
  O   2.54503798645109      0.37938438073310      0.71835143580231
