17

C	-0.5711	0.140592	-1.396619
C	0.0	0.0	0.0
F	-1.937683	0.558625	-1.325743
H	1.096433	0.0	0.0
N	-6.4e-05	1.31966	-2.189402
O	0.355551	2.317437	-1.573433
O	-0.027887	1.220751	-3.414624
N	-0.398304	-1.012241	-2.136823
H	-0.898938	-1.004627	-3.01084
H	-0.583623	-1.803133	-1.531299
N	-0.371724	-1.336033	0.491976
H	-1.088836	-1.196124	1.19404
H	0.457354	-1.708112	0.947888
N	-0.48582	1.033674	0.918615
H	-0.7876	1.843719	0.393946
H	0.336463	1.333577	1.437067
H	2.821758	0.0	0.0
