17

C	-0.563721	-0.003908	-1.408714
C	0.0	0.0	0.0
F	-0.151317	1.091487	-2.115905
H	1.094613	0.0	0.0
N	-0.011304	-1.186723	-2.24094
O	0.673587	-2.041937	-1.69385
O	-0.360961	-1.200333	-3.423801
N	-1.975305	-0.048653	-1.401078
H	-2.3338	-0.253122	-2.326027
H	-2.234946	-0.761357	-0.72485
N	-0.568515	-1.168529	0.699319
H	0.14655	-1.889065	0.689438
H	-0.673079	-0.861633	1.658665
N	-0.402878	1.218666	0.68438
H	0.381373	1.856235	0.646169
H	-1.203338	1.643504	0.2359
H	2.895989	0.0	0.0
