17

C	-0.488562	-0.075259	-1.430769
C	0.0	0.0	0.0
F	-1.834969	-0.365483	-1.448736
H	1.092972	0.0	0.0
N	-0.351053	1.291106	-2.087988
O	-1.351921	1.994432	-2.165251
O	0.770893	1.588687	-2.479432
N	0.200557	-1.019816	-2.243837
H	1.180672	-0.734257	-2.224251
H	0.156926	-1.882257	-1.70553
N	-0.330719	-1.295556	0.604186
H	0.404961	-1.512718	1.269368
H	-1.219943	-1.254169	1.088418
N	-0.445942	1.20826	0.655502
H	0.16836	1.395643	1.438713
H	-1.403211	1.133084	0.980361
H	2.837768	0.0	0.0
