17

C	-0.303525	-0.20922	-1.485821
C	0.0	0.0	0.0
F	-1.499409	-0.892705	-1.709331
H	1.098775	0.0	0.0
N	-0.59068	1.165027	-2.142579
O	0.389921	1.783191	-2.544421
O	-1.751119	1.551403	-2.199769
N	0.754656	-0.893663	-2.080203
H	0.797238	-0.772691	-3.082124
H	1.649456	-0.646135	-1.633782
N	-0.422366	-1.167758	0.772943
H	-0.991456	-1.78381	0.206552
H	0.417319	-1.673172	1.038986
N	-0.493756	1.264276	0.503953
H	-1.343372	1.085568	1.025978
H	0.202213	1.608626	1.156392
H	2.836047	0.0	0.0
