17

C	-0.544465	0.03278	-1.414733
C	0.0	0.0	0.0
F	-1.913049	0.477037	-1.395397
H	1.090587	0.0	0.0
N	0.060479	1.134721	-2.280879
O	-0.064642	0.992041	-3.497204
O	0.560545	2.109194	-1.732487
N	-0.390762	-1.173361	-2.067771
H	-0.614413	-1.91328	-1.41301
H	-0.876313	-1.208507	-2.950445
N	-0.392242	-1.296607	0.584161
H	-1.054536	-1.090153	1.322401
H	0.450114	-1.656397	1.027507
N	-0.446565	1.119697	0.815745
H	-1.16488	1.646951	0.339266
H	0.35519	1.727472	0.942103
H	2.815981	0.0	0.0
