14
Coordinates from ORCA-job run
  C   -0.93876192969249     -0.02097759035949      0.37881694043032
  C   0.46946779424525     -0.30384415030913     -0.12891596489758
  Br  -1.01958715918192      1.55622049219080      1.46338922234541
  H   0.43865766616352     -1.25276479843296     -0.66893987795478
  H   -1.31598527245561     -0.85863252413695      0.96100369739382
  N   -1.82060715300862      0.07346071684812     -0.85261997794077
  O   -2.32610824695852      1.13599279264045     -1.16762628533477
  O   -1.91718078351641     -0.99785879397597     -1.44440672725843
  N   1.31742976797726     -0.62297386146586      1.12074194985133
  O   0.91688288911753     -1.55280043617615      1.81360361462822
  O   2.32010513807809      0.05368135334916      1.31173483807125
  N   0.96082548911393      0.72660949269879     -0.94736231833110
  H   1.82668094717396      0.47103897559399     -1.40021327244789
  H   1.08818085294405      1.59184833153519     -0.43920583855503
