14
Coordinates from ORCA-job run
  C   -0.90884920510822     -0.07409643226425      0.34667009251638
  C   0.57363762992887     -0.28552458346813     -0.01009614764579
  Br  -1.20823367864341      1.55920058036040      1.29547869049281
  H   0.64918447571079     -1.27129090164118     -0.47395188381782
  H   -1.29279646735058     -0.90255912748481      0.93841020825796
  N   -1.64521519529484     -0.11504221633131     -0.97387595088530
  O   -2.02946596590809      0.92156565439048     -1.49374055028294
  O   -1.72222897646690     -1.24748528549146     -1.44552704166125
  N   1.28351971422288     -0.43638044456872      1.33100917685290
  O   0.94486629342263     -1.42044369318464      1.98432438312244
  O   2.08682383891037      0.42242631637602      1.66103550292099
  N   1.20606440711255      0.68599558753708     -0.80980839735470
  H   0.98581307093557      1.63717326592809     -0.55175320423056
  H   1.07788005852839      0.52746127984242     -1.79717487828511
