14
Coordinates from ORCA-job run
  C   -0.77311187747700      0.29918452029775     -0.55521044436479
  C   0.47793606430841     -0.38155901899427     -0.04035521706800
  Br  -1.44816196561910     -0.63215489455814     -2.10735325208471
  H   0.24629920568930     -1.39601858866440      0.29870772406596
  H   -0.59299277914546      1.33626106083158     -0.82484664493447
  N   -1.86050686861053      0.29327940564126      0.48431996695628
  O   -1.87339006497173     -0.64833488031721      1.27021108333138
  O   -2.65308911402602      1.22357483712707      0.43691057495816
  N   0.94634606424414      0.34104122886683      1.20357310827633
  O   1.87526342278207     -0.20030180928509      1.79176377849515
  O   0.40806127845315      1.40081341795985      1.50696372505602
  N   1.56082589071475     -0.24311815307116     -0.98220229790952
  H   1.31000832404759     -0.67021364960946     -1.86482406612174
  H   2.37551241961040     -0.72245347622461     -0.61665803865604
