14
Coordinates from ORCA-job run
  C   -0.72007868181510      0.16609828980519     -0.58952827154909
  C   0.52779765146559     -0.43693426739715      0.04694348606868
  Br  -1.32932494161573     -0.95174010881216     -2.03492378580378
  H   0.31403695477896     -1.42886748007748      0.43926872812991
  H   -0.54454667224633      1.16801614406792     -0.97464311561742
  N   -1.83124311238971      0.29159925232191      0.41656098223358
  O   -2.56603359655828      1.26481849785959      0.29878360823198
  O   -1.90996662940653     -0.59710496168207      1.26025611070944
  N   0.85459188839661      0.41759941739996      1.25407881529195
  O   0.81936498546852      1.63423788766729      1.06590908930008
  O   1.17400902691099     -0.15466901935936      2.28588462250427
  N   1.69225200638951     -0.45076243217824     -0.77565961581113
  H   1.76563133203792      0.36833824176435     -1.36393619731365
  H   1.75150978858358     -1.29062946137973     -1.33099445637482
