14
Coordinates from ORCA-job run
  C   -0.82548474763539      0.11097231343020     -0.61180467739502
  C   0.45877384819251     -0.47730175425272     -0.05304119967666
  Br  -1.62883114719875     -1.09000636743383     -1.87840937051354
  H   0.27513858714593     -1.45183391193529      0.39495776301219
  H   -0.67168157191696      1.07435099157039     -1.09238171912465
  N   -1.81219404137805      0.35252922828840      0.49706464324307
  O   -2.55923730603624      1.31301752378613      0.36190309813586
  O   -1.79636188318528     -0.44451504545217      1.43083212512417
  N   0.89568712764414      0.40918335448689      1.11172670704490
  O   0.72784966216653      1.62153537362442      0.97232214157841
  O   1.46493045436903     -0.14522750356248      2.04456685833466
  N   1.46012816001882     -0.55320138637876     -1.05640349323269
  H   1.74959413641228      0.36309570325590     -1.37503953637309
  H   2.26268872140143     -1.08259851942709     -0.74429334015763
