14

C	0.0	0.0	0.0
C	-0.402389	-0.014899	-1.523916
Br	1.897433	0.0	0.0
H	-0.148752	0.958516	-1.965507
H	-1.481605	-0.109019	-1.624129
N	-0.404825	1.490913	0.75136
O	0.514522	2.226958	1.158621
O	-1.556494	1.629634	0.978448
N	-0.491559	-1.146064	0.686859
O	-0.445144	-1.028853	1.933623
O	-0.992312	-2.026692	0.060295
C	0.141722	-1.117788	-2.329537
N	0.502131	-1.950971	-3.075188
H	-1.638332	0.0	0.0
