16

C	-0.495796	0.009909	-1.428819
C	0.0	0.0	0.0
Br	0.120383	1.666756	-2.287586
H	1.090441	0.0	0.0
H	0.060635	-0.78169	-1.932431
C	-1.991557	-0.13503	-1.645442
H	-2.204725	-0.223037	-2.713627
H	-2.338704	-1.038319	-1.13982
H	-2.528924	0.7226	-1.244929
N	-0.370537	-1.196773	0.692779
O	-0.405939	-2.244282	0.011575
O	-0.413501	-1.162284	1.936299
N	-0.476565	1.166847	0.796855
O	0.364668	1.935865	1.251305
O	-1.696203	1.289889	0.939926
H	2.423111	0.0	0.0
