16

C	-0.43516	0.003445	-1.436158
C	0.0	0.0	0.0
Br	-2.397753	-0.228595	-1.638646
H	1.091762	0.0	0.0
H	-0.262109	1.015785	-1.798069
C	0.302646	-1.006449	-2.289215
H	0.102032	-0.81445	-3.346341
H	0.010188	-2.026256	-2.045889
H	1.372348	-0.891898	-2.075668
N	-0.42935	-1.204474	0.725814
O	-1.281023	-1.13048	1.610619
O	0.111962	-2.248178	0.351748
N	-0.360799	1.20999	0.741086
O	-0.81162	2.178787	0.114165
O	-0.028	1.233235	1.928592
H	2.448578	0.0	0.0
