16

C	-0.501044	-0.005148	-1.423243
C	0.0	0.0	0.0
Br	0.386726	-1.506004	-2.373593
H	1.088649	0.0	0.0
H	-1.553964	-0.284799	-1.454128
C	-0.204206	1.268577	-2.190416
H	-0.776307	2.102518	-1.781653
H	0.856172	1.507569	-2.113193
H	-0.475258	1.132981	-3.238577
N	-0.482234	-1.155111	0.771553
O	0.096597	-1.345934	1.844772
O	-1.363565	-1.885123	0.301097
N	-0.375395	1.209655	0.729673
O	0.234539	2.237561	0.402155
O	-1.226135	1.149647	1.630767
H	2.421914	0.0	0.0
