16

C	-0.49396	0.009112	-1.429623
C	0.0	0.0	0.0
Br	0.097558	1.680581	-2.276948
H	1.090257	0.0	0.0
H	0.079032	-0.769273	-1.935439
C	-1.985966	-0.163933	-1.654256
H	-2.317772	-1.075561	-1.152856
H	-2.19228	-0.254701	-2.723567
H	-2.54107	0.681809	-1.25389
N	-0.374253	-1.197824	0.689126
O	-0.472387	-1.159794	1.92974
O	-0.368199	-2.247275	0.010549
N	-0.474018	1.164169	0.803086
O	0.370694	1.868939	1.345757
O	-1.692402	1.347601	0.868209
H	2.423049	0.0	0.0
