15

C	0.0	0.0	0.0
C	-0.356084	-0.027132	-1.521471
Br	1.927141	0.0	0.0
H	0.168958	0.857203	-1.906358
C	-0.437212	1.237623	0.630762
N	-0.591629	2.307218	1.093874
N	-0.461557	-1.189509	0.81408
O	-0.545003	-1.015206	2.019924
O	-0.590639	-2.253472	0.2278
C	-1.782286	0.158721	-1.878922
N	-2.567399	0.34018	-2.748471
N	0.234161	-1.180099	-2.204475
H	-0.307659	-1.994776	-1.943175
H	0.080392	-1.023791	-3.194276
F	-2.33947	0.0	0.0
