13
Coordinates from ORCA-job run
  C   -0.34317318485935      0.23665358424089      0.10334400750160
  C   1.13172251027185      0.05806445149309     -0.25499036803161
  F   -0.37715374967685      0.27988690816949      1.53329346553214
  H   1.69728067254363      0.89982588846067      0.15174616088496
  H   1.22506616809918      0.06667932910419     -1.34140112939415
  N   -1.12419218140878     -0.84454081105681     -0.37427358345598
  H   -0.74002766753911     -1.72235989438747     -0.04474336899316
  H   -2.06855190302996     -0.77001523168155     -0.01316658300002
  N   -0.81251275597878      1.46948751186911     -0.42677218109068
  H   -0.52586958658073      2.23323979476063      0.17233366897417
  H   -1.82085671294574      1.47645489675551     -0.50452011050152
  C   1.67671172492230     -1.18400751722986      0.28773183912078
  N   2.08155666618235     -2.20036891049790      0.71141818245347
