13
Coordinates from ORCA-job run
  C   -0.33458643071429      0.24623773161021      0.10728619236346
  C   1.11038655229490      0.01705115604816     -0.33726746852767
  F   -0.26606188060475      0.41826831301568      1.52455345870912
  H   1.11970218711882     -0.08511458245575     -1.42316486852815
  H   1.70500613451529      0.89203818426555     -0.06466562664584
  N   -1.15245281089379     -0.86098296709948     -0.22303926164242
  H   -2.08012645967182     -0.73801602565564      0.16550078937112
  H   -0.76309391005980     -1.71266312878858      0.16205485899958
  N   -0.83067964683403      1.43507100710839     -0.49699969300569
  H   -1.84150839108369      1.46608586886568     -0.46321231094693
  H   -0.46431339067642      2.24317763520807     -0.01040227883636
  C   1.68591574124137     -1.17221597992464      0.28478451827415
  N   2.11181230536820     -2.14893721219765      0.77557169041563
