15

C	-0.410564	-0.017003	-1.424391
C	0.0	0.0	0.0
F	0.124806	-0.97551	-2.160316
H	1.089048	0.0	0.0
H	-0.336729	0.906323	0.492345
N	-1.931526	-0.062104	-1.65915
O	-2.318378	-0.594419	-2.692202
O	-2.624037	0.484735	-0.809833
N	-0.021392	1.324422	-2.071051
O	-0.336598	2.333409	-1.451609
O	0.529293	1.267796	-3.160773
N	-0.548572	-1.141225	0.723566
O	-0.47803	-1.107058	1.94903
O	-1.027686	-2.080553	0.077189
F	2.468736	0.0	0.0
