15

C	-0.667787	0.050581	-1.324503
C	0.0	0.0	0.0
F	-2.015884	-0.009158	-1.267567
H	1.087464	0.0	0.0
H	-0.311575	0.868891	0.579719
N	-0.345755	1.351336	-2.060504
O	-1.020947	1.550012	-3.068856
O	0.530643	2.074985	-1.605711
N	-0.210984	-1.021099	-2.30843
O	-1.059138	-1.77176	-2.764097
O	0.983258	-0.980995	-2.571954
N	-0.455195	-1.183431	0.728825
O	-0.619249	-1.078087	1.944197
O	-0.581337	-2.23513	0.094379
F	2.458713	0.0	0.0
