15

C	-0.614796	-0.091883	-1.347362
C	0.0	0.0	0.0
F	-1.970055	-0.057955	-1.345571
H	1.087462	0.0	0.0
H	-0.330287	-0.849288	0.594196
N	-0.133692	0.950658	-2.345065
O	-0.971789	1.682659	-2.849692
O	1.067143	0.914184	-2.566626
N	-0.268782	-1.423374	-2.015384
O	0.13201	-2.334771	-1.303914
O	-0.516448	-1.48415	-3.216532
N	-0.460304	1.210416	0.679209
O	-0.566269	2.242824	0.011495
O	-0.655262	1.143297	1.893021
F	2.464392	0.0	0.0
