15

C	-0.487024	0.007606	-1.404802
C	0.0	0.0	0.0
F	0.067392	1.038682	-2.060835
H	1.091523	0.0	0.0
H	-0.346	0.911166	0.487381
N	-0.171691	-1.248506	-2.219412
O	-1.110722	-1.971978	-2.531481
O	1.004285	-1.384149	-2.510762
N	-2.006154	0.18457	-1.554478
O	-2.397936	0.698102	-2.595613
O	-2.69933	-0.202829	-0.621408
N	-0.467591	-1.133388	0.788167
O	-0.741406	-0.928307	1.970544
O	-0.48125	-2.241638	0.247437
F	2.464138	0.0	0.0
