15

C	-0.401656	0.062587	-1.42586
C	0.0	0.0	0.0
F	0.176361	1.012041	-2.141661
H	1.089072	0.0	0.0
H	-0.34934	-0.913759	0.468177
N	-0.065725	-1.280898	-2.095875
O	-0.433615	-2.287177	-1.501259
O	0.505538	-1.229147	-3.174526
N	-1.920377	0.176021	-1.667499
O	-2.642076	-0.338848	-0.823329
O	-2.275169	0.72439	-2.70384
N	-0.536301	1.130148	0.749811
O	-0.947047	2.114854	0.12524
O	-0.519646	1.041477	1.976091
F	2.46793	0.0	0.0
