15

C	-0.431314	0.03366	-1.416717
C	0.0	0.0	0.0
F	0.024746	-0.954489	-2.170806
H	1.089073	0.0	0.0
H	-0.318567	0.897474	0.520422
N	-1.959442	0.09895	-1.626722
O	-2.58687	0.74562	-0.798428
O	-2.410428	-0.459157	-2.617574
N	0.051045	1.348139	-2.050761
O	0.554861	1.263693	-3.163176
O	-0.142936	2.368218	-1.400471
N	-0.564467	-1.152624	0.697472
O	-1.198328	-1.99218	0.05008
O	-0.351575	-1.220688	1.905778
F	2.467814	0.0	0.0
