14
Coordinates from ORCA-job run
  C   -0.40314418064663      0.32029370469091     -0.00978730263464
  C   0.85979770233355     -0.15044251175759      0.18332155346525
  C   -1.50062736478841     -0.56279469139182     -0.50127267499141
  H   -1.52976990609363     -1.49360240516400      0.07361628254919
  H   -1.36374624052660     -0.81567898845427     -1.55903310341734
  H   -2.45911793648817     -0.06124758354439     -0.39444559552667
  N   -0.72096096474112      1.70669460245345      0.30987737044122
  O   -1.91359005794197      1.99515303124904      0.42253737782711
  O   0.20775926992284      2.50319040415106      0.43974693960552
  N   1.17492226748013     -1.47721131305339     -0.05532814123500
  H   2.15997106787722     -1.68190943698016     -0.11357732326018
  H   0.62096710990019     -1.94748357007446     -0.75409675645526
  C   1.94270951806932      0.60311039317756      0.74948086484971
  N   2.92482971564325      1.06192836469807      1.20796050878248
