14
Coordinates from ORCA-job run
  C   -0.40343200429796      0.18793871801167     -0.10805990044059
  C   0.85422200001328     -0.21453883409997      0.26868988927799
  C   -1.21968862587847     -0.43451601643531     -1.19382303280320
  H   -2.14191116166678     -0.85434584463386     -0.78674375947105
  H   -0.66210857956451     -1.22434413996498     -1.69590133234593
  H   -1.50649651816099      0.31810950420756     -1.93117098173945
  N   -1.05486293175695      1.26267595813940      0.60331909580017
  O   -2.20731327450934      1.54050492224700      0.26542550649001
  O   -0.44238795711636      1.85209561192361      1.50789560396650
  N   1.69418587650804      0.33904868429136      1.18957360462394
  H   1.28374336060232      1.00815516173729      1.82253079924277
  H   2.44907140824961     -0.23578747563697      1.52498957192949
  C   1.42907608335317     -1.31868953718907     -0.45491956698583
  N   1.92690232422495     -2.22730671259772     -1.01280549754481
