14
Coordinates from ORCA-job run
  C   -0.42438225731753      0.16096460726317     -0.06003690174303
  C   0.83324212468197     -0.26607293104136      0.28902787556941
  C   -1.28714310319063     -0.46117660820332     -1.10943629719523
  H   -0.81104197553224     -1.34591834698655     -1.53079373786032
  H   -2.25121300282471     -0.74919273515497     -0.68511915290785
  H   -1.48808524321940      0.25016257937110     -1.91312602312157
  N   -0.98318573512093      1.33440147627527      0.57011237410551
  O   -2.08828350130683      1.71045909963230      0.17455089803841
  O   -0.34205191771539      1.90634446355395      1.46611973717755
  N   1.65303897621281      0.19120689802954      1.27908316997844
  H   1.40794527998294      1.08308579450375      1.68106849723401
  H   2.62801388462031     -0.04943403860419      1.21178687652450
  C   1.34659515870687     -1.41672329686375     -0.40799781070490
  N   1.80655131202275     -2.34610696177493     -0.96423950509493
