14
Coordinates from ORCA-job run
  C   -0.34185054044994      0.30126515362729     -0.21038300069778
  C   0.83569971623717     -0.13724153191250      0.31579027667174
  C   -1.60131338745257     -0.49820212823662     -0.16763579056394
  H   -2.12899307463667     -0.37144450482119      0.78217933865566
  H   -1.39762488999184     -1.56271934921734     -0.31285666411702
  H   -2.26472506110708     -0.17710481892920     -0.96630584524470
  N   -0.41478885359704      1.62185926209612     -0.82823200893979
  O   -1.42076862399733      1.86946337621537     -1.49534754201451
  O   0.51270816568587      2.40879787241494     -0.64611721841501
  N   0.93319571658613     -1.30590974831521      1.04554077626185
  H   0.16957860414285     -1.95836062561000      0.97054548174237
  H   1.84563591696108     -1.73459608831977      1.07184462726917
  C   2.08478748785591      0.56768994907152      0.22848974924167
  N   3.18845882376346      0.97650318193658      0.21148782015029
