14
Coordinates from ORCA-job run
  C   -0.37134041538848      0.35091273910779      0.00892391339399
  C   0.87357868967627     -0.19497141742364      0.07374755934993
  C   -1.51817872458147     -0.34098016448651     -0.64808995444871
  H   -2.29170174843023      0.37862037166533     -0.90827172607788
  H   -1.97742465575632     -1.08743338801201      0.00903097097493
  H   -1.18074801261913     -0.83557636860826     -1.56274261946965
  N   -0.64755350605637      1.61728103074554      0.67231719167983
  O   0.29455136016284      2.34525200362223      0.98035098429111
  O   -1.83520146524242      1.87210771499664      0.88432140959201
  N   1.16543399350985     -1.41325465118377     -0.51946253801277
  H   2.02957160595559     -1.83615809748330     -0.21890398764116
  H   0.40171620181798     -2.06793953718980     -0.58430049693178
  C   2.01474249527449      0.43374597686632      0.67716023789635
  N   3.04255418167740      0.77939378738345      1.13491905540380
