14
Coordinates from ORCA-job run
  C   -0.44431040216202      0.08912195325419      0.01289794839773
  C   0.89337063771831     -0.15546106636772      0.25218152734457
  C   -1.31914236619510     -0.78467107517465     -0.82832609003090
  H   -2.34552681834826     -0.60202950263234     -0.51547324414779
  H   -1.26181640249007     -0.51755146889282     -1.88429540365041
  H   -1.07240946105567     -1.83559869222121     -0.69596921325051
  N   -1.04064405768524      1.30546598563767      0.52853783166867
  O   -0.39190734032681      2.01441551000488      1.31304716206992
  O   -2.16181175948862      1.61235883437665      0.11033622943498
  N   1.79901331270284      0.60259420947238      0.91261160323332
  H   2.71004012135323      0.22767250942736      1.16825447679621
  H   1.43388411656712      1.41489568277043      1.38876373960856
  C   1.43095651917822     -1.25558680366251     -0.51669825370070
  N   1.76930390023207     -2.11462607599233     -1.24386831377365
