14
Coordinates from ORCA-job run
  C   -0.40181610453590      0.32908637002769     -0.04633228836219
  C   0.81933608549983     -0.15415070636644      0.31059533612484
  C   -1.43948716140312     -0.54888399681606     -0.66139046709676
  H   -2.29348578084927      0.04067563094721     -0.98395720106374
  H   -1.77472644422327     -1.30035575953671      0.06427278992265
  H   -1.05085108842656     -1.08326112908268     -1.53941808607015
  N   -0.72380723178666      1.73522405252352      0.16521659511014
  O   -1.76176029053655      2.15475121843004     -0.34993984012336
  O   0.03958626514364      2.41340823546661      0.85134535933827
  N   1.12751333393778     -1.49805818025140      0.19785273764728
  H   0.59624280603186     -2.02878654542461     -0.47594932487010
  H   2.11342930391411     -1.70867694632334      0.18718415995239
  C   1.87913015528149      0.61018935521392      0.90524162954736
  N   2.86969615195261      1.04083840119226      1.37527859994337
