14
Coordinates from ORCA-job run
  C   -0.44605241215059      0.09788585952263     -0.03262432367777
  C   0.87620712961494     -0.15648613060404      0.23720994912209
  C   -1.25153982983827     -0.56353156456325     -1.10338342660637
  H   -0.66662909038305     -1.32677588300416     -1.61556757868619
  H   -2.14039251462528     -1.03076833579773     -0.67410267384945
  H   -1.59487602756456      0.17045257589296     -1.83540150872306
  N   -1.14762946586000      1.11402759114152      0.71683269242109
  O   -2.31387098176409      1.34527528118930      0.39176573815338
  O   -0.56057275288915      1.70355359802544      1.63808907972866
  N   1.66102156105007      0.33940640623877      1.23699757333207
  H   1.30288816939414      1.14702908534661      1.72325097857910
  H   2.65716687002228      0.25843035629873      1.11852913226464
  C   1.52667224333375     -1.15140240806428     -0.57523840887267
  N   2.09760710165982     -1.94809643162251     -1.22635722318553
