14
Coordinates from ORCA-job run
  C   -0.38447246222206      0.20866593725880     -0.13581519321140
  C   0.82479750402809     -0.25433055674673      0.32138006713187
  C   -1.17527976550290     -0.39674046212961     -1.24967754552547
  H   -0.64109810697418     -1.23462865089649     -1.69667029565759
  H   -1.37094375610873      0.34794043390576     -2.02422355586997
  H   -2.14401222303515     -0.74665081067547     -0.88696163662721
  N   -1.01202596655280      1.33584282269413      0.51343234108159
  O   -2.12370665424271      1.67248039026216      0.10104230842991
  O   -0.42049023025557      1.90814427131176      1.44279480685272
  N   1.64448131083872      0.27661009603679      1.27363967594510
  H   1.23642662054183      0.98075226875059      1.86914899188086
  H   2.34618883955822     -0.32993173401159      1.66404552910375
  C   1.37310296252869     -1.40838348424908     -0.34276096340386
  N   1.84603192739854     -2.35877052151102     -0.85037453013029
