14
Coordinates from ORCA-job run
  C   -0.41303316287666      0.17054270824059     -0.10565146958356
  C   0.84068361711685     -0.21218749641887      0.30483927253861
  C   -1.12710384410349     -0.36095645614531     -1.30470489497980
  H   -0.51398902195611     -1.08924457512877     -1.83388099332895
  H   -1.37727763549265      0.45286091510870     -1.98891055496112
  H   -2.06665409153775     -0.83532786289194     -1.01330181398709
  N   -1.15609823406552      1.13609621780633      0.66855000665520
  O   -0.63645787766583      1.63571350202521      1.67958845225998
  O   -2.28455258546005      1.42626933606100      0.26723426420113
  N   1.59724724045407      0.27883418761762      1.32598424361198
  H   2.37735964913666     -0.27853972753545      1.63091307258525
  H   1.12125182279303      0.85559179173038      2.00171743090466
  C   1.52098267645305     -1.19145867658006     -0.50259993279362
  N   2.11664144720440     -1.98919386388941     -1.12977708312268
