14
Coordinates from ORCA-job run
  C   -0.37118049705260      0.35358701564643     -0.02950883917480
  C   0.83449401147799     -0.22238054212132      0.23615105583883
  C   -1.41345206017648     -0.34555238575693     -0.83480749554466
  H   -2.15360285664358      0.36954914005608     -1.18678029174273
  H   -0.95745632360303     -0.83307144470426     -1.70194315221623
  H   -1.93787875062300     -1.10670683126609     -0.24580105274278
  N   -0.68159084768022      1.68283638724744      0.48365304310710
  O   -1.72769145518115      2.20381299522094      0.09244227784470
  O   0.10001206725571      2.20061758287557      1.28033130814113
  N   1.14249524043485     -1.48479054564129     -0.24734323812218
  H   0.36327679169591     -2.11678850869774     -0.34527223464116
  H   1.95406116616616     -1.91346567859266      0.16996183525547
  C   1.92837311149541      0.41777786819237      0.90964866752246
  N   2.92014040243403      0.79257494754146      1.42026811647485
