14
Coordinates from ORCA-job run
  C   -0.43553850392506      0.13476317255751     -0.03908601959427
  C   0.86829385930236     -0.19425482504695      0.23916586181578
  C   -1.35258439025174     -0.64455389915295     -0.92478896101178
  H   -2.25929062499611     -0.92043611747028     -0.38244427096336
  H   -0.86866142961869     -1.55188786383347     -1.28460677986964
  H   -1.66092219504821     -0.04314958525602     -1.78248391643155
  N   -0.99885657637101      1.35011917995975      0.50115105384006
  O   -0.31312480944786      2.05188237732213      1.26161148129005
  O   -2.15268946018922      1.62888116399503      0.16940138364929
  N   1.74583372004492      0.41233388828923      1.08961390215111
  H   2.72261312134323      0.20644840068365      0.96106182041662
  H   1.49031678658538      1.33467106073036      1.40744561719130
  C   1.37895807516742     -1.39742825340137     -0.36494698353356
  N   1.83665242740459     -2.36638869937660     -0.85109418895006
