14
Coordinates from ORCA-job run
  C   -0.43556509387857      0.13506080274464     -0.03965581198189
  C   0.86747348610937     -0.19529777364374      0.24097091853795
  C   -1.35070752799813     -0.64172976549100     -0.92955164785845
  H   -1.65604743778321     -0.03814813045111     -1.78680144108733
  H   -0.86643930669519     -1.54854485596763     -1.29018493803397
  H   -2.25922552496187     -0.91797352390800     -0.39051083150344
  N   -0.99978605877223      1.34936223475877      0.50198118525062
  O   -2.15248659529307      1.62969027964436      0.16755429710082
  O   -0.31575448028982      2.04906286110016      1.26587148434699
  N   1.74342137421778      0.40882253369213      1.09476514641513
  H   2.72034131775327      0.20252597843843      0.96791289665419
  H   1.48803726366395      1.33058935041986      1.41423505980478
  C   1.37886556394612     -1.39728525756595     -0.36477027539110
  N   1.83687301998161     -2.36513473377094     -0.85281604225431
