14
Coordinates from ORCA-job run
  C   -0.43954893442647      0.12250655869961     -0.03196093885353
  C   0.88101412305983     -0.16062283530764      0.21728181133540
  C   -1.36125627771051     -0.71498703685486     -0.85766645541835
  H   -0.86089986155880     -1.61817949697621     -1.20517867193110
  H   -1.71887094257610     -0.15262384061561     -1.72268078717650
  H   -2.23918416413186     -1.00136496894943     -0.27483941974309
  N   -1.02130793947168      1.33984012843594      0.48368658572682
  O   -0.33124874587508      2.09053942567942      1.19168746736326
  O   -2.19453757955005      1.57069689559508      0.18476195157503
  N   1.76640271021514      0.50177561368188      1.01589071935581
  H   1.49401037564419      1.42757097075335      1.30852715423037
  H   2.74444647237845      0.31547063170052      0.86876942738156
  C   1.40608440680389     -1.37194704955463     -0.35737057141879
  N   1.87489635719905     -2.34667499628742     -0.82090827242689
