14
Coordinates from ORCA-job run
  C   -0.33928644668953      0.25337777116992     -0.28386476107447
  C   0.85664130074593     -0.22430857134833      0.15596161564575
  C   -1.64079037782798     -0.39141684695953      0.05803711360754
  H   -2.41067040178766     -0.08621583434807     -0.64778554681486
  H   -1.98660590729650     -0.10978909104179      1.05883289831968
  H   -1.53891122390082     -1.47909339805028      0.01607638712210
  N   -0.39084004609272      1.49509505550899     -1.03898194315364
  O   0.60801974345320      1.85416466508366     -1.66090638304266
  O   -1.45847127619326      2.11040738470504     -0.99664673859802
  N   0.94935083256899     -1.38238734489336      0.90862477002512
  H   0.15105068827541     -1.62377055880489      1.47298204617346
  H   1.83281975783872     -1.52414357349608      1.37127182072235
  C   2.12880253689599      0.36933734760693     -0.14530231390556
  N   3.23889082001024      0.73974299486776     -0.26929896502681
