14
Coordinates from ORCA-job run
  C   -0.42565999723382      0.16188203363537     -0.04615052156154
  C   0.83842181212532     -0.27594436348559      0.26394789569765
  C   -1.30560828127126     -0.42021765305466     -1.10429542024960
  H   -1.53025720014275      0.32537537350117     -1.86978942462119
  H   -0.83092371868090     -1.27988178896919     -1.57574170292188
  H   -2.25809132501111     -0.73604144220134     -0.67334359836445
  N   -0.97520806715005      1.30818617782641      0.63948221465740
  O   -2.08662839236559      1.69884874109080      0.27717054197690
  O   -0.31912363575379      1.84537025051794      1.54624467641574
  N   1.67416113032237      0.14278029403702      1.25785590902826
  H   1.43372639745260      1.01680424316548      1.69989978073243
  H   2.64859450254346     -0.09065264748947      1.16290160197992
  C   1.34188458939528     -1.39563585190512     -0.48835967024843
  N   1.79371218577024     -2.29987336666882     -1.09082228252123
