14
Coordinates from ORCA-job run
  C   -0.44663696853919      0.09925313433883     -0.01698891293712
  C   0.88367666182648     -0.15683188087979      0.20775374237111
  C   -1.29514049659608     -0.57970122234449     -1.04261368316593
  H   -1.66306971397967      0.14140794228138     -1.77541184676782
  H   -0.73368277532826     -1.35608445281526     -1.56100669710882
  H   -2.16954021479757     -1.03288721272341     -0.57086021473278
  N   -1.11326424793086      1.13745184119119      0.73375741506579
  O   -0.48831867803900      1.74430367170013      1.61831169848680
  O   -2.29005661372197      1.36760786932912      0.44886560667838
  N   1.70852023030840      0.35638121169777      1.16546438827782
  H   2.69901011686282      0.26645030712270      1.01119290729943
  H   1.37206018573485      1.17562317266614      1.64787737053830
  C   1.49713318915279     -1.17382900845534     -0.60625092430368
  N   2.03830932504727     -1.98814537310897     -1.26109084970148
