16

C	0.0	0.0	0.0
C	-0.53193	0.204093	-1.436629
Br	1.949905	0.0	0.0
H	-1.637476	0.182467	-1.312429
C	-0.430566	1.164228	0.887883
H	-0.074806	0.984652	1.905317
H	-1.522999	1.199641	0.888564
H	-0.021522	2.115651	0.541449
N	-0.468605	-1.297785	0.412791
H	-0.178642	-1.465878	1.370452
H	-1.493572	-1.255279	0.401199
C	-0.129418	-0.876484	-2.337869
N	0.192493	-1.711275	-3.097848
C	-0.152635	1.49763	-2.003302
N	0.138927	2.541367	-2.456179
Br	-3.741813	0.0	0.0
