16

C	0.0	0.0	0.0
C	-0.249059	-0.214109	-1.547509
Br	1.952442	0.0	0.0
H	0.472907	-0.988036	-1.827147
C	-0.486775	1.336474	0.524333
H	-0.042696	2.180153	-0.007972
H	-0.230761	1.416669	1.585008
H	-1.576157	1.343883	0.422565
N	-0.510304	-1.166706	0.662457
H	-1.534464	-1.113027	0.558131
H	-0.31645	-1.086953	1.655482
C	0.098651	0.988651	-2.313488
N	0.391909	1.928236	-2.954661
C	-1.51742	-0.754275	-2.070432
N	-2.26831	-1.310283	-2.786762
Br	-3.788814	0.0	0.0
