16

C	0.0	0.0	0.0
C	-0.227284	-0.230802	-1.571578
Br	1.951572	0.0	0.0
H	0.449115	-1.058858	-1.820564
C	-0.490161	1.351902	0.468828
H	-0.202236	1.48839	1.512664
H	-1.581872	1.357653	0.387118
H	-0.06512	2.156348	-0.131782
N	-0.533291	-1.032805	0.812304
H	-1.550295	-0.882054	0.85103
H	-0.356502	-1.948422	0.411274
C	0.226469	0.922668	-2.355459
N	0.596593	1.843979	-2.984295
C	-1.519225	-0.683188	-2.121786
N	-2.283584	-1.19805	-2.852749
Br	-3.79012	0.0	0.0
