16

C	0.0	0.0	0.0
C	-0.236904	0.245378	-1.558518
Br	1.950629	0.0	0.0
H	0.476742	-0.426868	-2.050981
C	-0.516104	1.132148	0.858424
H	-0.059741	2.081768	0.581568
H	-0.280095	0.909899	1.900857
H	-1.603202	1.180136	0.739957
N	-0.506628	-1.245205	0.464355
H	-0.32628	-1.993811	-0.196333
H	-1.521968	-1.142823	0.567881
C	0.156834	1.598323	-1.959128
N	0.540519	2.64926	-2.317613
C	-1.515571	-0.115821	-2.191072
N	-2.295519	-0.474733	-2.994866
Br	-3.862721	0.0	0.0
