14
Coordinates from ORCA-job run
  C   0.46427435433372     -0.03795795975964      0.47626409020802
  C   -1.02167083712480     -0.16400863462518      0.03276305189120
  Br  0.50935593338763     -0.33241891803150      2.41250027906882
  H   -1.59148348712194      0.58165443462736      0.60150458852462
  C   1.26020714967653     -1.07932609501819     -0.16475234874939
  N   1.90216336402386     -1.89545933666158     -0.71680594346099
  C   1.01558680358525      1.34973653767746      0.16475335693435
  H   1.02011643042061      1.51535473424235     -0.91523716194837
  H   2.03620050061574      1.43429828631036      0.53822857301174
  H   0.39979167062299      2.11065053647463      0.64908991976549
  C   -1.57723452796481     -1.48990506405953      0.31755632163207
  N   -2.03664207712594     -2.54810720945614      0.53828477394085
  C   -1.14792169610357      0.14173961202995     -1.39726395556070
  N   -1.23274358122526      0.41374907624966     -2.53688554525769
