14
Coordinates from ORCA-job run
  C   0.55366949356088     -0.21557160003451      0.43331658302060
  C   -0.79556795383213     -0.74080360671549     -0.14511743349160
  Br  0.62472771855425     -0.75365841557867      2.31548854572291
  H   -0.83647537857424     -1.82565974510013      0.00901807780021
  C   1.64238300598393     -0.89341282137998     -0.26442893516426
  N   2.51298670112931     -1.42382684851841     -0.85068930512508
  C   0.68158460757504      1.29847821056884      0.32345923911058
  H   0.63926375789405      1.59571379953840     -0.72787284679180
  H   -0.12745836090772      1.78250294455070      0.87301693291728
  H   1.63529903011644      1.62039019671508      0.74208313360959
  C   -0.85903979243542     -0.46489779800325     -1.58534717994997
  N   -0.88415619192399     -0.23493174471526     -2.73703580388296
  C   -1.93691162496642     -0.12418269401433      0.53757429439740
  N   -2.84930501217400      0.38086012268700      1.07753469782711
