14
Coordinates from ORCA-job run
  C   0.52860991765211     -0.13433975054194      0.28302438347385
  C   -0.78145700218041     -0.27201727872126     -0.54616836015564
  Br  0.33666214218409     -1.14371607927972      1.94613971738010
  H   -0.61878082702427      0.27625133491195     -1.48511951328149
  C   1.61697828474742     -0.72785735419632     -0.48846467355447
  N   2.49545104290056     -1.16527153843583     -1.13631544889049
  C   0.82342687122839      1.32763845144491      0.60381060086778
  H   0.91348427176724      1.89768095620649     -0.32571341926037
  H   0.02198055179319      1.74766498706521      1.21315355177598
  H   1.76141194052536      1.40349027665468      1.15402114280994
  C   -1.91098803566769      0.34992612504402      0.15052023566314
  N   -2.80281684397961      0.88448564917170      0.69635191250232
  C   -1.07728958075010     -1.66656134072324     -0.88457079910782
  N   -1.30767273319628     -2.77937443860066     -1.18066933022282
