14
Coordinates from ORCA-job run
  C   0.55165507093679     -0.09980128885204      0.25128373196033
  C   -0.77443696910441     -0.30769341657706     -0.53675362529687
  Br  0.54085186982835     -1.25522868673891      1.82813438593354
  H   -0.71324558255123      0.33053678341878     -1.42988800247836
  C   1.65807125139891     -0.51008757630859     -0.60856867742095
  N   2.54348153727917     -0.79577816541592     -1.32782553342334
  C   0.71004209173160      1.35455566889448      0.68378095625609
  H   0.70233267227186      2.00314663461742     -0.19730008751003
  H   1.65816883381037      1.48386501178022      1.20589981067801
  H   -0.10305478919024      1.63850713877452      1.35335372466820
  C   -1.92836641328773      0.12976492801829      0.25371677341545
  N   -2.84301428127892      0.51572826723412      0.88092813335555
  C   -0.93934524136399     -1.69297933028013     -0.98449678176602
  N   -1.06314005048050     -2.79453596856517     -1.37226480837158
