14
Coordinates from ORCA-job run
  C   0.45671337529503     -0.06605420240530      0.47681268879005
  C   -1.02788901080827     -0.14736065274822      0.01714904845169
  Br  0.48096293832205     -0.44671096821577      2.39864289390858
  H   -1.59093686480093      0.57984640217812      0.61558344801077
  C   1.24093020729191     -1.09182684167279     -0.20285134418947
  N   1.88069451793637     -1.89362796646035     -0.77798840816036
  C   1.03483950679413      1.32385690008601      0.23151669005645
  H   2.05346509097944      1.37310565238546      0.61658505439009
  H   1.05187918279213      1.53698424401064     -0.83996974040999
  H   0.42849165711290      2.07371595494561      0.74415141090089
  C   -1.60281763343535     -1.47748187664518      0.23658353868798
  N   -2.07096139144501     -2.54115508603618      0.40580522804771
  C   -1.13571345057623      0.22553363268302     -1.39832277552271
  N   -1.20165812545806      0.55217480789498     -2.52469773296166
