14
Coordinates from ORCA-job run
  C   0.45232086081069     -0.05963489953967      0.48178332639665
  C   -1.02712328660127     -0.15476438688962      0.00893522829621
  Br  0.46143330112282     -0.42514690574639      2.40653095866827
  H   -1.60112334354157      0.57365377368668      0.59537873617829
  C   1.25026142031401     -1.08472818456597     -0.18281662261149
  N   1.90390304443073     -1.88378307268785     -0.74602548267927
  C   1.02320248695721      1.33236851360853      0.23093211658262
  H   2.03788639539342      1.39197898835957      0.62483164874487
  H   1.04862688763988      1.53720885457487     -0.84199228248222
  H   0.40690411600350      2.08190310291182      0.73207067445031
  C   -1.59557452135702     -1.48677479435441      0.23410662532811
  N   -2.05966510579694     -2.55143774839947      0.40808932202287
  C   -1.12364424393918      0.20533225265212     -1.41075897002047
  N   -1.17840801143630      0.52382450638981     -2.54006527887478
