14
Coordinates from ORCA-job run
  C   0.45946275224366     -0.06270693595558      0.47542704025643
  C   -1.02555176702119     -0.16135319818018      0.02080208140229
  Br  0.49622817787472     -0.44952308207905      2.39561107417619
  H   -1.59517188916668      0.55759183693812      0.62286147710995
  C   1.25511109555368     -1.07498316357632     -0.21123753819062
  N   1.90544168956405     -1.86234138110646     -0.79442574548265
  C   1.01819145587776      1.33566608917634      0.23257171125432
  H   0.40352423493543      2.07570774338146      0.74948683325518
  H   2.03735513596600      1.39764563246908      0.61428691841939
  H   1.02888548784431      1.55216195403443     -0.83829570941751
  C   -1.58436056515194     -1.49853077204177      0.23838224736174
  N   -2.04100935450420     -2.56725215185805      0.40704224263003
  C   -1.14272763429901      0.21392653662054     -1.39328519465810
  N   -1.21537881971662      0.54399089217746     -2.51822743811663
