14
Coordinates from ORCA-job run
  C   0.52756138749258     -0.12664559529872      0.28897709723739
  C   -0.77396865289579     -0.27970626803089     -0.55099788544894
  Br  0.32745350196373     -1.12394568200115      1.95832189969044
  H   -0.60798825133693      0.26551940385275     -1.49101838130274
  C   1.62649822137124     -0.71880150765236     -0.46843768784960
  N   2.51262901361098     -1.15240812554770     -1.10845280198951
  C   0.80960242647915      1.33988410508129      0.60010071295962
  H   1.73993715933783      1.42636174051973      1.16162895203224
  H   0.90855783415469      1.90179079456933     -0.33346391404560
  H   -0.00205755552020      1.76081013185170      1.19523748081895
  C   -1.91582687460182      0.33203547445215      0.13461674334932
  N   -2.82080668698622      0.84825773791558      0.67623316536063
  C   -1.05492909981758     -1.67856163453667     -0.88507179086570
  N   -1.27766242325167     -2.79359057517506     -1.17867358994652
