14
Coordinates from ORCA-job run
  C   0.60238702494765     -0.13378388888842      0.24595998276436
  C   -0.88216815701117     -0.54794744562043      0.03007137769285
  Br  1.42585040565616     -1.52083874685177      1.35767538404921
  H   -1.33759879383176     -0.64168524209338      1.02398316088961
  C   1.29743999852361     -0.10167085148182     -1.03673196383813
  N   1.84833018167670     -0.03213177608895     -2.07339731450431
  C   0.70180647102160      1.20980133242366      0.96090456302020
  H   1.74782820887156      1.44937679612138      1.15264294621688
  H   0.26800725264775      1.99625828934829      0.33872469647908
  H   0.17136226551182      1.16278235395939      1.91439301703402
  C   -1.00343010877649     -1.83408895966902     -0.66196412966485
  N   -1.11171900701514     -2.85688973362390     -1.22888498388847
  C   -1.59079019374819      0.49815869346907     -0.71670761285583
  N   -2.13730554847414      1.35365917899590     -1.30766912339459
