14
Coordinates from ORCA-job run
  C   0.56421543563072     -0.20232319413594      0.42482949413744
  C   -0.78431653101008     -0.75395275954062     -0.12932567973034
  Br  0.67315367931738     -0.72761370391715      2.30887421670565
  H   -0.80405549102906     -1.83843719156604      0.03150342971224
  C   1.65402955775521     -0.86659920947260     -0.28444082457720
  N   2.52683462689698     -1.39109206314209     -0.87235033114914
  C   0.66465140187374      1.31294255874777      0.30445239818077
  H   1.61916434103101      1.65334340902564      0.70632594052679
  H   -0.14380890899345      1.78640456496783      0.86397846282770
  H   0.60087847424337      1.60331867807640     -0.74772181306115
  C   -0.87648166492801     -0.48862228361113     -1.57004176633325
  N   -0.93018418857701     -0.27113209515823     -2.72331846531080
  C   -1.92556568580985     -0.15347248380517      0.56787900530841
  N   -2.83951504640093      0.33723577353135      1.11835593276286
