14
Coordinates from ORCA-job run
  C   0.45480293509698     -0.06530391222339      0.47934840827774
  C   -1.02626913377736     -0.15608921390132      0.01060468815102
  Br  0.47092445526878     -0.45311818930361      2.39948309944057
  H   -1.59808691851044      0.56467220487649      0.60852944785325
  C   1.25131666277585     -1.08188021612612     -0.19990491172560
  N   1.90204432196438     -1.87473055045575     -0.77499830587465
  C   1.02318440818205      1.33022788979404      0.24254979094668
  H   2.03913431732703      1.38644888808867      0.63375030182904
  H   1.04470823536526      1.54745813273772     -0.82803794921376
  H   0.40769837724517      2.07321776729377      0.75438660636326
  C   -1.59367043617811     -1.49080837093457      0.22127699360161
  N   -2.05822189169569     -2.55712099524219      0.38400178336621
  C   -1.12880338469630      0.22213980012312     -1.40388760327247
  N   -1.18976194836765      0.55388676527315     -2.52910234974288
