14
Coordinates from ORCA-job run
  C   0.52241677942770     -0.14694188759162      0.28896461563283
  C   -0.76709727764000     -0.24349689698392     -0.57738290408924
  Br  0.28992992269021     -1.23329032624776      1.89740649206896
  H   -0.58148945612814      0.34835755449433     -1.48507528419329
  C   1.62924774084392     -0.70442420089006     -0.48315136523446
  N   2.52630881330555     -1.10916233847363     -1.12697232331572
  C   0.80958104940233      1.29800850690662      0.68507170333730
  H   0.92433534186857      1.91040255067323     -0.21428495161300
  H   -0.00730066607823      1.69070323844371      1.29220432391497
  H   1.73285445059400      1.34658716196034      1.26255107106534
  C   -1.91403127373175      0.34376883737771      0.12099009445343
  N   -2.82628898889378      0.83346938939015      0.67513457698326
  C   -1.05515339880739     -1.62001510786102     -0.98865706728520
  N   -1.28331303685294     -2.71496648119808     -1.34679898172519
