14
Coordinates from ORCA-job run
  C   0.44981545538923     -0.05398486062944      0.48514030613153
  C   -1.02546705845888     -0.16388719480902      0.00193505664592
  Br  0.44897094175859     -0.41541583115877      2.41030565167565
  H   -1.60950645350478      0.56158121229659      0.58214098039591
  C   1.26173985988515     -1.07264138213189     -0.17238818329359
  N   1.92604648789708     -1.86585389138904     -0.73130077588893
  C   1.00912996146982      1.34295003583070      0.23520404327434
  H   1.03707385587305      1.54721482517888     -0.83777301032653
  H   0.38438692752797      2.08725462088140      0.73358556209130
  H   2.02174788296196      1.41151343459549      0.63297872710497
  C   -1.58431819899430     -1.49976064128481      0.22752944140879
  N   -2.04211572538995     -2.56717702842549      0.40193732912555
  C   -1.11503203961071      0.19031891704666     -1.41963074475522
  N   -1.16347189680420      0.49988778399869     -2.55166438358965
