14
Coordinates from ORCA-job run
  C   0.55422266517629     -0.21307324321463      0.43319142196222
  C   -0.77870052762600     -0.75445026625510     -0.16841054111349
  Br  0.62117327244765     -0.79056260342989      2.30388579995693
  H   -0.79773539719114     -1.84292079847883     -0.03721864599851
  C   1.66282316570846     -0.85243024275195     -0.26942259169491
  N   2.54771424482305     -1.35383010186510     -0.85997269725370
  C   0.65000973987273      1.30543209662398      0.35760028436266
  H   -0.17344324599074      1.75957645803292      0.91120737394998
  H   1.59331419665369      1.63841836363551      0.79091319659353
  H   0.60921257618503      1.62498334584529     -0.68722541355562
  C   -0.83502579254269     -0.44970661327404     -1.60308110640518
  N   -0.85252408640069     -0.19632225101480     -2.74992529627469
  C   -1.93809214543383     -0.17589744490589      0.51706042336897
  N   -2.86294866568185      0.30078330105258      1.06139779210180
