14
Coordinates from ORCA-job run
  C   0.53408563557496     -0.08526470138514      0.29184455510224
  C   -0.76599751613027     -0.35162584975284     -0.52190215720809
  Br  0.38767391449936     -0.96806944561094      2.02983882025217
  H   -0.62825278440339      0.12930243390490     -1.50091626348433
  C   1.65119163012271     -0.68397382837896     -0.43303251455236
  N   2.54897273261257     -1.12556504233311     -1.05099372088621
  C   0.75698188300954      1.41010442339563      0.49531199275281
  H   -0.06632232083245      1.83831512910100      1.06876292393844
  H   0.82384383986664      1.90788789471511     -0.47668863398784
  H   1.68783156083924      1.57447458586659      1.03823785145043
  C   -1.92627420323509      0.26576829382637      0.12648692243450
  N   -2.84357426030953      0.79374327374222      0.63516306732327
  C   -0.99188962037231     -1.78112264850613     -0.74986958048673
  N   -1.16727049124200     -2.92397451858478     -0.95524326264828
