14
Coordinates from ORCA-job run
  C   0.52472767522164     -0.13947366646038      0.28931015005641
  C   -0.77141833543222     -0.26185379914637     -0.56393095982649
  Br  0.31034177202189     -1.19156944370817      1.92310359358236
  H   -0.59734774779771      0.31160955932838     -1.48558865535531
  C   1.62756520726998     -0.70848621482722     -0.47990551229197
  N   2.51549039073810     -1.12355819047547     -1.12962014098114
  C   0.80783783481999      1.31508742807454      0.65158412391998
  H   0.91210175013698      1.90831880376136     -0.26179302501582
  H   1.73566973932287      1.38048078231964      1.22002053800028
  H   -0.00594804271310      1.71700946939013      1.25675409238646
  C   -1.91523877613694      0.33554114329657      0.13092752907932
  N   -2.81702956912796      0.85810867282262      0.67185737828465
  C   -1.05384045644105     -1.64865307330758     -0.94341257272550
  N   -1.27191144188241     -2.75256147106808     -1.27930653911327
