14
Coordinates from ORCA-job run
  C   0.55784264841956     -0.07846050365298      0.24460769430144
  C   -0.77703653591112     -0.33857868370140     -0.51261774431016
  Br  0.59833169881570     -1.18155981347071      1.85785079598700
  H   -0.74634190159789      0.27394636307436     -1.42485987818188
  C   1.65740896591021     -0.49457638674994     -0.62131937992217
  N   2.53740449509266     -0.78608550034319     -1.34486477642495
  C   0.69331874265148      1.39209720006921      0.62690882788683
  H   1.64737311902793      1.55762161528021      1.12746830557737
  H   -0.11378768326287      1.68112288362053      1.30149066599377
  H   0.65673546535151      2.01136938742518     -0.27424114204904
  C   -1.92670060379818      0.09324539013501      0.28720623377237
  N   -2.84279774326461      0.46593036666620      0.92026848929226
  C   -0.91818296407758     -1.74018259836920     -0.91618704195858
  N   -1.02556770335679     -2.85488971998325     -1.26971104996429
