14
Coordinates from ORCA-job run
  C   0.44090014070997      0.06248245666343      0.49244802327521
  C   -1.01452730088860     -0.22280787918555      0.02122506096071
  Br  0.41797468594510      0.05826795818489      2.45131258718530
  H   -1.65256297567670      0.55807029580239      0.45379973649349
  C   1.32470355767446     -1.00784585621251      0.04239310253340
  N   2.04625994188178     -1.84810952816772     -0.35298337329255
  C   0.92473730889483      1.42160149102359     -0.00267981012147
  H   0.96565397212805      1.42792947293514     -1.09447447852282
  H   0.24702687382021      2.20521434927277      0.34275230063606
  H   1.92227811056323      1.62305930246848      0.38795893901031
  C   -1.49840895508335     -1.52846920728741      0.47839094116828
  N   -1.89355808387910     -2.57543052929766      0.83433097972835
  C   -1.09379515665925     -0.13663428401454     -1.44191471396027
  N   -1.13668211943063     -0.03732804218529     -2.61155929509395
