14
Coordinates from ORCA-job run
  C   0.57509123207023     -0.16246169689147      0.42848900831502
  C   -0.75291163491191     -0.79217812796850     -0.09170361681251
  Br  0.72073376447681     -0.60775860045551      2.33033281064941
  H   -0.72586352386484     -1.86929002932611      0.11185059700224
  C   1.68658205382775     -0.80634192344355     -0.26567161693757
  N   2.57280276336392     -1.31292676822819     -0.84956410885001
  C   0.60947862919752      1.34982565040207      0.24772346098940
  H   -0.21388859392264      1.81044830046868      0.79613277959117
  H   0.52447575571394      1.59543411515906     -0.81430773684195
  H   1.55175304753829      1.74626643023703      0.62640103309415
  C   -0.86471052503054     -0.58788507250504     -1.54102222755790
  N   -0.92873238594953     -0.41350685508681     -2.70091642478675
  C   -1.91327518239517     -0.21197299606148      0.59075911028390
  N   -2.84153540011385      0.26234757369987      1.13149693186144
