14
Coordinates from ORCA-job run
  C   0.53386744192905     -0.09785607207017      0.29003832489976
  C   -0.76460228566681     -0.32911657429748     -0.53683439562158
  Br  0.37749404785567     -1.03922598953421      1.99605835355474
  H   -0.62122428511273      0.18506088233931     -1.49792061818148
  C   1.65017703415690     -0.67712928322825     -0.45170643262456
  N   2.54456884904160     -1.10517389932332     -1.08396335097045
  C   0.76346273083627      1.38846308746676      0.54574801966356
  H   1.69343761458612      1.52943048921888      1.09670111484977
  H   0.83558529126189      1.91925375737042     -0.40824716046729
  H   -0.05941940285630      1.80071518482449      1.13137347955059
  C   -1.92443930394237      0.27090768721035      0.12856892075986
  N   -2.84183723881945      0.78940686854457      0.64677291050441
  C   -0.99761932347861     -1.74894115076486     -0.81372771081005
  N   -1.18845116979117     -2.88479498775644     -1.04286145510729
