14
Coordinates from ORCA-job run
  C   0.43790953914670      0.02949654696656      0.49788975262616
  C   -1.01352852137629     -0.21647122149932     -0.00665828234841
  Br  0.38892111821940     -0.07244386328421      2.45360191863773
  H   -1.65045469408691      0.54830928850219      0.45535991938376
  C   1.31607307569473     -1.02686908292325      0.00539322327107
  N   2.02629273422876     -1.85907249825115     -0.42601980544887
  C   0.94178816586231      1.40673974592180      0.07848155709382
  H   1.93501334527577      1.57841517162960      0.49362152986120
  H   0.26607371322448      2.17878418113101      0.45274296307579
  H   0.99924068423558      1.46733767434840     -1.01089700003244
  C   -1.51876634833915     -1.53666012753235      0.38095904901640
  N   -1.94669620332836     -2.57872075763936      0.71306806734721
  C   -1.07217661018869     -0.05381717155190     -1.46442722290532
  N   -1.10868999856832      0.13597211418196     -2.62311566957811
