14
Coordinates from ORCA-job run
  C   0.43275418633227      0.03380658869772      0.50214916669700
  C   -1.01742708075348     -0.20968276997501     -0.00720358055510
  Br  0.37397110204493     -0.05775710491839      2.45819902213306
  H   -1.65248526058740      0.56060951574174      0.44810902350837
  C   1.31081863689906     -1.02719270017360      0.01996773331627
  N   2.02892865812460     -1.85792557836335     -0.40086716724296
  C   0.94320005430088      1.40698585766965      0.07729395253895
  H   0.26842609537528      2.18347798586236      0.44402868819242
  H   1.00569351845910      1.46084808709954     -1.01219732599733
  H   1.93524883570475      1.57782047116881      0.49556135149809
  C   -1.52764341465224     -1.52672587971787      0.38386231222435
  N   -1.94466944752535     -2.58132680156016      0.68902636134383
  C   -1.06825349070366     -0.05780700172980     -1.46620654226265
  N   -1.08856239301872      0.09486933019837     -2.63072299539436
