14
Coordinates from ORCA-job run
  C   0.56734199954494     -0.19566042013928      0.42508231687317
  C   -0.77583809504203     -0.76480689462294     -0.12506229767290
  Br  0.68578791669354     -0.71180983300720      2.31087672216888
  H   -0.78387299992020     -1.84852626866520      0.04171476849336
  C   1.66339801824425     -0.84919997633223     -0.28444560251965
  N   2.54229512770051     -1.36325027103648     -0.87285834008807
  C   0.64981177836819      1.32027281476707      0.29808078069381
  H   0.58041173190342      1.60539375970524     -0.75517547860953
  H   1.60113773723053      1.67356052943725      0.69634895297297
  H   -0.16294240198455      1.78677392651627      0.85723526471334
  C   -0.87096777890130     -0.50638399744648     -1.56684375837626
  N   -0.93368693785441     -0.28100687695507     -2.71798420283667
  C   -1.92278693261352     -0.17273217635347      0.56976020261502
  N   -2.84108916336937      0.30737568413251      1.12227067157253
