14
Coordinates from ORCA-job run
  C   0.44902079074281     -0.07870596437912      0.48280580782558
  C   -1.02973878793396     -0.13201062990731      0.00106971952995
  Br  0.44089952618341     -0.48391449270569      2.39932897169108
  H   -1.59026598332025      0.59808415306492      0.59836137614201
  C   1.22764273838005     -1.10692664212519     -0.19970887241215
  N   1.86391288912610     -1.90936606583506     -0.77779728308086
  C   1.05064461092228      1.30567415223726      0.26348199183248
  H   1.08337266114935      1.53339798525383     -0.80463748937295
  H   2.06537272242103      1.33436351294068      0.66075830558956
  H   0.44956894322225      2.05726315318899      0.77979232870649
  C   -1.62940665398648     -1.45474822807075      0.19780267565228
  N   -2.11930394428635     -2.51137664006101      0.34875370298638
  C   -1.11043598758998      0.25635958634787     -1.41216008540128
  N   -1.15128352503029      0.59290612005059     -2.53685114968853
