14
Coordinates from ORCA-job run
  C   0.57095228318117     -0.17520464355023      0.42891371564433
  C   -0.76731392923870     -0.77837545762564     -0.09660017440995
  Br  0.70481622748325     -0.63206160409079      2.32906782546959
  H   -0.75987318055609     -1.85674395512607      0.10192424180170
  C   1.67211680508697     -0.83565176320426     -0.26595691523778
  N   2.55187138066703     -1.35281432755315     -0.85038566338674
  C   0.63309687677430      1.33705836920550      0.25533650015257
  H   0.55646242752440      1.58885074476283     -0.80588239394282
  H   -0.18375188288509      1.80982967590798      0.80312346826287
  H   1.58109980395552      1.71460878558268      0.63898015150474
  C   -0.87277628547317     -0.56475692357501     -1.54493031734438
  N   -0.93170420837616     -0.38357446187391     -2.70404579554677
  C   -1.91823465008693     -0.18075875639965      0.58688639586913
  N   -2.83876166805652      0.30959431753970      1.12656896116358
