14
Coordinates from ORCA-job run
  C   0.43550574761181      0.01406730686765      0.50072351193748
  C   -1.01962991482529     -0.19536356143330     -0.00958163733195
  Br  0.38108937401708     -0.12808484212217      2.45404873515266
  H   -1.64270325104192      0.56962383307124      0.47067917484322
  C   1.29609044858694     -1.04725569634176     -0.01128238395570
  N   1.99807690438979     -1.88000595720410     -0.45474685539540
  C   0.96431515723738      1.39050380836704      0.11074380106773
  H   1.02482372235363      1.47244838116728     -0.97708055071552
  H   0.30152505362104      2.16640347827981      0.49986293153680
  H   1.95967089955464      1.53616669570240      0.53068415559851
  C   -1.54627465563410     -1.51605136922425      0.34580159837892
  N   -1.97787952733707     -2.57143361707799      0.62681737551832
  C   -1.07493872888095      0.00038037743992     -1.46327898680632
  N   -1.09967122965300      0.18860116250825     -2.62239086982872
