14
Coordinates from ORCA-job run
  C   0.56856864510330     -0.16793932954304      0.43275271100264
  C   -0.76434699707051     -0.78183502328938     -0.09302521501671
  Br  0.69372773917300     -0.60290780488897      2.33897451488315
  H   -0.75427105182287     -1.85773071891353      0.11850130843643
  C   1.67734239519414     -0.83094812764312     -0.24730916844755
  N   2.56746512541857     -1.34745459150809     -0.81657253703789
  C   0.62630146015134      1.34257683838514      0.24279927032502
  H   0.55245407388211      1.58225521185732     -0.82145463550551
  H   -0.19377068774945      1.81889134847416      0.78271571482665
  H   1.57198454833280      1.72725757264929      0.62520617678468
  C   -0.86251903577106     -0.58707423220194     -1.54447150868076
  N   -0.91504214070774     -0.42485565452554     -2.70665943582823
  C   -1.92106466805075     -0.18101630355880      0.57785155708296
  N   -2.84582940608284      0.30978081470652      1.10969124717515
