14
Coordinates from ORCA-job run
  C   0.56778947092197     -0.18928711055996      0.42646384518290
  C   -0.77492845637323     -0.76854812380310     -0.11428806642252
  Br  0.69062422686178     -0.68300845809779      2.31820132329918
  H   -0.77920557326274     -1.85050526328574      0.06365502420441
  C   1.66447908784368     -0.84867255047080     -0.27654692764347
  N   2.54191271546871     -1.36664625333897     -0.86358398213819
  C   0.64615906291236      1.32521033034717      0.28167564626813
  H   1.59744526127680      1.68548748133242      0.67371067889496
  H   -0.16652362649444      1.79605779830021      0.83725864521836
  H   0.57371862574927      1.59792125140854     -0.77463715073208
  C   -0.87391393999700     -0.52590680324605     -1.55850511944861
  N   -0.92796607333950     -0.32062486956481     -2.71385334602230
  C   -1.92158269638964     -0.17163560324746      0.57701896735357
  N   -2.83800808517803      0.32015817422633      1.12243046198565
