14

C	-0.331076	-0.23784	-1.457636
C	0.0	0.0	0.0
F	-1.662937	-0.533697	-1.670963
H	1.09251	0.0	0.0
H	-0.37868	0.963116	0.336357
N	-0.231367	1.12869	-2.232092
O	0.078122	1.049006	-3.417377
O	-0.542045	2.15985	-1.645373
N	0.479485	-1.220647	-2.009031
H	0.438748	-1.212685	-3.01913
H	1.439809	-1.129837	-1.67974
C	-0.519039	-1.076035	0.830209
N	-0.954049	-1.918485	1.521886
Br	3.436129	0.0	0.0
