14

C	-0.50368	0.035993	-1.426805
C	0.0	0.0	0.0
F	0.119099	1.054818	-2.104227
H	1.093291	0.0	0.0
H	-0.343482	-0.913626	0.484825
N	-0.105771	-1.24067	-2.169376
O	0.160049	-2.235943	-1.509213
O	-0.169665	-1.170629	-3.393559
N	-1.912034	0.091819	-1.547729
H	-2.157069	0.232315	-2.521233
H	-2.276471	0.855693	-0.991681
C	-0.521151	1.161504	0.709243
N	-1.006821	2.085031	1.247805
Br	3.463519	0.0	0.0
