14

C	-0.516502	0.003081	-1.419578
C	0.0	0.0	0.0
F	0.031532	1.098851	-2.057249
H	1.093867	0.0	0.0
H	-0.294068	0.963892	0.43183
N	-0.021778	-1.194501	-2.224109
O	0.544126	-2.10078	-1.632439
O	-0.285171	-1.149472	-3.423953
N	-1.92117	-0.040594	-1.52828
H	-2.349142	0.661007	-0.940527
H	-2.196805	0.082935	-2.494775
C	-0.559617	-1.069039	0.814504
N	-1.03866	-1.884455	1.509359
Br	3.473798	0.0	0.0
