14

C	-0.556922	-0.004076	-1.41871
C	0.0	0.0	0.0
F	-0.057409	1.042818	-2.1059
H	1.094029	0.0	0.0
H	-0.328813	-0.911994	0.505063
N	-0.083788	-1.289053	-2.095334
O	0.647495	-1.202563	-3.06802
O	-0.530104	-2.319627	-1.590106
N	-1.979024	8e-05	-1.586401
H	-2.372819	-0.7992	-1.107487
H	-2.348551	0.849902	-1.174471
C	-0.532259	1.159772	0.701977
N	-1.017224	2.093093	1.224126
Br	3.45726	0.0	0.0
