14

C	-0.300161	0.102631	-1.479854
C	0.0	0.0	0.0
F	-0.270805	-1.165801	-2.053724
H	1.091534	0.0	0.0
H	-0.3326	0.907998	0.501987
N	-1.738522	0.539879	-1.779908
O	-1.987143	0.777105	-2.957603
O	-2.538207	0.595546	-0.850204
N	0.555502	1.021765	-2.080411
H	0.466707	1.009054	-3.087149
H	1.518358	0.870344	-1.776087
C	-0.5687	-1.1743	0.638707
N	-1.027654	-2.109843	1.177032
Br	3.45492	0.0	0.0
