14

C	-0.326893	-0.130515	-1.473176
C	0.0	0.0	0.0
F	-1.65777	-0.409315	-1.715322
H	1.093904	0.0	0.0
H	-0.379916	0.936257	0.404986
N	-0.226779	1.292446	-2.140891
O	-0.578428	2.269901	-1.487938
O	0.12272	1.308009	-3.318025
N	0.488055	-1.068167	-2.091422
H	0.451122	-0.989977	-3.09885
H	1.447797	-1.000022	-1.753058
C	-0.517827	-1.135694	0.747711
N	-0.93518	-2.041342	1.366551
Br	3.435991	0.0	0.0
