14

C	-0.296175	0.11469	-1.480089
C	0.0	0.0	0.0
F	-0.133521	-1.157639	-2.04154
H	1.096877	0.0	0.0
H	-0.386432	-0.937922	0.394417
N	-1.775404	0.370379	-1.785259
O	-2.039536	0.902774	-2.859639
O	-2.592251	-0.05271	-0.973133
N	0.471035	1.108845	-2.067937
H	0.361063	1.140583	-3.071479
H	1.44648	1.023345	-1.783601
C	-0.502886	1.136765	0.755614
N	-0.910922	2.041926	1.381354
Br	3.452239	0.0	0.0
