14

C	-0.558952	0.192599	-1.391879
C	0.0	0.0	0.0
F	-0.023603	1.315352	-1.949596
H	1.089542	0.0	0.0
H	-0.318244	0.876434	0.572961
N	-0.071701	-0.934253	-2.337109
O	-0.545294	-0.888498	-3.474628
O	0.712118	-1.770781	-1.908685
N	-1.964457	0.292944	-1.432367
H	-2.39802	-0.393007	-0.830845
H	-2.293797	0.196558	-2.382484
C	-0.5572	-1.193779	0.621123
N	-1.096809	-2.120049	1.101992
Br	3.460388	0.0	0.0
