14

C	-0.320882	0.037443	-1.491453
C	0.0	0.0	0.0
F	-0.212778	-1.207559	-2.007256
H	1.093992	0.0	0.0
H	-0.318254	0.943298	0.450455
N	-1.776007	0.474991	-1.691557
O	-2.015603	1.641894	-1.386068
O	-2.583576	-0.343236	-2.108096
N	0.482227	0.930129	-2.251906
H	1.458616	0.731685	-2.025617
H	0.283897	1.879904	-1.961696
C	-0.592293	-1.123152	0.705822
N	-1.096652	-2.013147	1.281722
Br	3.440166	0.0	0.0
