14
Coordinates from ORCA-job run
  C   1.03241740863051     -0.52150040593368     -0.31731831314880
  C   -0.38804798139970      0.03973821470649     -0.21529319400539
  Cl  0.98457656201618     -2.12560500596164     -1.09946290842054
  H   -0.80867468088027      0.16766659663640     -1.21381131712544
  H   1.44965072884924     -0.65721766126049      0.68092753975823
  C   1.89679022913834      0.37068219896662     -1.08444187200491
  N   2.57203195030771      1.10277639706011     -1.70671556766085
  N   -0.28986133655657      1.42452297742570      0.36061117375703
  O   -1.03059311386313      2.27870495715923     -0.11425008286428
  O   0.48996211458321      1.57619529458138      1.29937798047510
  C   -1.30434031626327     -0.76792958411801      0.68664377918113
  H   -0.87126471716652     -0.85325925406706      1.68550196428466
  H   -1.46008788649491     -1.76515235824364      0.27700951510999
  H   -2.27255896090081     -0.26962236695141      0.76122130266408
