14
Coordinates from ORCA-job run
  C   0.68576657081015     -0.54672917653062     -0.90645632513233
  C   -0.58927426259809     -0.07362299701280     -0.21335554844967
  Cl  0.76727236749356      0.08647799168926     -2.57139751374270
  H   -1.44184591805061     -0.41702800354219     -0.80080787584550
  H   0.61265017533290     -1.63437862573729     -0.99666729560003
  C   1.91215166967121     -0.24147965567373     -0.17552179232124
  N   2.90886996397541     -0.07882888864951      0.42368735808093
  N   -0.67779042746918      1.42312511194486     -0.25424787071630
  O   -1.71116693209793      1.90502778729401     -0.70966027703309
  O   0.27776310362545      2.04482447690268      0.20040021150071
  C   -0.66709630004388     -0.52956684243619      1.23260488152954
  H   0.15350533164759     -0.10578194348045      1.81285774945014
  H   -0.61506694353670     -1.61931444052733      1.28684344589031
  H   -1.61473839875989     -0.21072479424069      1.67072085238925
