14
Coordinates from ORCA-job run
  C   0.70213775232757     -0.57157798475008     -0.87824194186789
  C   -0.58491363113270     -0.07592991658705     -0.22387241457572
  Cl  0.82106149065120      0.02116131054574     -2.55590518638207
  H   -1.42625119835283     -0.42930720075404     -0.82152234856616
  H   0.62569157200578     -1.66077696643336     -0.94385173409123
  C   1.91450291605467     -0.25422094867239     -0.12939064928587
  N   2.89936445948021     -0.08211640413242      0.48654533597413
  N   -0.66392420272839      1.41983286728372     -0.30188985938679
  O   0.28441785118640      2.04682477494220      0.16049456518021
  O   -1.68400673075603      1.89619643832499     -0.79162529704417
  C   -0.69697214544281     -0.49728593854806      1.23025459613530
  H   -1.64981082198336     -0.15826011916669      1.64103608146301
  H   -0.65826516503507     -1.58594194424757      1.31031454678626
  H   0.11596785372536     -0.06859796780498      1.81765430566101
