14
Coordinates from ORCA-job run
  C   0.83381670061800     -0.54834791447381     -0.77489781605096
  C   -0.54102758755329     -0.06753519395292     -0.31666724521448
  Cl  1.21913865536558      0.09794226798210     -2.39144628773789
  H   -1.27703253836262     -0.39909429876956     -1.05034968350428
  H   0.76899257713702     -1.63435547699955     -0.88821311392522
  C   1.91015922200412     -0.26100646840736      0.16872083722624
  N   2.76607715377447     -0.10520922437966      0.95742443925916
  N   -0.60725408066159      1.43029105107986     -0.36231005303612
  O   -1.52640409298673      1.92536253860440     -1.00853398375950
  O   0.24653587153232      2.03990566504181      0.27461912964646
  C   -0.88097830848602     -0.53157276648006      1.08801159214007
  H   -1.88786848288185     -0.20321116398890      1.35244124069199
  H   -0.17275340941979     -0.12195114470568      1.80917991802499
  H   -0.85240168007962     -1.62221787055066      1.14102102623955
