14
Coordinates from ORCA-job run
  C   1.06607831003119      0.10363652453484     -0.58035346779716
  C   -0.42432298113768      0.04655415838131     -0.23236872916962
  Cl  1.99469178191595      0.95354890941684      0.68271288071798
  H   -0.93153813971141     -0.40573564374711     -1.09130955107708
  H   1.19049509165206      0.67928131630496     -1.49883471156342
  C   1.58227457519709     -1.24660550954969     -0.77163711993108
  N   1.96270642307034     -2.34552296483743     -0.93567572836643
  N   -0.92033438658720      1.47593651855505     -0.22885938139334
  O   -1.50973655507827      1.88481709226833      0.76459986876744
  O   -0.69497677364444      2.11897112891557     -1.25080032196833
  C   -0.76226980959378     -0.67619897610219      1.04959024170521
  H   -1.84099153700537     -0.68691761121834      1.20051799148654
  H   -0.40971008420250     -1.70764615879428      0.98428823115341
  H   -0.30136591490599     -0.19311878412786      1.90912979743586
