14
Coordinates from ORCA-job run
  C   0.96645049732067     -0.11856007107899     -0.73175112543934
  C   -0.45513553610069     -0.03314163872369     -0.16799435064172
  Cl  2.03005962115508      1.10933945084342      0.00318252163049
  H   -1.06139162033675     -0.75113001381814     -0.73056658868254
  H   0.93314299845247      0.09742935739934     -1.80076449933873
  C   1.50554127184141     -1.45626610686987     -0.51641401441290
  N   1.90423630659617     -2.54741245576074     -0.34375360090418
  N   -1.00344120814034      1.31302425427914     -0.58802836217345
  O   -1.45867412567405      2.05176142214315      0.27721451635724
  O   -0.95476271680944      1.55436982195000     -1.79134312161315
  C   -0.57563345985719     -0.25749872055867      1.32029457737541
  H   -1.62001504041610     -0.20046948231019      1.62462829480829
  H   -0.01536122612392      0.48963499499303      1.87933150633014
  H   -0.19501576190733     -1.25108081248779      1.56596424670446
