14
Coordinates from ORCA-job run
  C   1.02401642735778     -0.52386671211119     -0.33339135222169
  C   -0.39490765860344      0.03811652226828     -0.20946435408007
  Cl  0.96515180909850     -2.13076693564747     -1.10796770862129
  H   -0.83250970891291      0.16107739044794     -1.20116438623971
  H   1.45614693888178     -0.65514526956407      0.65932872833823
  C   1.87506837711588      0.36706880484745     -1.11674059396127
  N   2.53878104801824      1.10084201425371     -1.74948846171437
  N   -0.27973834314955      1.42551505871340      0.35595354508350
  O   -0.96648311649463      2.30026945718171     -0.16063437434815
  O   0.46474757938845      1.56025946839437      1.32560482958555
  C   -1.29284106812873     -0.76516352049393      0.71401259274991
  H   -1.45821747333638     -1.76335906757966      0.31042528079147
  H   -2.25920943826945     -0.26631864427115      0.80794788922433
  H   -0.83900537296554     -0.84752856643939      1.70357836541356
