17

C	0.0	0.0	0.0
C	-0.389221	-0.027805	-1.521661
F	1.392208	0.0	0.0
H	0.588369	-0.103773	-2.011507
C	-0.385679	1.26241	0.658065
N	-0.57644	2.256557	1.253415
C	-0.496182	-1.176126	0.809458
H	-1.589352	-1.176101	0.802729
H	-0.13419	-1.073205	1.834593
H	-0.104385	-2.104396	0.390053
C	-0.943795	1.241094	-2.000112
N	-1.294534	2.240485	-2.50777
C	-1.241746	-1.211069	-1.988912
H	-1.396145	-1.126023	-3.067493
H	-2.213651	-1.200036	-1.492893
H	-0.721114	-2.151489	-1.794906
Br	-3.91415	0.0	0.0
