17

C	0.0	0.0	0.0
C	-0.511084	-0.43609	-1.382209
F	1.38911	0.0	0.0
H	-1.607773	-0.508915	-1.281871
C	-0.388741	1.402172	0.254532
N	-0.568198	2.544737	0.458238
C	-0.471981	-0.908669	1.11589
H	-0.100539	-0.529033	2.069008
H	-0.071679	-1.911013	0.948059
H	-1.565461	-0.930664	1.123009
C	0.037276	-1.758758	-1.680019
N	0.489143	-2.811597	-1.933823
C	-0.159979	0.558147	-2.490435
H	-0.715664	1.484174	-2.33392
H	-0.441646	0.150987	-3.463294
H	0.909806	0.775061	-2.497422
Br	-3.780714	0.0	0.0
