17

C	0.0	0.0	0.0
C	-0.408614	0.340075	-1.453808
F	1.389504	0.0	0.0
H	-0.220464	-0.572984	-2.033588
C	-0.390358	1.095751	0.910427
N	-0.631974	1.970502	1.655417
C	-0.555632	-1.323252	0.469741
H	-0.200825	-1.535108	1.4798
H	-1.648923	-1.283838	0.477822
H	-0.217777	-2.115387	-0.202409
C	0.491762	1.371171	-1.985544
N	1.173343	2.206633	-2.450399
C	-1.861892	0.78096	-1.620946
H	-2.082032	0.904615	-2.684236
H	-2.035467	1.735289	-1.120755
H	-2.583259	0.078955	-1.199847
Br	-4.848043	0.0	0.0
