17

C	0.0	0.0	0.0
C	-0.522673	-0.460653	-1.367616
F	1.388913	0.0	0.0
H	-1.618186	-0.52391	-1.249537
C	-0.385793	1.406832	0.233154
N	-0.563403	2.551669	0.422361
C	-0.473188	-0.887473	1.130892
H	-0.102159	-1.900639	0.964186
H	-0.07113	-0.513102	2.074804
H	-1.564584	-0.87715	1.157564
C	0.008024	-1.794442	-1.651009
N	0.44136	-2.854651	-1.913439
C	-0.171035	0.505782	-2.501531
H	-0.476848	0.083505	-3.460159
H	-0.703571	1.446402	-2.356155
H	0.903458	0.698402	-2.527952
Br	-3.808534	0.0	0.0
