16

C	0.0	0.0	0.0
C	-0.41454	0.039493	-1.488497
F	1.362285	0.0	0.0
H	0.378148	-0.482835	-2.023156
N	-0.520629	1.014794	0.76599
H	-0.24961	0.86958	1.731647
H	-1.569122	0.838294	0.629934
N	-0.306701	-1.43879	0.518369
O	-0.249539	-2.354012	-0.297943
O	-0.468756	-1.562432	1.725771
N	-0.272004	1.478544	-1.931707
O	0.873297	1.829708	-2.215559
O	-1.270121	2.184081	-1.966997
C	-1.693576	-0.500236	-1.945296
N	-2.42518	-0.998994	-2.721788
F	-2.622406	0.0	0.0
