16

C	0.0	0.0	0.0
C	-0.370109	0.165294	-1.500168
F	1.376284	0.0	0.0
H	-0.137234	-0.759352	-2.022424
N	-0.433741	0.941369	0.93319
H	-1.467433	0.868252	0.851929
H	-0.101533	1.848395	0.634477
N	-0.419612	-1.409067	0.447258
O	-0.576783	-1.595782	1.640998
O	-0.451225	-2.27479	-0.421228
N	0.603854	1.181552	-2.06132
O	0.539235	2.327693	-1.621709
O	1.397676	0.784906	-2.910899
C	-1.709774	0.630652	-1.871924
N	-2.468745	1.126047	-2.629014
F	-2.529389	0.0	0.0
