16

C	0.0	0.0	0.0
C	-0.391805	-0.011257	-1.484087
F	1.381816	0.0	0.0
H	0.216259	-0.786155	-1.947347
N	-0.485308	1.053279	0.743113
H	-0.227227	0.913243	1.715326
H	-1.521968	0.927295	0.624722
N	-0.319272	-1.413946	0.576184
O	-0.315067	-2.363005	-0.200542
O	-0.454443	-1.482363	1.791229
N	0.136288	1.278248	-2.08551
O	1.237258	1.208684	-2.630077
O	-0.558746	2.280429	-2.000185
C	-1.775633	-0.184884	-1.937366
N	-2.546155	-0.351658	-2.815617
F	-2.609584	0.0	0.0
