16

C	0.0	0.0	0.0
C	-0.642056	-0.084722	-1.377721
F	1.342328	0.0	0.0
H	-1.757056	-0.196193	-1.088494
N	-0.534715	1.100509	0.665795
H	-0.214424	1.083518	1.627418
H	-1.567254	0.94271	0.608167
N	-0.327754	-1.331736	0.772074
O	-0.887028	-2.259175	0.204257
O	0.026071	-1.321442	1.94981
N	-0.184169	-1.216618	-2.244438
O	0.812702	-1.855877	-1.92363
O	-0.853589	-1.403986	-3.257823
C	-0.423252	1.138811	-2.128236
N	-0.257722	2.105784	-2.775122
F	-2.804477	0.0	0.0
