17

C	0.0	0.0	0.0
C	-0.37407	-0.026369	-1.507947
F	1.370001	0.0	0.0
H	0.295969	-0.781959	-1.930182
C	-0.603377	1.09159	0.820691
H	-1.693294	0.97879	0.808281
H	-0.247143	1.030226	1.84789
H	-0.327154	2.054945	0.390534
N	-0.334026	-1.369536	0.600965
O	-0.313821	-2.33322	-0.162186
O	-0.485589	-1.428485	1.8155
C	0.056498	1.268792	-2.067213
N	0.40205	2.294281	-2.522519
N	-1.712447	-0.333554	-1.925149
H	-2.436778	0.162921	-1.402142
H	-1.894157	-1.313602	-1.752346
Cl	-4.179685	0.0	0.0
