15

C	-0.029346	0.026279	-0.009036
C	-0.726338	0.030042	-1.352106
F	1.359571	-0.100928	-0.16872
H	-1.791834	-0.202975	-1.131826
H	-0.569152	0.968146	-1.870913
N	-0.041807	1.53908	0.536511
O	0.04792	2.470842	-0.259073
O	-0.074023	1.664751	1.758197
N	-0.555319	-0.853655	0.877235
H	-0.285897	-0.639462	1.827275
H	-1.616422	-0.928195	0.693811
N	-0.174431	-1.021916	-2.242628
O	0.163384	-0.667445	-3.376615
O	-0.118691	-2.175774	-1.83111
F	-2.937737	-0.743447	0.050205
