12
Coordinates from ORCA-job run
  C   -1.15659431561750     -0.62642063145046      0.29342650451340
  C   0.05288787633015     -0.09718300571143     -0.46633773674839
  F   -0.83471022069144     -0.78703023130239      1.62915149947132
  H   -0.25844774402739      0.04022817715380     -1.50950838456115
  H   -1.47945481778735     -1.59418177347818     -0.09629146894990
  H   -1.97713255923941      0.09343374599926      0.22604509101594
  C   1.13089617112914     -1.09132731946606     -0.45896389578962
  N   1.99894701812691     -1.88097713278025     -0.44958509221802
  C   0.54314444582698      1.23783494851584      0.10206941911109
  H   -0.25981553563174      1.97725156582141      0.05750213170075
  H   0.84597769064867      1.11527203879286      1.14151807981544
  H   1.39330199093297      1.61409961790560     -0.46802614736085
