12
Coordinates from ORCA-job run
  C   -1.11903982991242     -0.56588665936865      0.44207940069614
  C   0.05067686127060     -0.13250298266827     -0.43005760744911
  F   -1.59971064732992     -1.78836535248394      0.01273505301064
  H   -0.29983138685103     -0.11500861802029     -1.46755461485372
  H   -1.92749165564318      0.16598028607254      0.36352045061339
  H   -0.81001370926808     -0.66570160607992      1.48580889375037
  C   1.13588087439225     -1.11297536752504     -0.34371281410805
  N   2.02206988896077     -1.87659359452191     -0.24973391604479
  C   0.54492315921375      1.26078008085988     -0.02802125910061
  H   0.88483951141845      1.26620200673396      1.00966452305968
  H   1.37751875275703      1.57167812042186     -0.65963215166180
  H   -0.25982181900822      1.99139368657976     -0.13609595791215
