12
Coordinates from ORCA-job run
  C   -1.12522638726152     -0.56808611569902      0.41610075321782
  C   0.05569837351801     -0.11951703779845     -0.43300961426013
  F   -1.61193760566412     -1.77383794859207     -0.05144582438147
  H   -0.28481258848335     -0.07158656821840     -1.47297357233784
  H   -1.92684885271382      0.17237605952299      0.35072526440396
  H   -0.82648089739169     -0.69951598815473      1.45923248931615
  C   1.13201156847856     -1.11120433846531     -0.36393294743613
  N   1.99695215963337     -1.89988313433767     -0.27931110461743
  C   0.55476348523975      1.25901543166864      0.01139582338180
  H   1.39475337499083      1.58211667692704     -0.60409469393112
  H   -0.24446291311776      1.99742880783653     -0.08339526525981
  H   0.88559028277175      1.23369415531045      1.05170869190419
