12
Coordinates from ORCA-job run
  C   -1.09423116593220     -0.65629375426108      0.39493043687008
  C   0.05814040611949     -0.11859840681732     -0.44850081264874
  F   -2.13962708584828      0.25135590257617      0.34225341493742
  H   -0.30849839133038     -0.00781789922880     -1.47522282186733
  H   -1.45330012994461     -1.61253587340851      0.00902137919970
  H   -0.79010445714018     -0.76853580252679      1.43879331852279
  C   1.13194699609773     -1.11394489350133     -0.46082336794525
  N   1.99488334971314     -1.90950692943359     -0.43870785914068
  C   0.55992161267021      1.23332895884463      0.06355777228828
  H   1.36008789645976      1.61622734013315     -0.57115312116162
  H   0.94275927001881      1.13806748113870      1.08200872018146
  H   -0.26197830088350      1.94925387648475      0.06384294076390
