13

C	0.0	0.0	0.0
C	-0.488427	-0.177558	-1.430793
F	1.374838	0.0	0.0
H	-1.581103	-0.03925	-1.444176
H	-0.217771	-1.168287	-1.792758
C	-0.425335	1.247255	0.66458
N	-0.556768	2.239849	1.278918
C	-0.425308	-1.166653	0.798573
N	-0.540694	-2.152736	1.427672
N	0.150976	0.796092	-2.349879
O	0.371452	1.92982	-1.932101
O	0.377004	0.401153	-3.492849
Br	-3.450751	0.0	0.0
