13

C	0.0	0.0	0.0
C	-0.490479	-0.124169	-1.436208
F	1.374956	0.0	0.0
H	-1.582737	0.01949	-1.442896
H	-0.226571	-1.103059	-1.832801
C	-0.423478	1.225455	0.705733
N	-0.545929	2.197782	1.352729
C	-0.445228	-1.193521	0.751592
N	-0.606897	-2.191843	1.350501
N	0.1512	0.877143	-2.322661
O	0.374179	0.521204	-3.478578
O	0.376503	1.995467	-1.866009
Br	-3.456908	0.0	0.0
