13

C	0.0	0.0	0.0
C	-0.484451	-0.327405	-1.412193
F	1.374455	0.0	0.0
H	-1.57567	-0.38065	-1.404257
H	-0.000767	-1.254157	-1.721609
C	-0.43209	1.330693	0.464689
N	-0.541998	2.433144	0.85535
C	-0.425891	-1.062327	0.931489
N	-0.525657	-1.961643	1.681244
N	-0.048539	0.725968	-2.377717
O	-0.927008	1.385054	-2.931677
O	1.161636	0.849906	-2.569932
Br	-3.46762	0.0	0.0
