15

C	-0.448309	0.084369	-1.452329
C	0.0	0.0	0.0
F	-1.82033	0.491685	-1.482454
H	1.095047	0.0	0.0
H	0.098249	0.893617	-1.9423
N	-0.253227	-1.119386	-2.158209
H	-0.74696	-1.887531	-1.721951
H	-0.538652	-1.027072	-3.122711
C	-0.505551	-1.228674	0.606653
N	-0.932044	-2.228574	1.052661
C	-0.444318	1.225842	0.803128
H	-1.53031	1.291007	0.877451
H	-0.065988	2.126678	0.313881
H	-0.008913	1.184116	1.802682
Cl	3.375653	0.0	0.0
