15

C	-0.447697	-0.020419	-1.463314
C	0.0	0.0	0.0
F	-0.139539	1.204791	-2.036644
H	1.09541	0.0	0.0
H	0.15428	-0.754431	-2.013305
N	-1.873256	-0.195812	-1.592736
H	-2.177725	-0.979066	-1.028208
H	-2.104674	-0.392426	-2.558544
C	-0.458658	-1.233674	0.634133
N	-0.894316	-2.218016	1.10641
C	-0.514641	1.228759	0.750843
H	-0.119621	2.120917	0.266249
H	-1.605227	1.273792	0.748168
H	-0.150469	1.208648	1.779318
Cl	3.381135	0.0	0.0
