15

C	-0.452409	-0.011066	-1.456363
C	0.0	0.0	0.0
F	0.075103	1.144067	-2.064429
H	1.095094	0.0	0.0
H	-0.003956	-0.857042	-1.981914
N	-1.869086	-0.059266	-1.599912
H	-2.282482	0.766111	-1.183642
H	-2.113515	-0.072579	-2.582507
C	-0.467709	-1.219412	0.655254
N	-0.860129	-2.181662	1.202358
C	-0.470447	1.241458	0.762964
H	0.01038	1.26315	1.741884
H	-1.554195	1.25579	0.913714
H	-0.161128	2.132481	0.215844
Cl	3.399109	0.0	0.0
