15

C	-0.448861	-0.053783	-1.456992
C	0.0	0.0	0.0
F	0.039209	1.108384	-2.085333
H	1.095137	0.0	0.0
H	0.032642	-0.891407	-1.965688
N	-1.861688	-0.157186	-1.603416
H	-2.310579	0.64978	-1.188632
H	-2.104148	-0.184588	-2.58579
C	-0.463735	-1.2022	0.689914
N	-0.855027	-2.145834	1.269333
C	-0.475513	1.259885	0.728538
H	-1.560874	1.280456	0.867475
H	-0.159167	2.137212	0.164139
H	-0.005717	1.302634	1.712057
Cl	3.391144	0.0	0.0
