15

C	-0.449634	0.047879	-1.453915
C	0.0	0.0	0.0
F	-1.821671	0.45197	-1.492081
H	1.095053	0.0	0.0
H	0.093816	0.845527	-1.96334
N	-0.254023	-1.17054	-2.131264
H	-0.745503	-1.928685	-1.677826
H	-0.536946	-1.102632	-3.098988
C	-0.505968	-1.212528	0.637424
N	-0.938676	-2.199026	1.106656
C	-0.443569	1.245707	0.772565
H	-1.529562	1.312798	0.846549
H	-0.006627	1.229476	1.772404
H	-0.06602	2.133724	0.260105
Cl	3.376307	0.0	0.0
