15

C	-0.590516	0.078185	-1.416409
C	0.0	0.0	0.0
F	-0.238213	-1.063911	-2.147884
H	1.094851	0.0	0.0
H	-1.681042	0.059526	-1.363129
N	-0.195481	1.28618	-2.093563
H	-0.947628	1.530685	-2.757943
H	0.6995	1.181009	-2.582457
C	-0.500851	-1.207872	0.644451
N	-0.940018	-2.166354	1.182224
C	-0.461623	1.220101	0.813816
H	-0.056651	2.100706	0.343717
H	-1.549584	1.290872	0.847788
H	-0.057584	1.158697	1.825568
Cl	3.324678	0.0	0.0
