18

C	0.0	0.0	0.0
C	-0.473445	0.004879	-1.464685
F	1.384126	0.0	0.0
H	-1.560463	-0.094398	-1.454183
N	-0.427219	1.23876	0.603993
H	-0.127999	1.227753	1.575024
H	-1.449849	1.209936	0.600663
N	-0.409492	-1.236538	0.607447
H	-1.427978	-1.27345	0.549331
H	-0.15731	-1.210409	1.590587
N	0.040018	-1.233018	-2.133183
O	-0.731099	-2.184146	-2.242358
O	1.199986	-1.221479	-2.549757
C	-0.008229	1.22364	-2.232058
H	-0.493365	2.105631	-1.817968
H	-0.276801	1.129049	-3.287532
H	1.07173	1.335963	-2.148874
Cl	-3.564219	0.0	0.0
