18

C	0.0	0.0	0.0
C	-0.456537	0.04114	-1.471146
F	1.38655	0.0	0.0
H	-1.550522	0.084935	-1.462049
N	-0.456554	1.224016	0.5961
H	-1.474372	1.227939	0.504861
H	-0.259395	1.137422	1.588422
N	-0.41283	-1.138609	0.772442
H	-1.431286	-1.121519	0.803723
H	-0.106267	-1.988419	0.316299
N	-0.136734	-1.214941	-2.231507
O	0.611896	-2.064876	-1.746368
O	-0.636649	-1.301736	-3.351879
C	0.144681	1.198823	-2.253325
H	-0.064635	2.12256	-1.717873
H	-0.288301	1.242876	-3.252956
H	1.227784	1.078934	-2.327632
Cl	-3.567344	0.0	0.0
