18

C	0.0	0.0	0.0
C	-0.374639	-0.263581	-1.464107
F	1.409925	0.0	0.0
H	0.025367	-1.248569	-1.703134
N	-0.500997	1.228587	0.485484
H	-0.21457	2.005146	-0.093603
H	-0.243832	1.368909	1.454407
N	-0.416922	-1.133902	0.778549
H	0.025058	-1.071785	1.688442
H	-1.422049	-1.056246	0.913163
N	0.392896	0.66132	-2.363769
O	0.310357	1.874887	-2.168472
O	1.028299	0.151073	-3.285742
C	-1.849139	-0.140686	-1.781173
H	-2.008997	-0.286729	-2.852802
H	-2.438092	-0.876591	-1.236773
H	-2.242386	0.825322	-1.474782
Cl	-4.720233	0.0	0.0
