18

C	0.0	0.0	0.0
C	-0.459614	-0.216382	-1.445609
F	1.41917	0.0	0.0
H	-1.553069	-0.186734	-1.419302
N	-0.485504	1.278196	0.408357
H	-0.224188	1.41826	1.379207
H	-1.510074	1.218828	0.36424
N	-0.420825	-1.090669	0.823062
H	0.304487	-1.779103	0.927814
H	-0.818099	-0.792089	1.696277
N	-0.133838	-1.591265	-1.948575
O	-0.723408	-1.93506	-2.971795
O	0.715254	-2.277597	-1.379372
C	0.123038	0.776974	-2.435137
H	-0.317955	0.625403	-3.420701
H	1.206688	0.657625	-2.49509
H	-0.097722	1.784077	-2.086022
Cl	-3.630507	0.0	0.0
