16

C	-0.418597	-0.039162	-1.468179
C	0.0	0.0	0.0
Cl	-0.062304	1.545571	-2.27203
H	1.094662	0.0	0.0
H	-0.309792	-0.96718	0.419756
C	0.377894	-1.117545	-2.194224
H	0.1193	-2.094522	-1.776083
H	0.164716	-1.115551	-3.265311
H	1.438123	-0.924704	-2.001343
C	-1.863797	-0.247355	-1.616539
N	-3.016831	-0.45922	-1.707348
C	-0.578739	1.136006	0.823756
H	-0.250923	1.025368	1.860583
H	-0.208933	2.098212	0.466716
H	-1.67434	1.153619	0.809089
H	3.008383	0.0	0.0
