16

C	-0.561123	0.02558	-1.417027
C	0.0	0.0	0.0
Cl	0.065221	-1.41462	-2.317631
H	1.093538	0.0	0.0
H	-0.328256	-0.943482	0.453625
C	-2.085774	-0.048408	-1.471285
H	-2.43561	-0.10917	-2.503838
H	-2.416982	-0.937653	-0.930649
H	-2.518733	0.838009	-1.001854
C	-0.11816	1.221636	-2.138594
N	0.145932	2.22181	-2.695342
C	-0.454065	1.189335	0.841146
H	-1.522942	1.188906	1.080676
H	-0.20546	2.132896	0.348132
H	0.108992	1.169016	1.779238
H	2.960223	0.0	0.0
