16

C	-0.419827	-0.039028	-1.468041
C	0.0	0.0	0.0
Cl	-0.063098	1.54478	-2.273691
H	1.094673	0.0	0.0
H	-0.309425	-0.967412	0.419543
C	0.376261	-1.117975	-2.193459
H	0.118206	-2.094864	-1.774345
H	0.162433	-1.116882	-3.264337
H	1.436573	-0.924357	-2.001079
C	-1.865472	-0.246673	-1.615107
N	-3.019755	-0.453284	-1.706453
C	-0.578164	1.135176	0.824988
H	-1.673692	1.15107	0.812921
H	-0.247923	1.025189	1.861048
H	-0.210928	2.098054	0.467287
H	3.007117	0.0	0.0
