12

C	0.0	0.0	0.0
C	-0.492887	-0.156819	-1.471132
Br	1.942986	0.0	0.0
H	0.385181	-0.215655	-2.130508
H	-0.325472	-0.847683	0.591098
C	-0.437303	1.232852	0.643992
N	-0.552402	2.262168	1.20132
C	-1.296632	0.97248	-1.947076
N	-1.770179	1.894899	-2.498323
C	-1.220998	-1.419322	-1.626027
N	-1.613025	-2.499665	-1.872534
F	-2.303557	0.0	0.0
