13
Coordinates from ORCA-job run
  C   0.87615611021563      0.15142698045801      0.19143022265360
  C   -0.45996869775544      0.29229913387795      0.21560474597935
  H   1.46049263760943      0.73656023362311      0.88956127077565
  C   1.54220863511699     -0.78515137662579     -0.76754009117172
  H   1.55441395715781     -1.81565878346615     -0.39243772911717
  H   1.02507468165686     -0.78925391391324     -1.73169356726534
  H   2.57911665226201     -0.49429937600636     -0.93941755094324
  N   -1.06359973689096      1.27486390571676      1.14620625932357
  O   -0.32140215034354      2.01932511067586      1.77513766235642
  O   -2.29495990109119      1.27616202481560      1.22293593613778
  N   -1.38546093430370     -0.34842924813978     -0.58773744214618
  H   -1.17836095143981     -1.32273601204975     -0.74397015295361
  H   -2.33371030219409     -0.19410867896624     -0.27807956362911
