13
Coordinates from ORCA-job run
  C   0.33621799153961     -0.46617024905628     -0.68225117375221
  C   -0.65849957023527     -0.13148834022295      0.16232693371844
  H   0.04290459077573     -1.15355937566699     -1.47388807558706
  C   1.77410845298210     -0.03869995115975     -0.65422136907232
  H   2.33509891914130     -0.57101733516157      0.11798444269313
  H   1.88717269937894      1.02541757678857     -0.44373715980687
  H   2.23592294255940     -0.25138344458198     -1.61949751530513
  N   -0.43458090888114      0.82243083265398      1.26168648829067
  O   0.70360308072085      0.94884401914743      1.70619669103942
  O   -1.42205730272191      1.44677479441803      1.65587642382283
  N   -1.95617399226921     -0.62261635945450      0.18297206205947
  H   -2.21358504617695     -1.08644824013839     -0.67481860335867
  H   -2.62913185681346      0.07691607243440      0.46137085525830
