13
Coordinates from ORCA-job run
  C   0.41902441616870     -0.62190963508589     -0.48320321409536
  C   -0.68458551919933     -0.07261693936908      0.06028975995247
  H   0.25030916160399     -1.57763041456222     -0.97652109994419
  C   1.81722543094171     -0.07884366782341     -0.51617743645751
  H   2.51213156831585     -0.87846816826294     -0.77687280691708
  H   2.12140309496667      0.34456706679786      0.44183482150645
  H   1.91994415076264      0.71840063067606     -1.25654132945334
  N   -0.61495716314967      1.19721932252772      0.80290872488812
  O   -1.47953215829067      1.37729965416060      1.66335007769123
  O   0.29016209218143      1.98396540800320      0.53662105306619
  N   -1.99000428320349     -0.53611902536763     -0.01490639232203
  H   -2.04915434152494     -1.49863872526047     -0.31006772583305
  H   -2.51396644957289     -0.35622550643379      0.82928556791810
