13
Coordinates from ORCA-job run
  C   0.30499319134053     -0.43779358970530     -0.74121788378980
  C   -0.66478643854949     -0.10244121259104      0.12181398462646
  H   0.04043389146085     -1.18741832433890     -1.48430580911837
  C   1.69652040857366      0.12554751879964     -0.77878833333295
  H   2.06027869478238      0.15343792972060     -1.80742039376787
  H   1.73366520366582      1.13875551292295     -0.38198709586970
  H   2.39507099699251     -0.49358580829419     -0.20672774541052
  N   -0.39920383141108      0.85078448256964      1.21176283400024
  O   -0.02144459032814      1.98323113380535      0.92328022470154
  O   -0.64879089460045      0.44297123176211      2.34707424243804
  N   -1.99914887405203     -0.49960476516967      0.14566748544280
  H   -2.17048720875289     -1.30580710035262     -0.43841004926436
  H   -2.32710054912167     -0.66607700912856      1.08825853934450
