13
Coordinates from ORCA-job run
  C   0.31986990675703     -0.34641446697969     -0.75712316168686
  C   -0.60194069678622     -0.25663359844205      0.22120876106084
  H   0.04636762381176     -1.01253451558966     -1.57365949818611
  C   1.65920410074238      0.32338905729504     -0.84873504229420
  H   2.02340722957623      0.26936547681765     -1.87571494638988
  H   1.62210761085254      1.37134626429652     -0.54911233241823
  H   2.39359942648934     -0.16064075639353     -0.19998026769216
  N   -0.40222764229294      0.63610146568182      1.37540643102544
  O   -1.42181575312307      1.04496560595586      1.93541307229957
  O   0.74607118115331      0.92733663626014      1.70025513499874
  N   -1.78772966659812     -0.96715988161262      0.33838103561304
  H   -2.52631702615931     -0.42094997737596      0.75747463590879
  H   -2.07059629442295     -1.40517130991351     -0.52481382223895
