13
Coordinates from ORCA-job run
  C   0.36184621833004     -0.34747891684872     -0.79245168896547
  C   -0.62856348105391     -0.22576074584973      0.10428756394822
  H   0.10441692737043     -1.01252984690254     -1.61258963647340
  C   1.72100247964151      0.27978212007727     -0.79949498574758
  H   2.15595003551858      0.20876207963490     -1.79696116107965
  H   2.38729808600467     -0.22759628551771     -0.09735261509704
  H   1.69304923559862      1.32660646452487     -0.49705927746441
  N   -0.49473610038925      0.70567446499860      1.25743580598154
  O   0.63020491438144      0.97622580271580      1.67236080533306
  O   -1.54558841099936      1.15372682965144      1.71823897057353
  N   -1.85839381844748     -0.89813159763152     -0.00631482360961
  H   -1.90657957077466     -1.67419042075102      0.64326091800576
  H   -2.61890651518063     -0.26508994810165      0.20864012459506
