13
Coordinates from ORCA-job run
  C   0.78255456181167      0.44439909456718     -0.13650178943864
  C   -0.45692860533577      0.18757452254589      0.31455732567236
  H   1.19426919071711      1.42905830030803      0.04236913841758
  C   1.57463394621237     -0.59615888320732     -0.86506605477976
  H   1.39955404451392     -1.58871410171178     -0.43925466839539
  H   2.64284877755770     -0.38470556486051     -0.80622115025543
  H   1.31272642114865     -0.64033529589645     -1.92914853621319
  N   -1.17536632483143      1.23409809198223      1.07998853418911
  O   -0.57203625100767      2.25559652312067      1.38505665995695
  O   -2.35238057289251      0.99783184159734      1.36415198025463
  N   -1.16247783731492     -0.99576237458523      0.20133218956860
  H   -2.12617840385232     -0.89818101556512      0.48491916774173
  H   -1.06121894672678     -1.44370113829494     -0.69618279671855
