13
Coordinates from ORCA-job run
  C   0.87393317242381     -0.04993388279927      0.25206817614788
  C   -0.43739307609612      0.23816460920711      0.30824279202055
  H   1.47208320382698      0.12818933572139      1.13611969688496
  C   1.49294933534422     -0.60420212733052     -0.99319323206839
  H   1.05217520739397     -0.14664100156880     -1.88405796659771
  H   2.56723231761002     -0.41783402587086     -1.01111492009345
  H   1.35229101834710     -1.68895360922046     -1.07336719659826
  N   -0.99098064742273      0.83625478881461      1.54617242679321
  O   -2.21700869536750      0.96505625010282      1.59453484015404
  O   -0.21579304323136      1.16580436838149      2.43552098956225
  N   -1.37064441496101      0.09353175285867     -0.70119276426071
  H   -1.26210714416514     -0.75489289233208     -1.23502822057540
  H   -2.31573723370225      0.23345643403590     -0.37570462136896
