13
Coordinates from ORCA-job run
  C   0.64111698234810      0.49054887899937     -0.42088207263632
  C   -0.48597574059556      0.20638405422119      0.25341362364380
  H   0.90639201234830      1.53166296159471     -0.55040628226070
  C   1.50905152021728     -0.59649227726439     -0.97410454930128
  H   2.12834190199246     -0.22382365001469     -1.79068992948380
  H   2.18713474016313     -1.00555211338205     -0.21538852836172
  H   0.90232597670999     -1.42289479895593     -1.35636388996338
  N   -1.33863494901146      1.32051350579426      0.73209075413441
  O   -1.05494885314979      2.46301228834680      0.39346795135945
  O   -2.29403105331690      1.01350584614670      1.44970673442869
  N   -1.00873387259265     -1.04431357861498      0.52440476977156
  H   -1.78074462315463     -1.00631480123824      1.17344413445927
  H   -0.31329404195826     -1.72723631563275      0.78230728421003
