13
Coordinates from ORCA-job run
  C   0.88374298826167      0.14110385959061      0.16665363817516
  C   -0.45087736503105      0.21812232489378      0.30299979295273
  H   1.50012412729145      0.57878803251136      0.94099648225552
  C   1.50567307458164     -0.53358204851562     -1.01618574441991
  H   2.52119636743208     -0.17218050097083     -1.18166800332269
  H   1.56815667085901     -1.62028087609899     -0.88189359224683
  H   0.92386040599396     -0.34450671344674     -1.92325088265913
  N   -1.01461741980877      0.94601672136110      1.46442341797708
  O   -0.25026891876478      1.55987623717641      2.19895854180220
  O   -2.23781915816884      0.88349338865983      1.61280979901567
  N   -1.41243631684894     -0.26492477951209     -0.56530823950688
  H   -2.34114949843644     -0.21987000344938     -0.17232662375695
  H   -1.19358495736099     -1.17205564219944     -0.94720858626597
