13
Coordinates from ORCA-job run
  C   0.82650329933191      0.37778241855831     -0.05470430356148
  C   -0.46479251950282      0.21835937535416      0.28153772192524
  H   1.36825269872726      1.20389767095702      0.38706336040168
  C   1.49929920783876     -0.55452128114558     -1.01347278830446
  H   2.36752395365546     -0.08116240742162     -1.47332773878828
  H   1.85385460271000     -1.46643914361853     -0.51807348911653
  H   0.81305456407278     -0.85573779997344     -1.81062517166857
  N   -1.09885830559765      1.20283544637741      1.19046883049158
  O   -2.24520604821038      0.94564781398078      1.56686380046596
  O   -0.46354827185768      2.20047773890647      1.50890632928063
  N   -1.33440767614949     -0.75730600707755     -0.16880141211243
  H   -2.20598008158539     -0.76144255337743      0.34024464003652
  H   -0.91669542343276     -1.67239127152000     -0.23707977904985
