13
Coordinates from ORCA-job run
  C   0.49242177820070     -0.69696899498362     -0.39469638107389
  C   -0.63533707434286     -0.19166978794195      0.12540261848460
  H   0.37516641010779     -1.72127877157094     -0.73824767200525
  C   1.83647171200471     -0.05730614870179     -0.55022299261780
  H   1.76520556475182      0.99313074410011     -0.83101013234470
  H   2.39085166644525     -0.09066080773661      0.39131611058824
  H   2.41485562903875     -0.59114286307622     -1.30518107679276
  N   -0.68326297378262      1.21884387122298      0.59737782859496
  O   -1.78347086210377      1.77049222290045      0.54654779521450
  O   0.35286831540263      1.74224087778884      1.00263395186428
  N   -1.84167209282607     -0.91291523189501      0.19880553003637
  H   -2.09162849324502     -1.09343765198050      1.16451034135014
  H   -2.59246957965129     -0.36932745812573     -0.21023592129870
