13
Coordinates from ORCA-job run
  C   0.75947395511518      0.44137593937658     -0.23782446928659
  C   -0.48371195097310      0.23697980053684      0.22962395481187
  H   1.18680011145818      1.42964473677812     -0.12939583017155
  C   1.53597423383977     -0.66145372857409     -0.88723621679229
  H   0.87931675624573     -1.30107016970550     -1.48456214842118
  H   2.03861472123142     -1.29844910722587     -0.14940129224586
  H   2.30869514619120     -0.26001139304292     -1.54377064424947
  N   -1.22944765796522      1.37756202546542      0.81260125839082
  O   -2.31275336130846      1.11460359268456      1.34117511854871
  O   -0.74009117741334      2.49797800756006      0.73723532763794
  N   -1.21376611772888     -0.93608919163286      0.18782883747766
  H   -2.06072123993970     -0.88176611337280      0.73411453626919
  H   -0.66938341875279     -1.76030439884754      0.38961156803074
