13
Coordinates from ORCA-job run
  C   0.33801546123822     -0.39262753258669     -0.72565319530866
  C   -0.66025463026437     -0.14417880232122      0.14402184211976
  H   0.04570012299737     -0.98994573598330     -1.58768828611809
  C   1.77795099305584      0.02056587103129     -0.64511207881327
  H   1.89617534635546      1.05496905823747     -0.32032166946896
  H   2.24327079115792     -0.08953479143162     -1.62572661712547
  H   2.33201600772432     -0.59565962109635      0.06738789373973
  N   -0.43796929551160      0.68712728645238      1.33938148991971
  O   -1.42398844958965      1.27410199251681      1.79034032542663
  O   0.69768395057094      0.75659576949290      1.80237751268304
  N   -1.96044235904127     -0.62732737616761      0.10606666179641
  H   -2.21462847419444     -0.99863100229017     -0.79654587837523
  H   -2.63152946449873      0.04354488414609      0.45147199952440
