13
Coordinates from ORCA-job run
  C   0.55502967053896      0.45299514917446     -0.56158083349350
  C   -0.44112723770014      0.22690759070199      0.31150575335968
  H   0.77750956038627      1.47913876051958     -0.82354500260427
  C   1.33873675363811     -0.67614332201665     -1.15454687455583
  H   2.14228411458270     -1.01191700346802     -0.48796770769302
  H   1.80520289385822     -0.37585574775716     -2.09342737756110
  H   0.69279720104041     -1.53629283277724     -1.35454459239269
  N   -1.22264024725510      1.37628891778976      0.82537829997676
  O   -2.04213883477654      1.13144926515683      1.71449392659714
  O   -1.01738774565248      2.48541654138346      0.34750856408231
  N   -0.89072560307920     -0.99691212403103      0.77206715483414
  H   -0.14979977238870     -1.65078008996587      0.97222813129163
  H   -1.54674075319253     -0.90329510471012      1.53343055815875
