13
Coordinates from ORCA-job run
  C   0.48312242189614      0.47819982624108     -0.60594044867198
  C   -0.40791698177301      0.21040697437953      0.36361804907232
  H   0.49038241579537      1.47453569856225     -1.02822691527505
  C   1.43636086644258     -0.56791894051533     -1.09383642220505
  H   0.97584048874039     -1.22545637096202     -1.84112017477944
  H   2.30953216672792     -0.11235786690204     -1.56202106611443
  H   1.78156514530117     -1.19656858045391     -0.26750869979863
  N   -1.29162243132560      1.29678508708096      0.84920946296904
  O   -1.10004825617081      2.43534936017933      0.43997927801457
  O   -2.17373655587212      0.97302498097990      1.64867013000786
  N   -0.57980853015990     -0.98400727821289      1.03833159644722
  H   -1.41028360146951     -0.98492019856631      1.61207600058920
  H   -0.51338714813262     -1.79707269181056      0.44576920974438
