16

C	-0.483697	0.019648	-1.442102
C	0.0	0.0	0.0
F	0.188245	0.90026	-2.223335
H	1.089268	0.0	0.0
N	-0.082288	-1.34291	-2.11056
O	-0.579827	-1.522843	-3.223063
O	0.701111	-2.090827	-1.540507
N	-1.862888	0.251256	-1.575917
H	-2.155696	0.057254	-2.527062
H	-2.390877	-0.303335	-0.916849
C	-0.565299	-1.124795	0.706203
N	-1.027644	-2.066087	1.241687
N	-0.323207	1.241863	0.696406
O	-0.106124	2.295305	0.090086
O	-0.611261	1.164319	1.899947
H	2.380546	0.0	0.0
