16

C	-0.494612	-0.020654	-1.435548
C	0.0	0.0	0.0
F	-0.058537	1.14643	-2.028233
H	1.088712	0.0	0.0
N	0.197064	-1.143891	-2.20615
O	0.175944	-1.026026	-3.428087
O	0.621558	-2.093183	-1.565462
N	-1.86902	-0.246603	-1.607984
H	-2.396423	0.324954	-0.960436
H	-2.134455	-0.066292	-2.568214
C	-0.552953	-1.057694	0.816592
N	-0.942744	-1.905616	1.532886
N	-0.454467	1.316319	0.593096
O	0.397885	2.115328	0.949671
O	-1.675618	1.497329	0.685587
H	2.5688	0.0	0.0
