16

C	-0.518829	-0.028597	-1.427659
C	0.0	0.0	0.0
F	-0.077458	1.129831	-2.039783
H	1.088633	0.0	0.0
N	0.153944	-1.157955	-2.202146
O	0.802521	-1.984333	-1.576598
O	-0.058305	-1.144767	-3.412689
N	-1.897592	-0.24061	-1.586014
H	-2.154251	-0.103103	-2.554832
H	-2.410362	0.375295	-0.968308
C	-0.53871	-1.070742	0.808278
N	-0.941191	-1.922543	1.512889
N	-0.454155	1.312824	0.60454
O	0.403312	2.081871	1.00987
O	-1.672068	1.522984	0.648228
H	2.574421	0.0	0.0
