16

C	-0.270565	-0.050437	-1.496457
C	0.0	0.0	0.0
F	-0.466927	-1.399951	-1.847133
H	1.09373	0.0	0.0
N	-1.644828	0.526018	-1.896233
O	-1.760806	0.911396	-3.053872
O	-2.538285	0.476254	-1.060493
N	0.741464	0.567064	-2.186161
H	1.645189	0.420204	-1.714691
H	0.728423	0.386922	-3.177833
C	-0.526799	-1.115029	0.747749
N	-0.899216	-2.067628	1.326654
N	-0.365628	1.279669	0.62742
O	-0.47517	1.284427	1.854573
O	-0.425053	2.272138	-0.095179
H	2.485178	0.0	0.0
