14

C	-0.334945	-0.025082	-1.506419
C	0.0	0.0	0.0
F	0.005457	1.245028	-1.998384
H	1.098129	0.0	0.0
N	0.390913	-1.074922	-2.09072
H	1.378696	-0.998919	-1.844471
H	0.262692	-1.110466	-3.093556
C	-1.784304	-0.166705	-1.764854
N	-2.937568	-0.251499	-1.970395
C	-0.484143	-1.207287	0.661762
N	-0.879906	-2.168756	1.207797
C	-0.513591	1.199292	0.651601
N	-0.936736	2.157731	1.181597
Br	3.325421	0.0	0.0
