14

C	-0.37431	0.054953	-1.488953
C	0.0	0.0	0.0
F	-1.739741	0.238912	-1.63708
H	1.097836	0.0	0.0
N	0.295769	1.169843	-2.061777
H	1.291115	1.132865	-1.838474
H	0.164611	1.186245	-3.06644
C	-0.077068	-1.248947	-2.139868
N	0.19988	-2.257013	-2.677108
C	-0.510844	-1.198448	0.655376
N	-0.922068	-2.162274	1.18486
C	-0.483794	1.20374	0.67158
N	-0.862479	2.157923	1.240965
Br	3.316463	0.0	0.0
