14

C	-0.499776	0.107737	-1.451595
C	0.0	0.0	0.0
F	-1.916383	0.019959	-1.40751
H	1.103938	0.0	0.0
N	-0.050967	1.293159	-2.050509
H	-0.390235	1.39294	-2.99686
H	-0.257934	2.111642	-1.493891
C	-0.072355	-1.055759	-2.25193
N	0.191441	-1.97368	-2.934296
C	-0.49492	-1.223593	0.626028
N	-0.892382	-2.209554	1.124499
C	-0.461549	1.17365	0.740668
N	-0.821757	2.149796	1.28588
Br	3.302801	0.0	0.0
