15

C	-0.009419	0.003407	0.0071
C	-0.540726	0.199878	-1.441943
Cl	1.807332	-0.012076	-0.03377
H	-1.651727	0.190255	-1.215287
N	-0.471593	1.140675	0.743631
H	-1.497722	1.032872	0.675549
H	-0.208402	0.982189	1.711744
N	-0.454946	-1.235255	0.584348
H	-0.145152	-2.023797	0.025183
H	-1.481263	-1.145163	0.522594
C	-0.204331	-0.928159	-2.299641
N	0.049204	-1.856968	-2.973395
C	-0.132215	1.457658	-2.052713
N	0.1733	2.456326	-2.590832
F	-2.804221	-0.00428	-0.034991
