14

C	-0.461354	0.007261	-1.448593
C	0.0	0.0	0.0
Br	0.20051	-1.551673	-2.396801
H	1.096913	0.0	0.0
H	-0.340047	0.948365	0.424471
N	-2.005184	0.018438	-1.474968
O	-2.47499	1.005769	-0.918885
O	-2.617299	-0.956993	-1.873788
C	-0.02414	1.203209	-2.154018
N	0.358201	2.177309	-2.691614
N	-0.645176	-1.106291	0.686658
H	-0.060251	-1.933212	0.649903
H	-0.796451	-0.871842	1.657067
Br	2.757956	0.0	0.0
