14

C	-0.451744	-0.005861	-1.464349
C	0.0	0.0	0.0
Br	0.198519	1.57663	-2.385188
H	1.097139	0.0	0.0
H	-0.346331	-0.952783	0.417243
N	0.167666	-1.261123	-2.098886
O	-0.525438	-2.272315	-2.019167
O	1.307586	-1.18731	-2.526315
C	-1.894371	-0.068868	-1.609511
N	-3.067563	-0.104775	-1.691552
N	-0.630469	1.110034	0.686342
H	-0.887717	0.850134	1.626933
H	0.00036	1.901546	0.732232
Br	2.760064	0.0	0.0
