14

C	-0.495885	0.008959	-1.446891
C	0.0	0.0	0.0
Br	0.194449	-1.493875	-2.440737
H	1.098094	0.0	0.0
H	-0.358067	0.930805	0.446461
N	-2.041158	-0.043627	-1.393845
O	-2.538682	0.940829	-0.857253
O	-2.637546	-1.013215	-1.824142
C	-0.154066	1.238019	-2.154165
N	0.10204	2.22581	-2.738162
N	-0.584122	-1.145732	0.691639
H	-0.72843	-0.896488	1.661543
H	0.096185	-1.897354	0.682476
Br	3.54358	0.0	0.0
