14

C	-0.561173	-0.022267	-1.410984
C	0.0	0.0	0.0
Br	0.207082	1.389671	-2.499791
H	1.091337	0.0	0.0
H	-0.320332	0.949036	0.443011
N	-0.242962	-1.342936	-2.109439
O	-0.998681	-1.665142	-3.021152
O	0.748409	-1.944007	-1.729778
C	-2.009831	0.131259	-1.408892
N	-3.167868	0.311571	-1.338686
N	-0.553972	-1.155849	0.697923
H	-1.032353	-0.87637	1.541703
H	0.208457	-1.774488	0.945187
Br	3.583812	0.0	0.0
