14

C	-0.460401	0.00553	-1.438023
C	0.0	0.0	0.0
Br	0.195992	-1.54949	-2.404708
H	1.09691	0.0	0.0
H	-0.341903	0.948369	0.426953
N	-2.001729	-0.046781	-1.333028
O	-2.489073	1.05601	-1.011023
O	-2.628217	-0.911392	-1.949335
C	-0.035373	1.205846	-2.150343
N	0.332294	2.17944	-2.698212
N	-0.651326	-1.113508	0.684958
H	-0.031623	-1.918107	0.662036
H	-0.786157	-0.870451	1.656773
Br	2.949902	0.0	0.0
