14

C	-0.460511	-0.007601	-1.450219
C	0.0	0.0	0.0
Br	-2.419128	0.182861	-1.551659
H	1.094501	0.0	0.0
H	-0.34321	0.93277	0.453568
N	0.103309	1.20177	-2.198103
O	0.453567	1.035988	-3.36027
O	0.121105	2.250557	-1.568569
C	-0.104384	-1.228839	-2.156501
N	0.160501	-2.212307	-2.74245
N	-0.47782	-1.209577	0.64764
H	-1.250961	-1.015898	1.271964
H	0.283601	-1.617047	1.178162
Br	3.514958	0.0	0.0
