14

C	-0.55708	-0.017355	-1.425594
C	0.0	0.0	0.0
Br	0.293161	1.326582	-2.538713
H	1.089598	0.0	0.0
H	-0.343954	-0.922545	0.48403
N	-0.304683	-1.361329	-2.107459
O	0.653811	-2.001956	-1.699282
O	-1.059462	-1.671369	-3.026368
C	-1.999315	0.211176	-1.423619
N	-3.1579	0.397561	-1.347308
N	-0.471247	1.215269	0.648655
H	0.307142	1.651964	1.123385
H	-1.200166	1.021568	1.320187
Br	3.575617	0.0	0.0
