14

C	-0.457585	0.005899	-1.456719
C	0.0	0.0	0.0
Br	0.247785	-1.526695	-2.408594
H	1.095071	0.0	0.0
H	-0.337258	0.949526	0.422632
N	-1.997938	-0.026789	-1.474608
O	-2.492152	0.938673	-0.89963
O	-2.587709	-1.009699	-1.888152
C	-0.055031	1.219117	-2.153476
N	0.30504	2.197387	-2.698953
N	-0.619797	-1.117927	0.677441
H	-1.006049	-0.850266	1.568977
H	0.029095	-1.883384	0.808591
Br	2.758242	0.0	0.0
