16

C	0.0	0.0	0.0
C	-0.442952	-0.178859	-1.450112
F	1.429457	0.0	0.0
H	0.33493	-0.774651	-1.943452
H	-0.422432	0.823574	-1.918758
N	-0.459344	1.242361	0.508888
H	-0.23453	1.343338	1.489707
H	-0.065726	2.01177	-0.01683
C	-0.433668	-1.129194	0.906296
H	0.032425	-0.991552	1.888379
H	-1.520159	-1.123412	0.998549
H	-0.112711	-2.085306	0.492081
N	-1.714087	-0.876556	-1.524878
H	-2.062969	-0.835395	-2.47586
H	-2.457011	-0.438776	-0.935712
H	-3.95482	0.0	0.0
