16

C	0.0	0.0	0.0
C	-0.471313	-0.013147	-1.436436
F	1.436503	0.0	0.0
H	-1.566505	-0.071498	-1.372091
H	-0.209138	0.958241	-1.8898
N	-0.415733	1.224647	0.599478
H	0.148804	1.986205	0.246292
H	-0.337921	1.181658	1.606142
C	-0.510909	-1.18028	0.779263
H	-0.100895	-1.165298	1.794911
H	-1.605784	-1.092557	0.802103
H	-0.216568	-2.103184	0.280746
N	0.075526	-1.161378	-2.161674
H	1.045579	-0.978362	-2.385326
H	-0.431635	-1.273538	-3.030059
H	-3.71394	0.0	0.0
