16

C	0.0	0.0	0.0
C	-0.393086	-0.106417	-1.497973
F	1.402721	0.0	0.0
H	-0.592678	-1.168126	-1.7232
H	0.492297	0.186496	-2.074871
N	-0.457358	1.200802	0.638243
H	-0.486507	1.924934	-0.074387
H	-1.443624	1.036476	0.857793
C	-0.450016	-1.200661	0.80315
H	-1.53926	-1.272338	0.736716
H	-0.146645	-1.065679	1.844467
H	0.015666	-2.106199	0.405225
N	-1.495875	0.795699	-1.819857
H	-1.782182	0.619926	-2.778187
H	-2.302833	0.531019	-1.216634
H	-3.429614	0.0	0.0
