16

C	0.0	0.0	0.0
C	-0.473644	0.008052	-1.442963
F	1.43107	0.0	0.0
H	-1.568836	0.060263	-1.391369
H	-0.100375	0.927326	-1.913748
N	-0.415403	1.211629	0.620496
H	0.009541	2.002816	0.154344
H	-0.164162	1.219497	1.599734
C	-0.509661	-1.181215	0.781319
H	-0.163249	-2.117753	0.340961
H	-1.606845	-1.118315	0.756978
H	-0.150256	-1.134998	1.814283
N	-0.046986	-1.134697	-2.250372
H	-0.620074	-1.933787	-2.005574
H	0.913077	-1.359981	-2.010043
H	-3.649249	0.0	0.0
