18

C	0.0	0.0	0.0
C	-0.506425	0.059224	-1.442535
F	1.400934	0.0	0.0
H	-1.595375	-0.038813	-1.358447
C	-0.366416	1.228298	0.737294
N	-0.544298	2.234445	1.315463
C	-0.485594	-1.227407	0.736539
H	-0.174617	-2.106324	0.173145
H	-0.054296	-1.24764	1.740115
H	-1.576112	-1.184964	0.795674
N	0.018469	-1.114974	-2.143109
H	0.947848	-0.908746	-2.492402
H	-0.577489	-1.312234	-2.937151
C	-0.164429	1.382658	-2.121805
H	-0.668743	2.222205	-1.639829
H	-0.487425	1.348586	-3.165907
H	0.915758	1.560688	-2.098182
Br	-3.939721	0.0	0.0
