18

C	0.0	0.0	0.0
C	-0.40677	-0.083643	-1.502547
F	1.396029	0.0	0.0
H	0.349482	0.546732	-1.989394
C	-0.365155	1.339868	0.508879
N	-0.58398	2.418921	0.916819
C	-0.558463	-1.074895	0.900465
H	-0.236959	-0.907663	1.931111
H	-1.652138	-1.038377	0.858853
H	-0.208655	-2.054736	0.574407
N	-1.704085	0.427963	-1.865638
H	-1.796273	1.406179	-1.61469
H	-2.472175	-0.03917	-1.38214
C	-0.257137	-1.507022	-2.021795
H	-1.068111	-2.13555	-1.646371
H	-0.330091	-1.488123	-3.110442
H	0.702368	-1.945431	-1.733854
Br	-4.47881	0.0	0.0
