18

C	0.0	0.0	0.0
C	-0.500031	0.122525	-1.449825
F	1.398856	0.0	0.0
H	-1.588375	0.219726	-1.368065
C	-0.366086	1.20839	0.77065
N	-0.539489	2.189579	1.391833
C	-0.488925	-1.239877	0.713946
H	-0.117499	-2.126001	0.196324
H	-1.582811	-1.230156	0.716434
H	-0.113343	-1.249331	1.739363
N	-0.211828	-1.0653	-2.250575
H	-0.854581	-1.806283	-1.999242
H	0.732975	-1.384488	-2.063849
C	0.0872	1.348262	-2.136345
H	-0.156035	2.266465	-1.597296
H	-0.32563	1.410562	-3.144046
H	1.175181	1.265931	-2.212311
Br	-3.902841	0.0	0.0
