18

C	0.0	0.0	0.0
C	-0.491898	0.122978	-1.452881
F	1.399417	0.0	0.0
H	-1.584272	0.17128	-1.384013
C	-0.370383	1.202522	0.775716
N	-0.552116	2.180369	1.399864
C	-0.487534	-1.244921	0.706189
H	-1.581291	-1.231524	0.713686
H	-0.10634	-1.263838	1.729465
H	-0.121217	-2.12779	0.179446
N	-0.134733	-1.039325	-2.263971
H	-0.739625	-1.816681	-2.029914
H	0.822863	-1.310755	-2.06689
C	0.044829	1.384278	-2.116377
H	1.137736	1.368074	-2.154989
H	-0.336473	1.425629	-3.1373
H	-0.272738	2.283054	-1.584017
Br	-3.902968	0.0	0.0
