18

C	0.0	0.0	0.0
C	-0.422482	0.586017	-1.358148
F	1.391939	0.0	0.0
H	0.278972	0.115433	-2.059616
C	-0.407459	0.887165	1.107884
N	-0.647488	1.575741	2.028105
C	-0.499233	-1.408589	0.242027
H	-0.045295	-1.800377	1.154552
H	-0.210548	-2.043049	-0.599045
H	-1.586578	-1.412099	0.347139
N	-0.108903	2.019858	-1.348678
H	-0.872544	2.506634	-0.886799
H	-0.102814	2.347101	-2.30858
C	-1.852163	0.259438	-1.76063
H	-2.002224	-0.805365	-1.951014
H	-2.091964	0.800944	-2.680369
H	-2.596469	0.544035	-1.011324
Br	-4.962931	0.0	0.0
