18

C	0.0	0.0	0.0
C	-0.39714	0.186262	-1.498326
F	1.399079	0.0	0.0
H	0.380015	0.869085	-1.866868
C	-0.364853	1.230526	0.734924
N	-0.55998	2.233472	1.313899
C	-0.564007	-1.215899	0.691171
H	-0.205536	-2.123552	0.204419
H	-1.657243	-1.173188	0.639431
H	-0.258083	-1.229876	1.739426
N	-1.675322	0.792103	-1.776854
H	-2.462066	0.285813	-1.366825
H	-1.725439	1.726748	-1.388866
C	-0.282592	-1.131052	-2.253974
H	-0.349116	-0.922915	-3.3229
H	-1.112793	-1.791435	-1.992183
H	0.662864	-1.639173	-2.046105
Br	-4.43479	0.0	0.0
