19

C	-0.500989	0.033814	-1.452138
C	0.0	0.0	0.0
Cl	-0.092104	-1.555252	-2.245353
H	1.101082	0.0	0.0
C	-2.007678	0.197725	-1.535581
H	-2.511821	-0.595066	-0.981251
H	-2.336067	0.172239	-2.57755
H	-2.277486	1.163494	-1.102069
C	0.25195	1.107519	-2.217159
H	-0.048192	1.111743	-3.268541
H	0.025715	2.076369	-1.767298
H	1.32755	0.930375	-2.143686
N	-0.561234	-1.13969	0.738409
H	-0.044434	-1.186709	1.612283
H	-0.321224	-1.988679	0.237081
N	-0.413174	1.247504	0.64277
H	0.335817	1.56137	1.24803
H	-1.23231	1.051685	1.207686
Br	3.666085	0.0	0.0
