19

C	-0.499897	0.040552	-1.452389
C	0.0	0.0	0.0
Cl	-0.087618	-1.542464	-2.256611
H	1.101141	0.0	0.0
C	-2.006923	0.205568	-1.535238
H	-2.511369	-0.5903	-0.985682
H	-2.277481	1.169122	-1.096814
H	-2.334648	0.185763	-2.5775
C	0.252946	1.1173	-2.213344
H	0.026483	2.084935	-1.760127
H	1.329	0.939759	-2.14105
H	-0.047137	1.124649	-3.26459
N	-0.560368	-1.14429	0.731509
H	-0.0431	-1.196315	1.605203
H	-0.319023	-1.989791	0.225111
N	-0.413391	1.242105	0.653469
H	0.33541	1.549385	1.262027
H	-1.23324	1.042439	1.216498
Br	3.665311	0.0	0.0
