19

C	-0.501894	-0.032361	-1.451907
C	0.0	0.0	0.0
Cl	-0.08957	1.553827	-2.24817
H	1.101408	0.0	0.0
C	0.249999	-1.106178	-2.217702
H	-0.050388	-1.10946	-3.268955
H	0.0229	-2.075094	-1.768315
H	1.325801	-0.929805	-2.14448
C	-2.008758	-0.19456	-1.534384
H	-2.511809	0.599423	-0.980833
H	-2.337581	-0.169954	-2.576303
H	-2.279153	-1.159198	-1.098968
N	-0.41338	-1.248281	0.641279
H	0.338968	-1.568165	1.238462
H	-1.22638	-1.051148	1.213366
N	-0.56077	1.13739	0.742379
H	-0.038692	1.185668	1.612942
H	-0.326656	1.986963	0.239763
Br	3.66284	0.0	0.0
