14
Coordinates from ORCA-job run
  C   -0.47744712197929     -0.04160481511491      0.24979476069948
  C   0.75023542577937      0.05308474130212     -0.65003784313850
  Br  -1.81634473310417     -1.16836021716204     -0.63846605944333
  H   0.49599079568971      0.56013495506641     -1.57914438314374
  H   1.54971947476394      0.58419631804099     -0.12555223812763
  C   -0.18394163403098     -0.62623411561264      1.55564562192913
  N   0.01186967488157     -0.99849444042067      2.65322056938069
  C   -1.06568348629932      1.35700481629353      0.44185836044139
  H   -0.32786398696722      1.99963560702261      0.93063049665327
  H   -1.33779188761632      1.78465516987419     -0.52450563787442
  H   -1.95562970550015      1.30693168839559      1.06901842719643
  N   1.30770264528025     -1.27831041688464     -1.03313475761042
  O   1.54509195858223     -2.06080809737714     -0.11903316106047
  O   1.50309258052037     -1.47183119342341     -2.22929415590188
