14
Coordinates from ORCA-job run
  C   -0.72425735933513     -0.13847712352573      0.09145045848398
  C   0.25704211650178     -0.50246881938479     -1.02754092207640
  Br  -2.50949331511513     -0.32289612104837     -0.71559638372267
  H   0.13799797670452      0.18934738419102     -1.85999064887928
  H   0.12470453877452     -1.53603305091998     -1.34317250161389
  C   -0.64602724983068     -1.09151989491178      1.19518951139204
  N   -0.57593981462840     -1.82478921575734      2.11138040169816
  C   -0.55282712944743      1.28934542999328      0.59749601783456
  H   -0.61070388794606      1.98938489950828     -0.23740504224556
  H   -1.33564870151603      1.52508164071294      1.31869504363465
  H   0.41852700856740      1.39913499029884      1.08403995686450
  N   1.66096741670272     -0.36280581786452     -0.53511843184816
  O   2.15022821598269     -1.33899977993202      0.02909842951490
  O   2.20543018458523      0.72669547864017     -0.70852588903682
