14
Coordinates from ORCA-job run
  C   -0.59280914074943     -0.18502165383540      0.23468339727918
  C   0.76772792972800     -0.76278457960009     -0.17842419908288
  Br  -1.90685965888007     -0.57850368763401     -1.17013434927686
  H   1.50427066767522     -0.52963610221578      0.59376937776694
  H   0.69806591794672     -1.83635281961984     -0.34209790130530
  C   -1.00049286924779     -0.92171845748989      1.43001498862821
  N   -1.28554124073947     -1.49658843030723      2.41511817414685
  C   -0.59687966376962      1.31441826531465      0.51829595568790
  H   -1.58070548944291      1.61264452035255      0.88115543656956
  H   -0.35957901139411      1.87576157252745     -0.38292205700322
  H   0.15095850490010      1.54227301244891      1.28257135751874
  N   1.27260767411161     -0.16298275979764     -1.44711940013066
  O   1.65422463441573      1.00485202876776     -1.38979721937972
  O   1.27401174544603     -0.87736090891143     -2.44511356141872
