14
Coordinates from ORCA-job run
  C   -0.59967200534264     -0.14114955164229      0.24765007687028
  C   0.69096675172658     -0.81978162323302     -0.23087880759567
  Br  -1.98561125662038     -0.36586784163225     -1.12577956012664
  H   0.52107590963813     -1.87588400866060     -0.43072499267021
  H   1.46746455732114     -0.68272554979562      0.52505515303716
  C   -1.03512766059706     -0.88426746872711      1.42894963800031
  N   -1.34002938056457     -1.47066377883276      2.40120682543373
  C   -0.46284739091436      1.34108003140545      0.58300719270622
  H   -0.20196936090290      1.91282595367852     -0.30513988813261
  H   -1.40586243320496      1.71063281861994      0.98648848954290
  H   0.32324842923145      1.47377370300939      1.33111965285393
  N   1.21039834168261     -0.21770280450057     -1.49212579321366
  O   1.69578033894579      0.90906183849692     -1.40482339279978
  O   1.12118515960118     -0.89033171818600     -2.51500459390595
