14
Coordinates from ORCA-job run
  C   -0.72210947799299     -0.13630367978337      0.10816057740483
  C   0.23875012440212     -0.52665328625244     -1.01986251392674
  Br  -2.52146665305510     -0.34281995516057     -0.66048121916194
  H   0.10130427229344     -1.56763171573150     -1.30768004092572
  H   0.10397505840106      0.14460969379067     -1.86656461454975
  C   -0.62110141657002     -1.06350244212379      1.23184174043306
  N   -0.53377615197060     -1.77922655746818      2.16026934975196
  C   -0.54351788070222      1.30333394734885      0.57667428531885
  H   -0.61949120283871      1.98341160984609     -0.27314873999204
  H   -1.31263211917314      1.55491567802516      1.30714530146876
  H   0.43714100027080      1.42631461510789      1.04091810200124
  N   1.65121050650436     -0.37454589398993     -0.55663599525869
  O   2.18899478002010      0.71266005973060     -0.76163469277307
  O   2.15271916041092     -1.33756207333949      0.01899846020925
