14
Coordinates from ORCA-job run
  C   -0.72799580965865     -0.10596775501580      0.10442634626406
  C   0.21969781994679     -0.52582787337375     -1.02432643815346
  Br  -2.53166269958918     -0.22483957773516     -0.67323506221931
  H   0.03964187097070     -1.55728604155866     -1.32273857378330
  H   0.11659647130598      0.15861317553797     -1.86486464677166
  C   -0.67220115112025     -1.04946222562705      1.21760682639863
  N   -0.61817547491219     -1.78007382950103      2.13697871901219
  C   -0.48852534307317      1.31939441878305      0.58903219611382
  H   -0.52867456050946      2.01065873213772     -0.25412183234243
  H   0.49370687160154      1.39371883734343      1.06023993664306
  H   -1.25016111751620      1.59738555357426      1.31770874130179
  N   1.63528504075610     -0.43766229374676     -0.55438059438026
  O   2.21972484472352      0.62745168321475     -0.74804040422951
  O   2.09274323707446     -1.42510280403299      0.01671478614638
