14
Coordinates from ORCA-job run
  C   -0.41681875116730     -0.01133594557546      0.34365112354437
  C   0.61271978950865     -0.06595018603991     -0.78049602374627
  Br  -1.71639412400585     -1.45620806236326      0.07016346799627
  H   1.40759619223596      0.65951690434129     -0.58523367045611
  H   0.13385722843304      0.13468845320033     -1.73731855169887
  C   0.17600400270017     -0.17708764793773      1.66814598023464
  N   0.60827725126593     -0.20696126306605      2.76076953850725
  C   -1.15387476635055      1.32710626143294      0.28226325668104
  H   -0.44083671669221      2.14367755849861      0.42708844100114
  H   -1.90718147104268      1.37738175301780      1.06828833765544
  H   -1.64502926880413      1.43992046674913     -0.68558718808751
  N   1.27666167746477     -1.39710901217243     -0.90996843664324
  O   1.28205400985830     -1.90558276397054     -2.02710573184940
  O   1.78096494659590     -1.86305651611472      0.10633945686125
