14
Coordinates from ORCA-job run
  C   -0.47636705501623     -0.01525319125319      0.25482677047181
  C   0.74436863841457      0.03974755037654     -0.65782828621748
  Br  -1.94353817052369     -0.88348768044334     -0.71714209443132
  H   0.53915300939920      0.67003325692834     -1.52132372703058
  H   1.60403077686588      0.41895247180882     -0.09789616486504
  C   -0.23599263392111     -0.76721386664812      1.48368827027789
  N   -0.07053863637265     -1.27669507713682      2.52995097609235
  C   -0.90118208082273      1.41072240527917      0.60849133962206
  H   -1.13343063136159      1.96841138463494     -0.30025318065629
  H   -1.78458780075838      1.39158334393769      1.24651902561144
  H   -0.09072066159658      1.91054499658308      1.14661176421450
  N   1.14361359478745     -1.29557766225082     -1.19364930985314
  O   1.30254385447748     -2.19402712725614     -0.37400290923252
  O   1.30164779642838     -1.37874080456016     -2.40799247400369
