14
Coordinates from ORCA-job run
  C   -0.42965697254841     -0.01483480860627      0.32742181072953
  C   0.64081216077835     -0.05415486082354     -0.75819149391479
  Br  -1.73697937359248     -1.43342397912389     -0.03379943168476
  H   1.43686887144986      0.65518762687552     -0.51428606344696
  H   0.20152984777096      0.17826483958196     -1.72669143144622
  C   0.11006710927473     -0.22347383389538      1.66844138912003
  N   0.49992936859400     -0.28786008196936      2.77545775701342
  C   -1.14666057035851      1.33492598966541      0.27438606661626
  H   -0.42969775002265      2.13743727013987      0.46985681749613
  H   -1.59773909385996      1.48102646209965     -0.70846234884856
  H   -1.92972935736842      1.37392470575175      1.03143918111891
  N   1.29308061866775     -1.39014905649986     -0.89873609410308
  O   1.74468631296177     -1.89417176280771      0.12412378224074
  O   1.34348882825301     -1.86369851038814     -2.02995994089066
