14
Coordinates from ORCA-job run
  C   -0.72348386940797     -0.13151080423855      0.10866350486252
  C   0.23844587542095     -0.52714801696979     -1.01679760287535
  Br  -2.52234697539366     -0.33675924043340     -0.66278712327782
  H   0.09653577536524     -1.56751448471289     -1.30440248288385
  H   0.10828771199636      0.14466132218754     -1.86386873439786
  C   -0.62518505595322     -1.05801030646558      1.23303595990362
  N   -0.52368600732044     -1.78830389341587      2.14866778358071
  C   -0.54472217857380      1.30914981912033      0.57377720105604
  H   -1.31498849801202      1.56307927630204      1.30220592933469
  H   0.43524310590315      1.43264267588282      1.03912132795934
  H   -0.61869839155373      1.98694029088648     -0.27794605743349
  N   1.65096768769582     -0.38184759077641     -0.55133653730216
  O   2.18851923272212      0.70848303040119     -0.74053823442495
  O   2.15311158711120     -1.35286207776791      0.01020506589856
