18

C	0.0	0.0	0.0
C	-0.561177	-0.191704	-1.424755
Cl	1.793579	0.0	0.0
H	-1.644474	-0.323888	-1.286575
C	-0.391153	1.336251	0.461124
N	-0.618871	2.424238	0.841281
C	-0.499195	-1.050282	0.984779
H	-0.171561	-0.78287	1.990122
H	-1.593382	-1.053037	0.933526
H	-0.104582	-2.02907	0.72381
N	-0.04304	-1.485122	-1.979566
O	-0.597961	-2.518841	-1.603737
O	0.895033	-1.445506	-2.77655
C	-0.260695	0.942507	-2.378948
H	0.810543	1.122918	-2.464831
H	-0.653131	0.701593	-3.368945
H	-0.763833	1.841887	-2.023722
Cl	-3.660409	0.0	0.0
