18

C	0.0	0.0	0.0
C	-0.429899	-0.112479	-1.47503
Cl	1.796341	0.0	0.0
H	-0.099914	-1.091381	-1.829331
C	-0.398126	1.265582	0.624232
N	-0.668822	2.237611	1.226474
C	-0.557292	-1.16522	0.805642
H	-1.649082	-1.092322	0.838036
H	-0.259672	-2.109535	0.344514
H	-0.169045	-1.126805	1.824183
N	0.342477	0.853503	-2.325638
O	0.935639	0.388404	-3.29845
O	0.292075	2.041564	-2.022363
C	-1.901083	0.129612	-1.726652
H	-2.547564	-0.586455	-1.220166
H	-2.09474	0.063645	-2.800698
H	-2.210318	1.109933	-1.365809
Cl	-4.687113	0.0	0.0
