18

C	0.0	0.0	0.0
C	-0.573593	-0.293131	-1.402732
Cl	1.797413	0.0	0.0
H	-1.633692	-0.526972	-1.226078
C	-0.381455	1.364442	0.384539
N	-0.576985	2.475101	0.714136
C	-0.472001	-0.979213	1.070646
H	-1.563908	-0.953366	1.084118
H	-0.074023	-0.669919	2.038729
H	-0.121328	-1.982652	0.837054
N	0.065294	-1.541413	-1.93492
O	0.896603	-1.433686	-2.836862
O	-0.281758	-2.609528	-1.431059
C	-0.429685	0.843254	-2.389041
H	0.603257	1.184663	-2.468612
H	-1.071854	1.66144	-2.061526
H	-0.765383	0.519621	-3.375097
Cl	-3.630107	0.0	0.0
