18

C	0.0	0.0	0.0
C	-0.432013	-0.175712	-1.463759
Cl	1.796217	0.0	0.0
H	-0.039979	-1.138123	-1.799395
C	-0.422798	1.273581	0.587208
N	-0.731388	2.242529	1.175353
C	-0.543893	-1.142925	0.846936
H	-0.230634	-2.099046	0.421307
H	-0.156152	-1.062693	1.863728
H	-1.635907	-1.081928	0.875505
N	0.265015	0.818889	-2.342838
O	0.193466	2.003807	-2.03121
O	0.818641	0.376962	-3.349161
C	-1.92311	-0.044553	-1.702103
H	-2.489394	-0.869477	-1.276336
H	-2.102877	-0.010106	-2.779655
H	-2.331504	0.857487	-1.248826
Cl	-4.705529	0.0	0.0
