18

C	0.0	0.0	0.0
C	-0.440653	-0.1504	-1.465238
Cl	1.796301	0.0	0.0
H	-0.106863	-1.134535	-1.800887
C	-0.405812	1.275927	0.599149
N	-0.702379	2.256901	1.174477
C	-0.546762	-1.149434	0.836375
H	-0.167545	-1.070943	1.856032
H	-1.638995	-1.090036	0.857735
H	-0.226453	-2.102573	0.410412
N	0.313943	0.804213	-2.344849
O	0.887389	0.324875	-3.322359
O	0.269343	1.996227	-2.057366
C	-1.919043	0.067986	-1.70576
H	-2.244594	1.044827	-1.348447
H	-2.5486	-0.659043	-1.193617
H	-2.115792	-0.00543	-2.778791
Cl	-4.717959	0.0	0.0
