18

C	0.0	0.0	0.0
C	-0.4556	0.208189	-1.456227
Cl	1.786018	0.0	0.0
H	-0.170187	-0.684659	-2.015951
C	-0.402931	1.108923	0.87335
N	-0.698062	1.954204	1.633477
C	-0.563047	-1.306622	0.541796
H	-1.654734	-1.242202	0.567613
H	-0.251656	-2.136027	-0.096956
H	-0.194053	-1.476435	1.554009
N	0.339727	1.30507	-2.105163
O	0.932638	1.024041	-3.146411
O	0.309598	2.41316	-1.578609
C	-1.922172	0.547481	-1.612375
H	-2.591908	-0.234282	-1.254866
H	-2.180544	1.442515	-1.047818
H	-2.126184	0.72505	-2.671688
Cl	-4.729566	0.0	0.0
