18

C	0.0	0.0	0.0
C	-0.567197	0.104349	-1.430992
Cl	1.796726	0.0	0.0
H	-1.634682	-0.138555	-1.322847
C	-0.384971	1.207521	0.742313
N	-0.597168	2.180848	1.365554
C	-0.474434	-1.236227	0.756312
H	-0.095012	-1.196649	1.779457
H	-1.5676	-1.226237	0.75904
H	-0.106884	-2.136182	0.266518
N	0.036588	-0.977092	-2.276523
O	0.89037	-0.662345	-3.104527
O	-0.367969	-2.125387	-2.094668
C	-0.382686	1.454193	-2.084005
H	-0.742317	1.414907	-3.113927
H	0.664253	1.760769	-2.092209
H	-0.983357	2.184295	-1.5401
Cl	-3.630223	0.0	0.0
