18

C	-0.509855	-0.0319	-1.450097
C	0.0	0.0	0.0
Cl	0.192211	1.486357	-2.236082
H	1.090303	0.0	0.0
N	-0.037863	-1.21729	-2.071656
H	-0.216536	-1.188634	-3.067676
H	0.960158	-1.327066	-1.912295
C	-2.014436	0.101256	-1.574363
H	-2.501294	-0.741134	-1.081643
H	-2.295686	0.111126	-2.630428
H	-2.344036	1.037159	-1.124571
N	-0.420991	-1.330448	0.632505
O	0.339628	-2.284709	0.545325
O	-1.523187	-1.359668	1.194786
N	-0.502313	1.105517	0.74425
H	0.16625	1.346697	1.464376
H	-1.390813	0.867857	1.166874
Cl	3.360059	0.0	0.0
