18

C	-0.517594	0.184006	-1.432596
C	0.0	0.0	0.0
Cl	-0.091134	-1.358127	-2.364605
H	1.090439	0.0	0.0
N	-1.91938	0.435607	-1.462714
H	-2.220048	0.590725	-2.41663
H	-2.429773	-0.34584	-1.06959
C	0.263647	1.307419	-2.08505
H	0.03768	2.232753	-1.554709
H	-0.023169	1.399672	-3.136442
H	1.332689	1.101536	-2.013085
N	-0.496115	-1.333085	0.54602
O	-1.719161	-1.420936	0.737431
O	0.310612	-2.218817	0.792246
N	-0.440693	1.091444	0.805553
H	0.082116	1.11647	1.670637
H	-1.436671	1.05335	0.970838
Cl	3.396885	0.0	0.0
