18

C	-0.410808	-0.147776	-1.480404
C	0.0	0.0	0.0
Cl	-0.311428	1.633092	-2.184357
H	1.099021	0.0	0.0
N	0.502077	-0.977069	-2.136637
H	1.465664	-0.780597	-1.871364
H	0.385729	-0.970109	-3.140155
C	-1.85851	-0.534461	-1.692716
H	-2.117062	-0.47305	-2.752505
H	-2.000443	-1.563029	-1.354877
H	-2.501961	0.142898	-1.129333
N	-0.393331	-1.242871	0.774484
O	-0.24482	-2.337058	0.243182
O	-0.797426	-1.086447	1.928867
N	-0.628546	1.125773	0.653323
H	-0.09624	1.947538	0.401665
H	-0.527211	0.986508	1.649379
Cl	3.323177	0.0	0.0
