18

C	-0.470062	-0.015605	-1.464306
C	0.0	0.0	0.0
Cl	-0.120411	-1.701168	-2.13484
H	1.094302	0.0	0.0
N	-1.850093	0.325569	-1.584278
H	-2.120905	0.343455	-2.559311
H	-2.416881	-0.346908	-1.080772
C	0.400245	0.938564	-2.260488
H	0.226583	1.957061	-1.906842
H	0.142681	0.884086	-3.32169
H	1.452572	0.685894	-2.121538
N	-0.530657	-1.209801	0.728821
O	-1.756157	-1.371917	0.701523
O	0.253826	-1.92645	1.334397
N	-0.459766	1.157716	0.713859
H	-1.233437	1.596543	0.234656
H	0.309135	1.798988	0.846527
Cl	3.390018	0.0	0.0
