16

C	0.0	0.0	0.0
C	-0.617224	-0.124406	-1.371457
Cl	1.760922	0.0	0.0
H	-0.488508	0.806721	-1.922095
H	-1.696756	-0.318356	-1.247865
C	-0.541403	1.234987	0.694236
H	-1.634568	1.156361	0.728845
H	-0.128706	1.288917	1.70114
H	-0.251169	2.12567	0.134435
N	-0.415023	-1.19917	0.882703
O	-1.244861	-1.975321	0.434516
O	0.096395	-1.24013	1.99735
N	-0.04583	-1.18871	-2.243562
O	0.48131	-2.168642	-1.725309
O	-0.180454	-1.011199	-3.453287
Br	-3.965908	0.0	0.0
