15

C	-0.484201	0.078493	-1.458879
C	0.0	0.0	0.0
Cl	0.00213	-1.446002	-2.285549
H	1.099894	0.0	0.0
C	-1.945623	0.170293	-1.524056
N	-3.118903	0.232518	-1.561526
C	0.122398	1.171202	-2.230699
N	0.575451	1.975279	-2.957887
N	-0.358344	-1.218157	0.653067
H	-0.961897	-1.013052	1.438605
H	0.505357	-1.610789	1.023618
N	-0.411908	1.177421	0.711712
O	-0.362997	1.141189	1.955525
O	-0.669644	2.206556	0.052391
H	2.387382	0.0	0.0
