15

C	-0.519678	-0.042121	-1.439058
C	0.0	0.0	0.0
Cl	0.370997	1.075737	-2.544586
H	1.099444	0.0	0.0
C	-0.310753	-1.394788	-1.974125
N	-0.179378	-2.445794	-2.483135
C	-1.954846	0.254106	-1.518578
N	-3.112412	0.447219	-1.594315
N	-0.307384	-1.205576	0.703172
H	0.537645	-1.48571	1.197957
H	-1.039745	-1.051893	1.383692
N	-0.424336	1.201348	0.679654
O	-0.715836	2.203645	0.00262
O	-0.345733	1.195652	1.921367
H	2.38879	0.0	0.0
