15

C	-0.421328	0.010955	-1.461807
C	0.0	0.0	0.0
Cl	-2.24264	-0.019972	-1.641401
H	1.097061	0.0	0.0
C	0.089298	1.122854	-2.269072
N	0.509336	1.930202	-3.013768
C	0.058368	-1.237583	-2.069676
N	0.425019	-2.230714	-2.579411
N	-0.342179	-1.169027	0.716193
H	-1.161159	-1.655501	0.382647
H	0.467385	-1.777141	0.779334
N	-0.427996	1.230514	0.674974
O	-0.388882	1.252327	1.905392
O	-0.676433	2.217192	-0.037554
H	2.446773	0.0	0.0
