15

C	-0.469639	0.006203	-1.444826
C	0.0	0.0	0.0
Cl	-2.29013	0.115697	-1.547474
H	1.092505	0.0	0.0
C	0.087711	1.071787	-2.285555
N	0.508021	1.84005	-3.069777
C	-0.096231	-1.27668	-2.052026
N	0.211039	-2.285128	-2.570571
N	-0.362322	-1.202094	0.667032
H	0.445572	-1.500446	1.207912
H	-1.134454	-1.045768	1.301532
N	-0.394701	1.218783	0.681771
O	-0.557813	1.160781	1.911439
O	-0.421561	2.268438	0.021056
H	2.420942	0.0	0.0
