15

C	-0.480642	0.310639	-1.432027
C	0.0	0.0	0.0
Cl	-0.021135	-1.071521	-2.487264
H	1.090035	0.0	0.0
C	-1.94148	0.431957	-1.471063
N	-3.116067	0.478973	-1.498937
C	0.139029	1.503536	-2.027048
N	0.584522	2.39856	-2.645249
N	-0.382333	-1.294928	0.452482
H	-1.074859	-1.220922	1.186229
H	0.449819	-1.729051	0.84626
N	-0.41229	1.066555	0.883039
O	-0.630595	2.189905	0.387382
O	-0.400075	0.833889	2.104138
H	2.416824	0.0	0.0
