15

C	-0.474179	-0.014959	-1.443619
C	0.0	0.0	0.0
Cl	-2.293557	0.098571	-1.54389
H	1.092488	0.0	0.0
C	0.085128	1.037129	-2.301655
N	0.511602	1.803865	-3.084658
C	-0.105509	-1.308139	-2.031646
N	0.206871	-2.319339	-2.541085
N	-0.360083	-1.195654	0.681421
H	0.451071	-1.487899	1.219953
H	-1.126335	-1.030974	1.319752
N	-0.392394	1.225408	0.666872
O	-0.417477	2.270076	-0.003057
O	-0.553495	1.179646	1.89883
H	2.419849	0.0	0.0
