15

C	-0.522492	-0.005472	-1.438979
C	0.0	0.0	0.0
Cl	0.362091	1.143284	-2.513727
H	1.099537	0.0	0.0
C	-0.309781	-1.343255	-2.009999
N	-0.175473	-2.379433	-2.548929
C	-1.958959	0.286987	-1.509109
N	-3.117524	0.474398	-1.582639
N	-0.306598	-1.222465	0.674975
H	-1.034608	-1.08502	1.363856
H	0.541339	-1.517087	1.153877
N	-0.420625	1.183853	0.712623
O	-0.328598	1.147632	1.953027
O	-0.722071	2.201284	0.063327
H	2.387462	0.0	0.0
