15

C	-0.399024	0.002859	-1.473929
C	0.0	0.0	0.0
Cl	-2.216071	0.033845	-1.673338
H	1.092364	0.0	0.0
C	0.164962	1.081376	-2.291557
N	0.660619	1.84504	-3.035669
C	0.044262	-1.271926	-2.055955
N	0.350582	-2.295053	-2.546518
N	-0.363647	-1.160181	0.717645
H	0.430604	-1.787795	0.774763
H	-1.196341	-1.626188	0.38759
N	-0.437743	1.240387	0.650551
O	-0.574005	2.238688	-0.077294
O	-0.518933	1.256137	1.880728
H	2.458174	0.0	0.0
