15

C	0.0	0.0	0.0
C	-0.455984	0.051793	-1.472344
Br	1.919517	0.0	0.0
H	0.155937	0.790794	-1.990461
H	-0.379168	-0.854371	0.554926
N	-0.435289	1.247713	0.716856
O	-0.668968	1.134266	1.913178
O	-0.463509	2.285562	0.061276
N	-1.81686	0.262958	-1.765292
H	-2.505025	-0.172796	-1.137736
H	-2.024403	1.251304	-1.762207
N	-0.051979	-1.281985	-2.074533
O	-0.357903	-2.293365	-1.444872
O	0.502449	-1.260928	-3.168544
Cl	-4.320821	0.0	0.0
