18

C	-0.571199	-0.008043	-1.521337
C	0.03949	-0.015646	-0.142315
F	-0.178237	-1.096045	-2.252986
H	1.132114	-0.070689	-0.22117
C	-2.043504	0.03027	-1.519998
N	-3.216765	-0.013562	-1.471864
N	-0.083655	1.214587	-2.304245
O	-0.79787	2.213077	-2.278547
O	1.005293	1.107178	-2.848182
C	-0.388967	-1.262899	0.620729
H	-1.417268	-1.185429	0.990508
H	0.320657	-1.333186	1.452603
H	-0.290829	-2.166091	0.013493
C	-0.270329	1.237557	0.661632
H	0.00825	2.156008	0.139773
H	-1.327714	1.296568	0.941985
H	0.365391	1.15944	1.54906
H	2.413553	-0.179926	1.390395
