18

C	-0.444253	-0.03277	-1.511118
C	0.021227	-0.002367	-0.084442
F	0.053911	1.019401	-2.226481
H	1.118694	0.016664	-0.074262
C	-0.117812	-1.274338	-2.231454
N	0.178219	-2.235739	-2.837779
N	-1.973861	0.112315	-1.576001
O	-2.428198	1.238558	-1.740484
O	-2.622804	-0.910929	-1.366309
C	-0.357425	-1.241204	0.71022
H	0.259842	-1.216598	1.613039
H	-0.109144	-2.163104	0.177585
H	-1.418176	-1.26571	0.97826
C	-0.409492	1.276959	0.618411
H	-1.453221	1.245011	0.95141
H	-0.270706	2.153312	-0.017798
H	0.252452	1.383673	1.482593
H	2.562307	0.046545	0.832729
