18

C	-0.445828	-0.027117	-1.509299
C	0.022578	-0.005504	-0.083487
F	0.039563	1.037295	-2.215156
H	1.119765	0.026501	-0.07655
C	-0.108752	-1.258505	-2.24195
N	0.189269	-2.220307	-2.846656
N	-1.977406	0.102798	-1.569583
O	-2.615165	-0.92845	-1.364909
O	-2.443842	1.225297	-1.725579
C	-0.338548	-1.255917	0.70071
H	0.280112	-1.231728	1.602563
H	-1.398343	-1.296139	0.970741
H	-0.079828	-2.169685	0.159209
C	-0.421754	1.262138	0.632165
H	0.244158	1.372075	1.492931
H	-0.301221	2.145514	0.002027
H	-1.462533	1.211465	0.972159
H	2.566642	0.061317	0.824989
