18

C	-0.446251	-0.032837	-1.509859
C	0.021943	-0.006649	-0.083986
F	0.037166	1.03045	-2.218738
H	1.119146	0.025522	-0.076948
C	-0.106409	-1.26567	-2.238935
N	0.19635	-2.227349	-2.841474
N	-1.977899	0.094008	-1.570592
O	-2.446357	1.215428	-1.728043
O	-2.613794	-0.938029	-1.364261
C	-0.339053	-1.254942	0.703537
H	-1.398423	-1.293506	0.975754
H	-0.082836	-2.170425	0.163756
H	0.280771	-1.229822	1.604555
C	-0.422721	1.262889	0.627604
H	-1.464336	1.214199	0.965519
H	-0.299911	2.144676	-0.004315
H	0.240643	1.374948	1.490007
H	2.566602	0.063188	0.824068
