18

C	-0.42414	0.25439	-1.485718
C	0.031071	-0.011162	-0.082188
F	-0.017476	1.482658	-1.925153
H	1.134525	0.096219	-0.040662
C	0.010722	-0.753104	-2.467229
N	0.390335	-1.516014	-3.275608
N	-1.96095	0.2825	-1.551822
O	-2.519237	-0.812399	-1.602066
O	-2.511714	1.373227	-1.45454
C	-0.24071	-1.428335	0.392907
H	0.363225	-1.565643	1.294715
H	-1.296922	-1.606068	0.618781
H	0.092437	-2.175776	-0.332095
C	-0.508095	1.028933	0.888568
H	-1.544947	0.832969	1.185652
H	0.141693	0.990476	1.76773
H	-0.446799	2.037142	0.474212
H	2.561752	0.066217	0.810957
