18

C	-0.42527	-0.023681	-1.518093
C	0.028561	-0.006944	-0.087295
F	0.055945	1.050418	-2.211812
H	1.125725	0.036391	-0.068938
C	-0.068139	-1.246377	-2.255484
N	0.246029	-2.20116	-2.863145
N	-1.957517	0.090894	-1.592274
O	-2.433736	1.209742	-1.744585
O	-2.586649	-0.948208	-1.401338
C	-0.327415	-1.266596	0.684533
H	0.282659	-1.242843	1.592203
H	-0.054893	-2.173881	0.138935
H	-1.389232	-1.319121	0.944237
C	-0.436356	1.250743	0.63268
H	-0.319293	2.139923	0.01009
H	0.219505	1.36166	1.50096
H	-1.479881	1.186173	0.96172
H	2.562349	0.079848	0.844909
