13
Coordinates from ORCA-job run
  C   -0.53677778014236     -0.43355518737749     -0.30367818962979
  C   0.82690893756089      0.28400775219145     -0.33471549964020
  F   -0.66032442606843     -1.16025171971494     -1.43601072931037
  H   0.83307183963159      0.86800802160678     -1.26415756396253
  C   -0.72290808633187     -1.26777109538238      0.87827755452653
  N   -0.82415039670844     -1.96894018593079      1.81635826763544
  N   -1.61164461153968      0.66730387426442     -0.35300636960516
  O   -1.59790874042976      1.32436662594458     -1.38408809828399
  O   -2.34299048733828      0.78957554162420      0.61840267625593
  C   1.90704844843911     -0.70321958462252     -0.36941565318391
  N   2.76676909738355     -1.50204306728836     -0.41035290777799
  C   0.94709816029278      1.18651470027356      0.81180560101734
  N   1.01680804525089      1.91600432441148      1.72958091195872
