13
Coordinates from ORCA-job run
  C   -0.52053525116679     -0.45610515378368     -0.30232759738783
  C   0.81928651198704      0.30510142668329     -0.33231971642056
  F   -0.60890906834306     -1.20297358791915     -1.42497272746277
  H   0.81673012433693      0.87080945610380     -1.27306489220643
  C   -0.69035418207886     -1.27954507112068      0.88956181692924
  N   -0.77706756291110     -1.97173785712834      1.83574940985964
  N   -1.63006600917392      0.60759537458067     -0.37756064856790
  O   -2.37256181292308      0.72119651709726      0.58646290160073
  O   -1.62973201374905      1.24851996787333     -1.41889489111143
  C   1.93158817680877     -0.64643529028465     -0.33472845331704
  N   2.81854482179722     -1.41581972884916     -0.34366216309066
  C   0.89923550727868      1.23362412731875      0.79688989139054
  N   0.94384075813723      1.98576981942855      1.69786706978448
