13
Coordinates from ORCA-job run
  C   -0.46991763615835     -0.45662547464869      0.20635438722243
  C   0.74341781410704      0.47365947212902     -0.00347402843943
  F   -0.09411647917571     -1.74180478099778      0.13565406210032
  H   0.37730729233956      1.50647226206615      0.03018736609357
  C   -1.15825888265237     -0.17092054970174      1.46404204366994
  N   -1.69417512621061      0.06804513885049      2.48256391423672
  N   -1.45125254324510     -0.16636708903539     -0.94827907472030
  O   -1.72832553033573     -1.09546561949684     -1.68328035953176
  O   -1.83028002823315      0.99555713930437     -0.99449001860857
  C   1.33394641058404      0.21737642027499     -1.32044184222836
  N   1.77913218402669      0.01970882177898     -2.38896802518330
  C   1.71468033443245      0.26032400383583      1.07157875685027
  N   2.47784219052124      0.09004025564062      1.94755281853848
