13
Coordinates from ORCA-job run
  C   -0.51387843407822     -0.43920793868259     -0.33778785828077
  C   0.81889705189699      0.33405201743722     -0.30326570793548
  F   -0.58798403153865     -1.10460544426072     -1.51140526084561
  H   0.81710448600698      0.96475258375029     -1.20172107658832
  C   -0.68480489851092     -1.34637770338811      0.79143679584203
  N   -0.77101424579243     -2.10295057791801      1.68704614166390
  N   -1.63248731932394      0.61848187942764     -0.34524125960976
  O   -1.62645916820455      1.33537319597231     -1.33561163927222
  O   -2.38486853213985      0.65475826481575      0.61707418415742
  C   1.94075585312145     -0.60399329137418     -0.36530526123204
  N   2.83722857176238     -1.36012100059062     -0.42541846396332
  C   0.88076195292696      1.18147372591082      0.88896909883969
  N   0.90674871387379      1.86836428890019      1.84123030722449
