13
Coordinates from ORCA-job run
  C   -0.50414682069869     -0.63132381179064      0.10121146716003
  C   0.95998949671989     -0.13421893478724      0.07205913470472
  F   -0.54425572536118     -1.84775346167883     -0.47321254097930
  H   1.54427577172181     -0.92405003734683      0.56282655440985
  C   -1.04013823689417     -0.67229244974188      1.45930764886035
  N   -1.44253516605387     -0.74566434776612      2.56149609822039
  N   -1.36697544033568      0.32751449279858     -0.73628721482770
  O   -1.74309662648490     -0.08317630445190     -1.81956404943330
  O   -1.54885157107520      1.41969614401508     -0.21751289395644
  C   1.14800438717004      1.11496865395875      0.81175747354048
  N   1.34768594420141      2.09696909438041      1.42409630459951
  C   1.41441056026155     -0.01124285390172     -1.31674180846165
  N   1.77563342682900      0.09057381631234     -2.42943617383696
