13
Coordinates from ORCA-job run
  C   -0.50548234670857     -0.44000918751914     -0.29596213896656
  C   0.82787352854816      0.32479332209766     -0.33310194134969
  F   -0.59930420962955     -1.20109103105143     -1.41404323589778
  H   0.82396438906533      0.90636575068933     -1.26219794157656
  C   -0.65821636681027     -1.25436687864847      0.90545255268844
  N   -0.72873463410195     -1.91550370977334      1.87480929348161
  N   -1.66072683468865      0.57370977674108     -0.38295163702201
  O   -1.44233234191125      1.55713758580246     -1.07795862876809
  O   -2.70084241944978      0.26298612661672      0.17921146952336
  C   1.93938005375940     -0.62832956487720     -0.34969716739454
  N   2.82846041708385     -1.39501477512015     -0.37547523807825
  C   0.91357263424486      1.23894176313419      0.80726562085620
  N   0.96238813059841      1.97038082190829      1.72464899250389
