13
Coordinates from ORCA-job run
  C   -0.47190713018825     -0.44077529462408      0.23396839373048
  C   0.73892408118996      0.47817883946174     -0.03107175140350
  F   -0.08620836373683     -1.72425007711413      0.27904279908033
  H   0.36458615750128      1.50618831718422     -0.10102360575261
  C   -1.18739436534276     -0.05694994688128      1.44957372147481
  N   -1.74590731752775      0.25841592918079      2.43464634433400
  N   -1.43244175158729     -0.25689422559254     -0.95926113025002
  O   -1.81922986467124      0.89348553713902     -1.10976246935854
  O   -1.68819547945258     -1.24631714767014     -1.61942892645494
  C   1.36413181898800      0.10637673312148     -1.30387052258312
  N   1.84152172522315     -0.18926791906351     -2.33521901756147
  C   1.68693732408598      0.37457623780801      1.08038811938439
  N   2.43518316551834      0.29723301705043      1.98201804536020
