13
Coordinates from ORCA-job run
  C   -0.51223735675899     -0.43672484193692      0.13194529936815
  C   0.77604599138770      0.41075314043304      0.07656747121563
  F   -0.23224219753001     -1.73077938152594     -0.08134268031740
  H   0.48791599630374      1.45936603055687      0.21536459964621
  C   -1.22987067303768     -0.24853077772082      1.39173168424162
  N   -1.78926345034886     -0.09566334625010      2.41425923101046
  N   -1.41926983521798      0.06576268629188     -1.00939021344848
  O   -1.73221555321129     -0.74297068902245     -1.86284637141372
  O   -1.71025605832276      1.25061542640096     -0.92426917295985
  C   1.40713601853265      0.25477644991668     -1.23733498592860
  N   1.88868997197811      0.13424587698790     -2.30149373410597
  C   1.67852971965968      0.00185385040366      1.15508453222161
  N   2.38903742656566     -0.32270442453478      2.03172434047032
