13
Coordinates from ORCA-job run
  C   -0.52384714856714     -0.44940803373388     -0.30205638191022
  C   0.81055309378760      0.32062531142556     -0.34004274545628
  F   -0.63146247497068     -1.16927225147078     -1.44073438126724
  H   0.78193730738687      0.91736561626088     -1.26090818352169
  C   -0.66409614770678     -1.30241827515618      0.87275360346559
  N   -0.72556848789512     -2.01554286227986      1.80526052917221
  N   -1.64192835416074      0.60797315885480     -0.32978244660939
  O   -1.66311551597407      1.27693283737239     -1.35327107148354
  O   -2.37293149338219      0.68687754701040      0.64654070167840
  C   1.92726431471562     -0.62357493191433     -0.40158466659873
  N   2.81717243814110     -1.38727513638378     -0.46167495183956
  C   0.91197011691286      1.21054005672144      0.81818993542424
  N   0.97305235171268      1.92617696329335      1.74731005894620
