13
Coordinates from ORCA-job run
  C   -0.50703343679071     -0.62772885996338      0.09587090359393
  C   0.95879670043112     -0.13524774194753      0.08859092031772
  F   -0.54166912327820     -1.84496107277238     -0.47729789832284
  H   1.53186184807527     -0.92507819125943      0.59258712670649
  C   -1.06713578797579     -0.66467332954384      1.44408830970186
  N   -1.49538495067874     -0.73455164095126      2.53677523089641
  N   -1.35351018815062      0.33275760778344     -0.75807787272152
  O   -1.71161164071245     -0.07836648878005     -1.84714869002635
  O   -1.54002703735794      1.42640049904658     -0.24415223599404
  C   1.13967703945154      1.11631896245557      0.82544427374691
  N   1.33129903314071      2.10004954917280      1.43763702772621
  C   1.43635075654223     -0.02427411901600     -1.29330960301874
  N   1.81738678730359      0.05935482577550     -2.40100749260605
