13
Coordinates from ORCA-job run
  C   -0.48454851871122     -0.43442113405463      0.22126689555570
  C   0.75406410514005      0.45447608723786     -0.01695980627338
  F   -0.14029189452343     -1.73037386519503      0.21763833851212
  H   0.41278721697111      1.49604088748409     -0.04218130960638
  C   -1.18153333022760     -0.07208403303859      1.45415965154834
  N   -1.72452925548568      0.22453030900940      2.45359686672951
  N   -1.44388971328804     -0.17643317564044     -0.95913769388452
  O   -1.79567156281780      0.99025909725607     -1.06428526957546
  O   -1.73323405694621     -1.13220635982653     -1.65407878613464
  C   1.35770391922161      0.11604084054177     -1.30933917132070
  N   1.81721251440571     -0.14806924547256     -2.35717301793235
  C   1.70555411446636      0.27505033787844      1.08175491968736
  N   2.45637646179512      0.13619025382013      1.97373838269440
