13
Coordinates from ORCA-job run
  C   -0.45509359830619     -0.66430040667766      0.11582352826728
  C   0.96895997074733     -0.06625903088142      0.03578533457909
  F   -0.43287157785620     -1.87720164791278     -0.46667004087578
  H   1.62461849784105     -0.81371275952272      0.50246300754758
  C   -0.93617717684990     -0.74961814684769      1.49219414853920
  N   -1.29357559257253     -0.85520374041882      2.60713518081632
  N   -1.41278907404709      0.23766028596868     -0.68224428859181
  O   -1.79641745261925     -0.19077890399108     -1.75581305966667
  O   -1.65121198336404      1.31110893569508     -0.14776545516662
  C   1.09630654100021      1.19139451193642      0.77410068506940
  N   1.24829121693275      2.18262506763918      1.38536065344063
  C   1.36272069003713      0.08779903223527     -1.36808989460886
  N   1.67723953905673      0.20648680277756     -2.49327979934976
