13
Coordinates from ORCA-job run
  C   -0.52173318452432     -0.62360911264597     -0.02116755587256
  C   0.95335356399521     -0.17069059078351      0.08169814646673
  F   -0.56814203879193     -1.72574018563578     -0.79197737914504
  H   1.50026685629515     -1.04585732756111      0.45782882726480
  C   -1.11047298935011     -0.87375406927947      1.29175684710289
  N   -1.55861319076382     -1.11393031929895      2.35171100797037
  N   -1.33004782985863      0.48643502131863     -0.71626940112209
  O   -1.50800093568966      1.48153291170239     -0.02851050653322
  O   -1.67084817748274      0.27317813809430     -1.86594132056388
  C   1.14126214701546      0.93607830141796      1.02134452868199
  N   1.33826120088175      1.79944675150586      1.79271691701503
  C   1.46355753333104      0.15931826281513     -1.25277702446899
  N   1.87115704494259      0.41759221835052     -2.32341308679601
