13
Coordinates from ORCA-job run
  C   -0.48803769842033     -0.46570711228718      0.12886179549068
  C   0.75233742686475      0.45078441337757      0.08052084939873
  F   -0.13866900116021     -1.74014190608593     -0.09771058084641
  H   0.40817363728045      1.48137863464872      0.22668759421480
  C   -1.21423424483041     -0.32853555934602      1.39001734084078
  N   -1.78183134012496     -0.21268325554029      2.41286801904119
  N   -1.42210919327697     -0.00146953799461     -1.00823603190293
  O   -1.77571632521509      1.16525694196082     -0.91232618396238
  O   -1.69313770890842     -0.81875900132924     -1.86772261757661
  C   1.39017126309662      0.33878847983216     -1.23488065218587
  N   1.87866803919624      0.25387538629451     -2.29930125877885
  C   1.67688337706437      0.08381371910961      1.15535377467654
  N   2.40750176843396     -0.20560120264012      2.02786795159033
