13
Coordinates from ORCA-job run
  C   -0.51658452594386     -0.44049600672428     -0.32762468144532
  C   0.81128986105134      0.34217327467327     -0.31879530801030
  F   -0.60720337270803     -1.10876875178960     -1.49851348478987
  H   0.78769383309543      0.97472676124659     -1.21557481728698
  C   -0.65987153839113     -1.34705013821226      0.80609699026501
  N   -0.72584225035692     -2.10421605139251      1.70296267932874
  N   -1.64322998878933      0.60788168913373     -0.31642881097430
  O   -1.66619130035883      1.31885869938131     -1.31091644057371
  O   -2.37488029204021      0.64294739623121      0.66185576587575
  C   1.93646582671357     -0.59008532304215     -0.40534020785974
  N   2.83131324247366     -1.34629949868220     -0.48333947562110
  C   0.89225758821712      1.18560266314066      0.87499857207154
  N   0.93478291703718      1.86572528603623      1.83161921902029
