13
Coordinates from ORCA-job run
  C   -0.51254222245676     -0.63138962519863      0.02638067007718
  C   0.95794139167901     -0.15328003158406      0.02962557374894
  F   -0.58565767959818     -1.75441585387505     -0.71140360376570
  H   1.54095231046315     -1.00993616565497      0.39394207191424
  C   -1.01889977851706     -0.85525792960034      1.37777561318514
  N   -1.40058795829242     -1.07550827005748      2.46756319035747
  N   -1.37861217467223      0.44714051121973     -0.64866652589990
  O   -1.52966214701869      1.45875154483944      0.02107498027193
  O   -1.78378490096428      0.19717372936899     -1.76960608422010
  C   1.18417386552483      0.97973048826325      0.92861781290432
  N   1.41808621023773      1.86341276783616      1.66589870252537
  C   1.38291459767343      0.14942280243837     -1.34066235060162
  N   1.72467848594148      0.38315603200460     -2.43954005049725
