13
Coordinates from ORCA-job run
  C   -0.49130183021152     -0.40505681455279      0.25565328814658
  C   0.76170382815089      0.44224419060371     -0.05087771525214
  F   -0.16636850764402     -1.70167996250624      0.36262747595900
  H   0.43836564232166      1.48427676772566     -0.15683538896708
  C   -1.18596628114865      0.07032892235191      1.45097198068004
  N   -1.72803513806712      0.46091223922517      2.41812130320582
  N   -1.44355877286142     -0.23369920440220     -0.94583361820007
  O   -1.74941416139136     -1.24126040730180     -1.55536332785048
  O   -1.77254413036805      0.92565701889703     -1.15423535511687
  C   1.35862548624281     -0.00676187756204     -1.31212035265624
  N   1.81312539344701     -0.36460159595139     -2.33401424077947
  C   1.70990323563561      0.33018030574517      1.05947998643987
  N   2.45646523589417      0.24046041772780      1.96142596439104
