13
Coordinates from ORCA-job run
  C   -0.56912906403650     -0.46468884946698     -0.17366382330870
  C   0.79767477225561      0.19164836652835     -0.44963813819452
  F   -0.80380206437580     -1.37770585234028     -1.14169494298043
  H   0.73187210360943      0.59219216619188     -1.46957031956028
  C   -0.66400383786689     -1.06880932164351      1.15052149920881
  N   -0.69520501232292     -1.59041966915652      2.20359791881492
  N   -1.62624725963835      0.64300386074878     -0.33018496693165
  O   -1.69498053459741      1.10337525073396     -1.46079626730144
  O   -2.26555948213750      0.96053251523868      0.66170441350861
  C   1.85576078728143     -0.81778032525911     -0.38576529652260
  N   2.69856178508719     -1.63394508846106     -0.33791150773311
  C   1.03325763198786      1.28786899520488      0.49181379297183
  N   1.20380017475385      2.17572795168092      1.24158763802857
