13
Coordinates from ORCA-job run
  C   -0.50317174286683     -0.44244805729777      0.15048226944254
  C   0.76713277013593      0.42841069043206      0.05744961001124
  F   -0.19640556223332     -1.73842033931203     -0.00545692134057
  H   0.45637601122236      1.47601435275569      0.14625826185880
  C   -1.22564825051785     -0.21288864756736      1.40042872960120
  N   -1.78815156560848     -0.02373374316686      2.41512345402749
  N   -1.41951970203496     -0.00963210944808     -1.01273512728244
  O   -1.71592338981415     -0.86222966127694     -1.82831620024956
  O   -1.73492112936959      1.17147459996421     -0.98016912645161
  C   1.40490989496924      0.22547650875786     -1.24677037817733
  N   1.89356861917352      0.06978624196310     -2.30311488498155
  C   1.67475018708314      0.09091118552717      1.15613967752970
  N   2.38800385986099     -0.17372102133105      2.05068063601208
