13
Coordinates from ORCA-job run
  C   -0.50508827751119     -0.43038355178383     -0.18121575405501
  C   0.79916316041620      0.27694278477318      0.24308436363964
  F   -0.34834831787934     -1.03027779312691     -1.37021382408390
  H   0.60762753943521      0.77809832443512      1.19911599422836
  C   -0.96185101393894     -1.37530386315173      0.83646189796877
  N   -1.30757678357951     -2.13572998156456      1.66342833216785
  N   -1.57633733006099      0.67031802747232     -0.32249734392300
  O   -1.77452252423668      1.30223556174997      0.70567411389864
  O   -2.08978696912771      0.80328220769725     -1.41749768286554
  C   1.16118445040207      1.28149328408588     -0.76134156908279
  N   1.43025393704904      2.09749722063343     -1.56181674245892
  C   1.86177599142778     -0.71665409342195      0.41156169109384
  N   2.70350613760406     -1.52251812779816      0.55625652347207
