13
Coordinates from ORCA-job run
  C   -0.46583971787512     -0.65694822344774      0.11149860557173
  C   0.96810050395324     -0.08122809581467      0.04858391404266
  F   -0.45447372377774     -1.87143222423788     -0.46824666345457
  H   1.60597043819910     -0.83820703780983      0.52447539683626
  C   -0.96738998002974     -0.73239497838170      1.48112480285389
  N   -1.34667408978068     -0.83267774728281      2.58938869281376
  N   -1.39916594837726      0.25771338620190     -0.70077186966700
  O   -1.77578080803049     -0.16707314944168     -1.77823870948801
  O   -1.62751611518290      1.33596715534705     -0.17152826805186
  C   1.10621128714198      1.17562105195016      0.78635574391050
  N   1.26704466469291      2.16513443618010      1.39805987639332
  C   1.38135124503431      0.06457511895443     -1.35064629953434
  N   1.71016224403240      0.17995030778267     -2.47205522222634
