13
Coordinates from ORCA-job run
  C   -0.47768579357443     -0.43224667696454     -0.23854117035990
  C   0.78076017423036      0.29020552452429      0.28661895470480
  F   -0.27605321277577     -0.87851024725101     -1.48681063324376
  H   0.54994162494556      0.66977271651152      1.28892126922990
  C   -0.89291182146200     -1.51371838629012      0.65304562217188
  N   -1.20829663205984     -2.38573870150868      1.37555209520343
  N   -1.60681132639402      0.61844107978818     -0.26736368649849
  O   -1.85104940210504      1.11160967873443      0.82476988517817
  O   -2.11504670050395      0.85284301094327     -1.34767162897093
  C   1.09770821482220      1.41867436257883     -0.59386996404748
  N   1.32379780808677      2.32986394006116     -1.29910704839847
  C   1.89502472282800     -0.65694017064633      0.36448634386504
  N   2.78062234396218     -1.42425613048099      0.43996996116581
