13
Coordinates from ORCA-job run
  C   -0.49583511819327     -0.41002307648516      0.23988452361751
  C   0.76508632743122      0.43548829543402     -0.03630880085638
  F   -0.18319009690810     -1.71251971112830      0.30176972101151
  H   0.45046766880370      1.48278983496678     -0.11451342835994
  C   -1.18776324194429      0.02955234456386      1.45028166472872
  N   -1.72799327757577      0.38894209692500      2.43045484035972
  N   -1.44478820994500     -0.18773372428307     -0.95580960465537
  O   -1.76701742683727      0.98048208008313     -1.12060575548939
  O   -1.75557409070839     -1.16953349439309     -1.60364503471530
  C   1.36498475031196      0.01745117209905     -1.30695793919900
  N   1.82193665097408     -0.31379857787460     -2.33665908331204
  C   1.70773075942214      0.28646007067866      1.07468527942065
  N   2.45095530516899      0.17144268941372      1.97642361744931
