13
Coordinates from ORCA-job run
  C   -0.50885479155064     -0.44948654355350     -0.33191180985616
  C   0.82031469272471      0.33046306039399     -0.30890036277794
  F   -0.57252850282233     -1.14468428588517     -1.48895827962550
  H   0.82357186122696      0.93552341008144     -1.22470466820931
  C   -0.68245311172793     -1.32870148232520      0.81876485818529
  N   -0.77327070500691     -2.06040316041552      1.73426782799742
  N   -1.63275858909063      0.60170503548069     -0.37279376232661
  O   -2.39164715212817      0.65782634279598      0.58330042033100
  O   -1.62486368971312      1.29354467492378     -1.38076458573173
  C   1.94568786799137     -0.60516469360792     -0.33172742416373
  N   2.84253026027794     -1.36301594365614     -0.35167163015553
  C   0.86901174404742      1.21073062173660      0.86006100886764
  N   0.88526011577132      1.92266296403098      1.79403840746517
