13
Coordinates from ORCA-job run
  C   -0.49531540772195     -0.40411446069016      0.24918540856606
  C   0.75812444201183      0.44792450854356     -0.04050761660663
  F   -0.16150481738034     -1.69481861772248      0.39458034380569
  H   0.42828051293155      1.48305474781607     -0.18800044222707
  C   -1.22957180985476      0.08946680002008      1.41281909605404
  N   -1.80522891139366      0.49138111679865      2.35568653891698
  N   -1.41348295385292     -0.26917375279625     -0.98286161336393
  O   -1.68726403800279     -1.29233329189959     -1.58167791992548
  O   -1.75153963329358      0.88118053422714     -1.22408220769874
  C   1.40171977049303     -0.03181984245049     -1.26716451513561
  N   1.89471683635229     -0.41353910857296     -2.26216146544784
  C   1.67041786808288      0.38059865418397      1.10343745620570
  N   2.38764814162841      0.33019271254244      2.03174693685684
