19

C	0.0	0.0	0.0
C	-0.522393	0.023458	-1.456596
Cl	1.762066	0.0	0.0
H	-1.58924	0.320715	-1.430713
N	-0.479148	1.225265	0.713336
O	0.385988	2.085057	1.275181
O	-1.829933	1.404317	0.669346
C	-0.450768	-1.228937	0.801204
H	-1.554312	-1.271543	0.811389
H	-0.047448	-2.194218	0.461067
H	-0.197361	-1.040434	1.860373
C	-0.375433	-1.307398	-2.155946
H	-0.998093	-2.075929	-1.679687
H	0.662639	-1.640985	-2.149866
H	-0.68867	-1.204931	-3.191445
N	0.26034	1.110022	-2.114969
O	0.70507	0.855459	-3.294946
O	-0.045828	2.232292	-1.71601
H	-1.713513	0.0	0.0
