19

C	0.0	0.0	0.0
C	-0.604603	0.068684	-1.397653
Cl	1.764613	0.0	0.0
H	-1.696549	0.156119	-1.190962
N	-0.612232	1.133794	0.733642
O	-1.775476	0.778272	1.217993
O	-0.314013	2.283855	0.32685
C	-0.432305	-1.30317	0.6624
H	-0.213821	-1.23484	1.728802
H	0.12072	-2.141873	0.235353
H	-1.509733	-1.429559	0.531078
C	-0.326317	-1.127065	-2.287856
H	0.745941	-1.299852	-2.394735
H	-0.753601	-0.947873	-3.279318
H	-0.804218	-2.016429	-1.875509
N	-0.239918	1.292039	-2.177939
O	-1.149983	2.062628	-2.477841
O	0.919719	1.386424	-2.583897
H	-2.927837	0.0	0.0
