14
Coordinates from ORCA-job run
  C   -0.52460676973068     -0.65449361816240     -0.05064637248918
  C   0.87871815710949      0.00329110978194     -0.10047277341665
  Br  -0.71367034945777     -1.91765352940214     -1.53459344108443
  H   1.64366829399480     -0.77090390510044     -0.18447990693217
  C   -0.57855377719327     -1.46190444381606      1.18043556820599
  N   -0.66456614484327     -2.06191583945517      2.18932993160902
  N   -1.53946235393801      0.34575916157518     -0.18043067141248
  H   -1.44376332225729      1.06424261122878      0.53100374107945
  H   -2.46310448836101     -0.06623911401594     -0.12702845301311
  C   1.08147688953986      0.82131973395537      1.08996126203062
  N   1.21584121042159      1.45575374753795      2.06997302692283
  N   1.00656342843431      0.87780617091425     -1.33138734638271
  O   0.60904864334388      2.03129574951224     -1.23496609015234
  O   1.49241058293738      0.33464216544645     -2.31569847496484
