14
Coordinates from ORCA-job run
  C   -0.49202604255036     -0.74553875052511      0.07473729123721
  C   0.74654295329117      0.04612157796517     -0.44678227669258
  Br  -0.07630303181419     -2.62817282721872     -0.35692772854743
  H   0.87044013769420     -0.16634445141738     -1.51042418406930
  C   -0.60009506718612     -0.63110366862500      1.52831696539965
  N   -0.71838902890578     -0.53039379675839      2.69367383391384
  N   -1.72980472454005     -0.38660098387547     -0.52529750973712
  H   -1.66945899166106     -0.29347220136027     -1.53112160221716
  H   -2.14679924225136      0.43352596698759     -0.10383089809003
  C   1.96522266654305     -0.22815317440564      0.29565651595628
  N   2.95347207797444     -0.45607292825569      0.88874482399040
  N   0.40442848532813      1.51591036487726     -0.35698514654978
  O   0.50745437681127      2.04723053456432      0.74245031274402
  O   -0.01568456873336      2.02506433804732     -1.39221039733799
