14
Coordinates from ORCA-job run
  C   -0.47491008396422     -0.70026042047748      0.03218450437309
  C   0.72731570920390      0.10084822820452     -0.49617470419675
  Br  -0.08694485348293     -2.56468345053403     -0.43089060980370
  H   0.80260086659760     -0.07842477132196     -1.57129460141103
  C   -0.57200472552945     -0.63479912021532      1.49606165730437
  N   -0.69931434193177     -0.58154847385105      2.66421155253900
  N   -1.65751661706643     -0.30206220773564     -0.69251083919211
  H   -2.01022689277484      0.56600266129721     -0.30239699320139
  H   -2.37468478083675     -1.01260548369349     -0.60863562343093
  C   1.97983271616360     -0.21574469299597      0.17856695049949
  N   2.98971352987994     -0.46091469214361      0.72676587657763
  N   0.50406402101371      1.60277280403379     -0.36076056080805
  O   1.27100772014106      2.29872186951925     -1.00845475968801
  O   -0.39893226741342      1.98369774991378      0.37632815043837
