14
Coordinates from ORCA-job run
  C   -0.49606945283126     -0.67503585712557     -0.06716565070580
  C   0.87124863407216      0.05257398409474     -0.14083872588706
  Br  -0.70069120738311     -1.85344892201331     -1.61746718608239
  H   1.66599202283306     -0.67684171857044     -0.30801444726102
  C   -0.45117104657557     -1.55786049037611      1.11131841003215
  N   -0.45889970559622     -2.22218185866136      2.08287038003456
  N   -1.56126707986663      0.28031970621775     -0.08553236749158
  H   -1.46279702337327      0.95755573006052      0.66493289833908
  H   -2.46077014719163     -0.17973606101210     -0.01323781760707
  C   1.09459403248313      0.80676089419298      1.08738665331909
  N   1.24981277199770      1.38923083618120      2.09614145649059
  N   0.89807702840482      1.00421168246794     -1.31987603565883
  O   1.35836334414519      0.54435529448776     -2.35747814631555
  O   0.45357782888163      2.12909678005600     -1.13403942120617
