14
Coordinates from ORCA-job run
  C   -0.52055355589150     -0.52474311829804      0.14685469232108
  C   0.54422771883045      0.50276198615234     -0.30770940219495
  Br  0.33846448127315     -2.03482458824858      1.02648123562729
  H   0.01840567935294      1.32453355798133     -0.80462315260473
  C   -1.44610255337005      0.08085255227749      1.11424127586397
  N   -2.27024013203292      0.53988797263298      1.81773245937933
  N   -1.15792264734542     -1.00562248856506     -1.05695921323412
  H   -1.78184745389174     -0.29383824886388     -1.42687163876009
  H   -1.70058943166492     -1.83936045997805     -0.86242932023770
  C   1.51759340775840     -0.09622284265470     -1.20647651669191
  N   2.31156124833224     -0.52996865852573     -1.95508553589734
  N   1.23090220810519      1.13915296655700      0.88126036939932
  O   0.62805347934051      2.08625444343035      1.37712876146807
  O   2.28804755120366      0.65013692610256      1.25645598556180
