14
Coordinates from ORCA-job run
  C   -0.55686086098465     -0.52699401873003      0.29921856661357
  C   0.43430756557594      0.52153228272534     -0.30391437152456
  Br  0.48135827203197     -1.76826899642522      1.40338383518981
  H   -0.16523748865578      1.30697441840315     -0.77619412987843
  C   -1.54047885592127      0.14699120657575      1.14824814608599
  N   -2.38263249952029      0.67393370598911      1.77646868486597
  N   -1.25629819750098     -1.28693507329666     -0.69181139224868
  H   -0.62543300860857     -1.77508704094941     -1.31666087848307
  H   -1.92001390026582     -0.72035103168686     -1.20693971013665
  C   1.30305929993742     -0.11170095534487     -1.28363625484441
  N   1.93838093494670     -0.64840292546771     -2.11336750274907
  N   1.24689298538451      1.22612307474202      0.76109801103741
  O   2.43718100027933      0.95683175020715      0.84777377757993
  O   0.60477475330147      2.00535360325824      1.45633321849217
