14
Coordinates from ORCA-job run
  C   -0.39057155688523     -0.74088422779534     -0.07483425459501
  C   0.86449481436604      0.16982633637136     -0.07169726724926
  Br  -0.29493117145424     -1.99127676121972     -1.57822510239738
  H   1.76411115913120     -0.44445791701515     -0.14080255376249
  C   -0.32768994953554     -1.56477068627146      1.14484592195102
  N   -0.32336835243586     -2.18644070524028      2.14417290366960
  N   -1.57157318964762      0.05365553861335     -0.22618070624260
  H   -1.63537798830433      0.76083748433017      0.50004141485990
  H   -2.40163208004722     -0.52663375825728     -0.20937248470418
  C   0.87503248925980      0.99127112602203      1.13333119131662
  N   0.86228242403997      1.62634254726298      2.12199389503527
  N   0.86038846340654      1.07380783369720     -1.28862008412291
  O   0.25276054179830      2.13158030172019     -1.19082447883606
  O   1.46607439630818      0.64714288778195     -2.26382839492252
