14
Coordinates from ORCA-job run
  C   -0.44132736677473     -0.57075462368342      0.21561162523916
  C   0.42333017723477      0.56711950063499     -0.37837884962993
  Br  0.68266495707150     -2.08942062568899      0.68700428078649
  H   -0.24775131410940      1.39282372431729     -0.63633138973312
  C   -1.11616225286002     -0.12409458590694      1.44216465852498
  N   -1.75279920523289      0.20572213641751      2.37527091384640
  N   -1.34267864412722     -0.98498920119720     -0.83485480387473
  H   -2.07176757781313     -0.28833172429634     -0.96057832723331
  H   -1.77912616432781     -1.86891179953893     -0.59911760080462
  C   1.15944686739994      0.12406988338760     -1.55142875515279
  N   1.75340904376549     -0.18176005198592     -2.51713197341711
  N   1.36345588019109      1.13727878840765      0.66228175863916
  O   2.50330975755035      0.69408253493805      0.70293913824346
  O   0.86599584203206      1.98816604419464      1.39354932456596
