14
Coordinates from ORCA-job run
  C   -0.54444409461240     -0.60597504049608      0.12553787275225
  C   0.84239289346400      0.05579720689853     -0.03964888911473
  Br  -0.68648704194252     -1.91106474360157     -1.43186342802752
  H   1.61772227632270     -0.71099713624645     -0.00263398836233
  C   -0.49330917322559     -1.45535795060838      1.31482318252771
  N   -0.44530941500701     -2.11864323207567      2.28426357006016
  N   -1.58301654768666      0.32429413185237      0.23186369191294
  H   -1.62920410731248      0.95764065533995     -0.55605380228955
  H   -2.47811021675049     -0.10064997277551      0.43243323232610
  C   1.05946690490381      1.07005144324837      0.98696467896247
  N   1.26060087019621      1.87527157913944      1.81826339596742
  N   0.98790371899384      0.71035408576005     -1.39828667740841
  O   1.99214760075748      0.42101903215064     -2.03228763929770
  O   0.10064633189910      1.48825994141431     -1.73337520000882
