14
Coordinates from ORCA-job run
  C   -0.50494732063776     -0.62336499104645      0.12256643478358
  C   0.73764413984690      0.07026232205914     -0.47186112638861
  Br  -0.18044238217909     -2.59022773527345     -0.22962593619413
  H   0.81251080145126     -0.18085698141421     -1.53206159321535
  C   -0.57283203277946     -0.48995827060296      1.57524864368501
  N   -0.66866599842443     -0.40163670396025      2.74353026313454
  N   -1.66578478744810     -0.09901457001155     -0.47430882556737
  H   -2.51699851153184     -0.45076450847368     -0.05555149467103
  H   -1.68503490567897     -0.22310065877454     -1.47943054778683
  C   1.96638636009677     -0.26049186393992      0.23168725481192
  N   2.97261161617741     -0.51377584949592      0.78236372144805
  N   0.50190699505096      1.56843564049620     -0.41540499447849
  O   0.22602437707123      2.10181093489437     -1.48280072153292
  O   0.57562164898513      2.09168323554321      0.68764892197165
