14
Coordinates from ORCA-job run
  C   -0.48549158481343     -0.60073197178830      0.28352473662698
  C   0.36523567406358      0.59040717336035     -0.26584496177858
  Br  0.75102810308465     -2.00212791183562      0.87001361228434
  H   -0.31617906979021      1.43105284934504     -0.43474666430812
  C   -1.27646583068072     -0.16092547676106      1.43399556823430
  N   -1.97506989319300      0.18507879137431      2.31368904715959
  N   -1.37240361752054     -1.16433828526737     -0.68891001001479
  H   -0.88115422120582     -1.48319369152439     -1.51569908595092
  H   -2.12429458355564     -0.52899483739367     -0.92972039178555
  C   1.02046323281519      0.21147228281371     -1.50798519090154
  N   1.47729433108026     -0.11284656406431     -2.54058526776034
  N   1.37461377863545      1.09252882117951      0.74427563255613
  O   2.55780395999364      0.85834893761815      0.53940006966596
  O   0.88461972108659      1.68426988294363      1.69959290597253
