14
Coordinates from ORCA-job run
  C   -0.49387834938660     -0.63282537805006      0.11904264767920
  C   0.74111438453055      0.08131120267048     -0.46752839572603
  Br  -0.13192859596636     -2.59436445898205     -0.22768861798259
  H   0.82960634017359     -0.17105914894780     -1.52631681743025
  C   -0.57455948034768     -0.49797798355358      1.57078921517512
  N   -0.68171097763507     -0.40428942945888      2.73774876619025
  N   -1.65957116231377     -0.12977923679818     -0.48689613000406
  H   -2.50711701222729     -0.49513899144425     -0.07249033847812
  H   -1.66956749079726     -0.25766273670328     -1.49171920207667
  C   1.96892233890588     -0.22351929015419      0.24918556592039
  N   2.97290580656317     -0.45299372174519      0.81410831020772
  N   0.47645532066489      1.57542302902727     -0.41664045707769
  O   0.19452727131031      2.09997286539816     -1.48676371372412
  O   0.53480160652565      2.10290327874154      0.68516916732684
