14
Coordinates from ORCA-job run
  C   -0.59614088641139     -0.65836849892092      0.08872794637829
  C   0.78532505402773     -0.01464888346637     -0.27813995178285
  Br  -1.19937778142619     -1.60703845911734     -1.52882157819581
  H   1.51157845637618     -0.78872714264258     -0.53290952123228
  C   -0.30901431649805     -1.66522936996665      1.11232131874098
  N   -0.04611097513423     -2.44328396735871      1.95354291165664
  N   -1.62768169905842      0.20667350887795      0.54474404849390
  H   -1.46904876982617      0.50747511938999      1.49938975995950
  H   -1.74143361809860      1.00466879225854     -0.06795300820403
  C   1.23962990041515      0.80341895325406      0.83856544830896
  N   1.56128054351773      1.44853902126678      1.76655860755008
  N   0.66219277055477      0.85895172041212     -1.50335365154492
  O   -0.15152478009547      1.77556507405693     -1.44087011732267
  O   1.38032610165696      0.57400413195618     -2.45180221280580
