14
Coordinates from ORCA-job run
  C   -0.57334834786905     -0.57388977467340      0.15019558507144
  C   0.80790659949665     -0.00517241802258     -0.24685208374358
  Br  -1.25838584100347     -1.49920886608000     -1.52896194167939
  H   1.46171098255712     -0.82190251786628     -0.55658150626784
  C   -0.34983012780146     -1.65892312372637      1.10487797638685
  N   -0.15790089154036     -2.51623676751897      1.88602554308393
  N   -1.42292663152231      0.39314654086907      0.69722052587547
  H   -2.29421145779696      0.00929413680455      1.03740115980131
  H   -1.56889398147113      1.18381187995278      0.08283351958408
  C   1.39717235430728      0.74897269979437      0.85471822787937
  N   1.90046309108915      1.34475174901257      1.73314139096497
  N   0.70565917723767      0.90837347147543     -1.45128129413630
  O   1.46907480503906      0.67147349829968     -2.37591452759305
  O   -0.11748973072219      1.81550949167914     -1.38582257522726
