14
Coordinates from ORCA-job run
  C   -0.45543964368079     -0.71200550450769      0.03656707851080
  C   0.72542424613691      0.11642545933945     -0.49780823341452
  Br  -0.01814136048010     -2.56937155391641     -0.41140888881407
  H   0.80501937766492     -0.06861165911158     -1.57164687737469
  C   -0.55628839606058     -0.63817252208322      1.49961229967276
  N   -0.69234638334452     -0.58161453938976      2.66667678890209
  N   -1.64821189152216     -0.35148269394336     -0.69168830921260
  H   -2.02146453991368      0.51164602431786     -0.30989249150427
  H   -2.34728538834994     -1.07869220596175     -0.59707710854452
  C   1.98490896707090     -0.16275422176909      0.18028420718786
  N   2.99839722476442     -0.37927739451705      0.73361726371698
  N   0.46287753326048      1.61310976285030     -0.37304601155256
  O   1.21304118638558      2.32442549956072     -1.02361732851773
  O   -0.45149093193143      1.97537554913157      0.35942761094448
