14
Coordinates from ORCA-job run
  C   -0.53161278497468     -0.48968554492810      0.20935914393031
  C   0.57163425913050      0.43512449988647     -0.35820225134388
  Br  0.23492755285374     -1.73290067751822      1.49768143650456
  H   0.10023065538468      1.10968650502134     -1.08028924207006
  C   -1.55789544495472      0.29424619443786      0.91030387992970
  N   -2.45458257922657      0.87590419401535      1.40257132147387
  N   -1.03584032488959     -1.25243711521379     -0.90978769954957
  H   -1.62032459473409     -0.66218617606184     -1.49527204389667
  H   -1.59297044860581     -2.03373096002592     -0.58307474825841
  C   1.63504363213844     -0.32718917551632     -0.99239768567281
  N   2.50272728528281     -0.90159229262197     -1.53652367172416
  N   1.12885439909481      1.34260511292143      0.71788615551886
  O   0.47310885641665      2.35960723862958      0.92330451136030
  O   2.14569953708380      0.98254819697413      1.29544089379796
