14
Coordinates from ORCA-job run
  C   -0.50228791254688     -0.63025049952486      0.09734203910191
  C   0.74768685774264      0.08511409497968     -0.45598573922480
  Br  -0.15704482209802     -2.58614927644281     -0.29466034393990
  H   0.84891718363093     -0.14377978198597     -1.51900009138076
  C   -0.59680040718029     -0.53091322132321      1.55117941645688
  N   -0.70870561079756     -0.46730076009994      2.71962443507299
  N   -1.65527598277771     -0.09985651716816     -0.50907505848121
  H   -2.51167481243697     -0.46654382198047     -0.11461502312757
  H   -1.65389979635806     -0.20028015633079     -1.51699530855704
  C   1.96196491827653     -0.24952029349463      0.27054805173347
  N   2.95473019833192     -0.50615540637653      0.84354193478091
  N   0.49628286328826      1.57967731635802     -0.37479568914011
  O   0.22655384518531      2.12949889669660     -1.43555632297736
  O   0.54955347773993      2.08345942669307      0.73844769968258
