14
Coordinates from ORCA-job run
  C   -0.55602252927215     -0.60468660944137      0.07711969358904
  C   0.83400979310142      0.04033599475493     -0.12448494361100
  Br  -0.92680782218999     -1.59572888361130     -1.66401905444813
  H   1.57230918105826     -0.74003028508067     -0.31540452565035
  C   -0.41426271071847     -1.66010975753017      1.07924140535302
  N   -0.28531297053287     -2.49072275476310      1.90095823073419
  N   -1.53258148059837      0.31627221243839      0.46759869457485
  H   -2.42175258897978     -0.11397097995737      0.68243623955454
  H   -1.62798056160835      1.08953742430365     -0.17776294506095
  C   1.20879076461754      0.84282797705576      1.03545999874488
  N   1.54047793835577      1.47751210469372      1.96667076328220
  N   0.86032656332741      0.92925178039337     -1.35100601991737
  O   -0.01333988732243      1.78700446340424     -1.42796036868997
  O   1.76314631076201      0.72350731333992     -2.14884716845495
