14
Coordinates from ORCA-job run
  C   -0.61674338520855     -0.38247412248920      0.18522227426700
  C   0.52522413920026      0.53073772169933     -0.32206710174046
  Br  0.18052732936537     -1.68297706525033      1.49111913814463
  H   0.06082434002460      1.35481000476414     -0.87262944682206
  C   -1.62437076105363      0.37504983046689      0.92555299299333
  N   -2.50058141914342      0.93174282423735      1.47699800311682
  N   -1.22368510737876     -0.98404149902207     -0.94496202783423
  H   -2.08324056069246     -1.46064886900175     -0.70141520186231
  H   -0.59668111922151     -1.62618320982722     -1.41726802662711
  C   1.42948997426998     -0.21361867757042     -1.18564209688111
  N   2.09442105080388     -0.83760078311053     -1.92621229533006
  N   1.28140672272390      1.17121144186553      0.82251664303170
  O   0.62103986583220      1.96360524251998      1.48341317073410
  O   2.45236893047814      0.85838716071831      0.98537397480978
