14
Coordinates from ORCA-job run
  C   -0.57641622530122     -0.37573535602596      0.29544200642183
  C   0.46742814697171      0.48928854468973     -0.45191428190796
  Br  0.38144730643120     -1.34584369212951      1.76982316977082
  H   -0.08567729931005      1.16010610952155     -1.11653203159542
  C   -1.59543611678648      0.44889310075320      0.94265231261102
  N   -2.47875732109805      1.04824608809038      1.43487081819082
  N   -1.19732970827519     -1.22204741157121     -0.65643389627312
  H   -2.00600389005396     -1.69326558643334     -0.26997325373316
  H   -0.55117947406139     -1.90523793615884     -1.03662167023691
  C   1.37544338901911     -0.35229897214626     -1.21637757145687
  N   2.04357994547061     -1.06642593634057     -1.86714351030081
  N   1.23535080476523      1.38471473768410      0.49669913306389
  O   2.43269011854239      1.18043863380215      0.63875997912966
  O   0.55586032368607      2.24916767626458      1.03674879631621
