14
Coordinates from ORCA-job run
  C   -0.47786163440799     -0.68546730765553     -0.09460226429116
  C   0.85049950339091      0.10570282988134     -0.21531195112804
  Br  -0.79224983109487     -1.70172076588859     -1.73842119981983
  H   1.64879409002286     -0.56525766170301     -0.53802822017066
  C   -0.28733586379398     -1.68472984672800      0.97084381846127
  N   -0.17065971889628     -2.44731026951542      1.85972252496205
  N   -1.57143464422092      0.21894676393728      0.09028104019426
  H   -1.42356454254874      0.81683055503424      0.89791141984348
  H   -2.44363452487309     -0.28541057843348      0.19505775247380
  C   1.16941773315761      0.73127237155365      1.06294878557508
  N   1.40555265286835      1.20593068299591      2.11176317996188
  N   0.72756132161725      1.17986217307433     -1.27736743913272
  O   1.09525128453416      0.85578461777222     -2.39968566744241
  O   0.26766417424473      2.25756643567504     -0.92411177948699
