14
Coordinates from ORCA-job run
  C   -0.47974592450425     -0.69665940970615     -0.00974613861889
  C   0.79668011225043      0.07769742163197     -0.38008862330906
  Br  -0.04066338287865     -2.58085141765427     -0.32170732936248
  H   1.03590217125240     -0.15081526154949     -1.42143387105985
  C   -0.80329666954280     -0.56333205731006      1.41636339729095
  N   -1.11419685039873     -0.45612326401119      2.54572354773418
  N   -1.53182481060644     -0.33060902272312     -0.92747721721055
  H   -1.93486876541410      0.55385014608628     -0.63488311486594
  H   -2.25805121231797     -1.03700214610403     -0.92488476083161
  C   1.92754370987638     -0.21093164348644      0.49294938694512
  N   2.83912701108612     -0.43685220171881      1.19868801974233
  N   0.56836957223927      1.58442072129134     -0.34912118036227
  O   1.43225883519102      2.24854818642235     -0.90136178762056
  O   -0.43623379623269      2.00065994883161      0.21797967152863
