14
Coordinates from ORCA-job run
  C   -0.51095101466075     -0.63497023033685      0.12621186158720
  C   0.81944053495563      0.08673087381167     -0.18706144646881
  Br  -0.94804446067356     -1.67936149451604     -1.56634814636608
  H   1.58722796523431     -0.65252179024036     -0.42050399653776
  C   -0.23486668047787     -1.66004240986010      1.13199679228554
  N   -0.00375078179612     -2.46552448851292      1.95650226273186
  N   -1.50934717993857      0.23504166769080      0.57515991294875
  H   -1.69906894183142      0.98851919703645     -0.07278684175372
  H   -2.35271081015533     -0.24203238783555      0.86361938212757
  C   1.22936188410206      0.93209712801419      0.92943309671488
  N   1.59040245751570      1.60265388748446      1.82401872876935
  N   0.70219310228266      0.95135365929949     -1.42590349028279
  O   1.55471750578693      0.78353738408341     -2.28536130003799
  O   -0.22460358034366      1.75451900388133     -1.45097681571798
