14
Coordinates from ORCA-job run
  C   -0.47326702922291     -0.70000931639273      0.03566478424257
  C   0.72697751665429      0.09951352958182     -0.49884330969178
  Br  -0.08504154924231     -2.56609246076579     -0.42181881984375
  H   0.80091318958508     -0.08501622461558     -1.57320246137986
  C   -0.56868559305052     -0.63096429259398      1.49920620408522
  N   -0.70191615544792     -0.57794396945124      2.66678082844276
  N   -1.65787784841820     -0.30508367993996     -0.68777927727907
  H   -2.37469256506635     -1.01537894996999     -0.59766385923574
  H   -2.00958212116430      0.56440084665017     -0.29984586890185
  C   1.98076562555056     -0.21203885282035      0.17588631215643
  N   2.99061586543413     -0.45364042338794      0.72557439674060
  N   0.50238298627303      1.60182883096916     -0.36980123879170
  O   -0.39563959661402      1.98462577776422      0.37230390134546
  O   1.26504727472947      2.29579918497221     -1.02446159188930
