14
Coordinates from ORCA-job run
  C   -0.49546376986360     -0.74324031792734      0.14012610486220
  C   0.70265959251651      0.03700161181045     -0.46844158815486
  Br  -0.08956962477505     -2.62837112140266     -0.28453453532977
  H   0.80961606742011     -0.23790764900023     -1.51993828333791
  C   -0.52996970061271     -0.62125445268042      1.59675063219411
  N   -0.57195958871677     -0.54341820227881      2.76873595419092
  N   -1.77073946351714     -0.41627374361462     -0.40447863139233
  H   -2.12084228491172      0.46362689525670     -0.04659844850858
  H   -1.78742652005724     -0.44682405653813     -1.41595822301215
  C   1.95371649320953     -0.16726256666730      0.24652379340780
  N   2.96266788036350     -0.32546342961939      0.82825505889651
  N   0.38850221883388      1.52148097071159     -0.47476967121614
  O   0.68269269299407      2.12710260908598     -1.49829141431032
  O   -0.13488399288340      1.98080345286415      0.53361925171052
