18

C	0.0	0.0	0.0
C	-0.322507	-0.350489	-1.478191
Cl	1.77457	0.0	0.0
H	0.265848	-1.23472	-1.705391
N	-0.61119	1.135281	0.499567
H	-1.616195	1.093339	0.301286
H	-0.470915	1.207265	1.499837
N	-0.33087	-1.290088	0.853654
O	-0.595973	-1.083305	2.030833
O	-0.253623	-2.384869	0.310693
N	0.272853	0.711338	-2.364643
O	-0.215553	1.834884	-2.325124
O	1.174013	0.35562	-3.125942
C	-1.750514	-0.554488	-1.918651
H	-2.212763	-1.371679	-1.369057
H	-1.726226	-0.804741	-2.985036
H	-2.381101	0.315238	-1.76156
Cl	-4.174985	0.0	0.0
