18

C	0.0	0.0	0.0
C	-0.599376	0.03352	-1.411512
Cl	1.804297	0.0	0.0
H	-1.658536	-0.209566	-1.277664
N	-0.527189	1.051818	0.753311
H	-0.258421	0.935585	1.723513
H	-1.553934	0.974859	0.685597
N	-0.29523	-1.392777	0.65217
O	-0.321018	-2.368595	-0.085104
O	-0.421037	-1.398521	1.869732
N	-0.068071	-0.985046	-2.376261
O	1.112492	-0.903174	-2.715419
O	-0.878869	-1.775631	-2.850455
C	-0.430637	1.396507	-2.059049
H	-0.981398	2.137663	-1.483921
H	0.622908	1.675885	-2.106449
H	-0.840181	1.362454	-3.071403
Cl	-3.553988	0.0	0.0
