17

C	0.0	0.0	0.0
C	-0.277708	0.220054	-1.540214
Br	1.957174	0.0	0.0
H	0.462803	0.961745	-1.864125
C	-0.514246	1.194413	0.780367
H	-0.146927	2.133973	0.357775
H	-1.608958	1.165791	0.732332
H	-0.195497	1.126037	1.822895
C	-0.541875	-1.311158	0.518959
H	-0.302982	-1.412281	1.580109
H	-0.126356	-2.165301	-0.018815
H	-1.632821	-1.278542	0.404659
C	-1.548342	0.808043	-2.005442
N	-2.31324	1.428773	-2.646919
C	0.015133	-0.995331	-2.310608
N	0.290032	-1.951423	-2.934634
Cl	-3.815819	0.0	0.0
