17

C	0.0	0.0	0.0
C	-0.11698	-0.0282	-1.566508
Br	2.189516	0.0	0.0
H	0.596963	0.715105	-1.93758
N	-0.471097	1.233839	0.519199
H	-1.495892	1.12054	0.379777
H	-0.318401	1.209567	1.523766
N	-0.464175	-1.126547	0.686109
H	-1.484576	-0.945802	0.730851
H	-0.316599	-1.932841	0.084218
N	-1.418273	0.309477	-2.101823
H	-1.479872	1.321282	-2.128267
H	-2.147627	0.018224	-1.424213
N	0.195538	-1.388558	-2.019942
H	-0.111166	-1.426827	-2.98271
H	1.199127	-1.52658	-1.990107
F	-2.909859	0.0	0.0
