17

C	0.0	0.0	0.0
C	-0.437125	0.05224	-1.51954
Br	2.03351	0.0	0.0
H	0.461251	0.060285	-2.140245
N	-0.387221	1.140331	0.791297
H	-0.230977	1.973519	0.233262
H	-1.406278	1.010657	0.834055
N	-0.40802	-1.210776	0.642165
H	-0.215699	-1.062605	1.629319
H	-1.427923	-1.192085	0.531355
N	-1.130229	1.331924	-1.73693
H	-1.334343	1.38627	-2.73023
H	-2.020468	1.193057	-1.243438
N	-1.2071	-1.134057	-1.879329
H	-1.400596	-1.072058	-2.874459
H	-2.092509	-1.012481	-1.379641
F	-2.844461	0.0	0.0
