17

C	0.0	0.0	0.0
C	-0.42954	-0.280708	-1.531446
Br	2.031298	0.0	0.0
H	0.498696	-0.370577	-2.096441
N	-0.409744	1.325007	0.408589
H	-1.436027	1.207606	0.421025
H	-0.103819	1.461131	1.368265
N	-0.417082	-1.086935	0.852491
H	-0.123196	-0.877725	1.802462
H	-1.443218	-0.977452	0.803863
N	-1.213566	0.796186	-2.111037
H	-0.745404	1.666529	-1.881182
H	-2.081292	0.782806	-1.571566
N	-1.189549	-1.50872	-1.691665
H	-0.737282	-2.223882	-1.133383
H	-2.075246	-1.305977	-1.225412
F	-2.812377	0.0	0.0
