17

C	0.0	0.0	0.0
C	-0.483975	0.262379	-1.426905
Br	2.031107	0.0	0.0
H	-1.561649	0.393805	-1.22518
N	-0.320954	1.157196	0.787239
H	0.158234	1.118012	1.678099
H	-0.017277	1.976608	0.272341
N	-0.58673	-1.203102	0.462765
H	-1.625427	-0.902074	0.365592
H	-0.384875	-1.301732	1.453994
N	-0.197772	-0.894204	-2.283065
H	-0.110342	-1.69404	-1.661026
H	-1.029071	-1.069154	-2.838117
N	0.075289	1.503371	-1.947492
H	-0.557586	1.860181	-2.65329
H	0.945464	1.262494	-2.411391
F	-2.894491	0.0	0.0
