17

C	0.0	0.0	0.0
C	-0.483188	-0.201187	-1.437068
Br	2.032064	0.0	0.0
H	-1.560815	-0.341683	-1.242404
N	-0.587054	1.181751	0.514366
H	-0.388835	1.235206	1.509775
H	-1.626187	0.885306	0.401947
N	-0.318993	-1.18969	0.737191
H	-0.008132	-1.985563	0.192077
H	0.154969	-1.183209	1.630775
N	0.078079	-1.417352	-2.010526
H	0.948144	-1.154944	-2.462636
H	-0.553619	-1.743203	-2.732125
N	-0.197722	0.991772	-2.24212
H	-1.030036	1.191836	-2.787082
H	-0.106892	1.763489	-1.586212
F	-2.895291	0.0	0.0
