13

C	0.0	0.0	0.0
C	-0.486064	-0.001093	-1.430457
F	1.395661	0.0	0.0
H	-0.08784	-0.868886	-1.963328
H	-1.584919	-0.023252	-1.391082
H	-0.130453	0.912819	-1.916535
C	-0.486145	1.20533	0.77015
H	-0.08805	1.188008	1.788394
H	-1.585005	1.160223	0.767487
H	-0.130469	2.106596	0.261045
C	-0.372037	-1.257397	0.688526
N	-0.499175	-2.28243	1.246767
H	-3.224291	0.0	0.0
