18

C	-0.390969	0.000947	-1.469742
C	0.0	0.0	0.0
F	-1.807103	0.035781	-1.582841
H	1.095779	0.0	0.0
C	0.157867	1.242444	-2.134493
H	-0.085389	1.23256	-3.201173
H	1.243447	1.260331	-1.994771
H	-0.270798	2.126624	-1.663284
C	0.097155	-1.266128	-2.138894
H	1.175756	-1.354181	-1.974272
H	-0.400639	-2.140581	-1.714366
H	-0.112136	-1.230361	-3.211663
C	-0.473127	-1.207876	0.679495
N	-0.840838	-2.169318	1.249402
N	-0.404996	1.223079	0.690587
H	0.298362	1.419912	1.394419
H	-1.302028	1.104504	1.14451
H	2.767012	0.0	0.0
