18

C	-0.504759	0.053041	-1.445921
C	0.0	0.0	0.0
F	-0.237835	-1.205463	-2.019634
H	1.094911	0.0	0.0
C	-2.003213	0.259709	-1.539667
H	-2.313068	0.272546	-2.588707
H	-2.276083	1.208022	-1.074062
H	-2.525696	-0.556603	-1.033391
C	0.293148	1.082923	-2.217318
H	1.358063	0.864408	-2.099486
H	0.097429	2.078779	-1.815388
H	0.012449	1.053381	-3.275194
C	-0.490086	-1.189961	0.688345
N	-0.879086	-2.140168	1.263402
N	-0.350311	1.246444	0.703765
H	0.479377	1.518555	1.225333
H	-1.101786	1.094098	1.364397
H	2.782286	0.0	0.0
