16
Coordinates from ORCA-job run
  C   -0.74419411083186     -0.06407704012742      0.20517044558719
  C   0.69934121782064     -0.22442459758223     -0.30135863595918
  Br  -0.73004010492497      0.73253204422994      2.04290507784486
  H   0.59623503798334     -0.41279984324242     -1.37581925676002
  N   -1.51311479987370      0.95088012872817     -0.65024919831430
  O   -0.90102327104954      1.53934344547720     -1.53343983958126
  O   -2.70462913781803      1.05748316748489     -0.39758394981944
  N   -1.47640898114330     -1.25336874326367      0.09209149211740
  H   -2.44252552739026     -1.12021464072956      0.36631769396453
  H   -1.05912708083999     -2.01529466087585      0.61216019043293
  C   1.24915456311390     -1.43632693604343      0.30923410291029
  N   1.68190147884914     -2.40481734821625      0.81341945002159
  C   1.65360968657887      0.95263579531702     -0.07860193643997
  H   1.90437117896936      1.05882229656489      0.97519637828147
  H   1.21151310764060      1.87712687190825     -0.44278661961146
  H   2.57293674291581      0.76450006037047     -0.63665539467463
