16
Coordinates from ORCA-job run
  C   -0.79152721786698     -0.22787082932723      0.26353091442869
  C   0.73141927733973     -0.23038404447978      0.45438297938316
  Br  -1.66901192709979     -0.35972316071443      2.05985762332475
  H   0.96086429077743     -1.24619552958333      0.80283597159159
  N   -1.29540629458599      1.10580631969622     -0.28658172655384
  O   -0.61968221161371      2.09737566216961     -0.04936934733198
  O   -2.35501496785024      1.07196389257673     -0.89949799546931
  N   -1.18706067991049     -1.22262039202244     -0.64169226906908
  H   -2.16866332501529     -1.13712470935325     -0.87599525380111
  H   -0.98589975732542     -2.14863762303008     -0.28720652969929
  C   1.20038967895516      0.67569073361286      1.50289929836064
  N   1.67250557765954      1.35232861944530      2.33799809730298
  C   1.48370445380927      0.02212603746704     -0.85988652737260
  H   1.11976781337393     -0.65266730393945     -1.63346361549469
  H   2.54900097027319     -0.15468349788631     -0.70207880625167
  H   1.35461431907966      1.05361582536854     -1.18573281334825
