16
Coordinates from ORCA-job run
  C   -0.78543571368241      0.01001378846646      0.37080977906197
  C   0.59373989610862     -0.33240425490996     -0.24563347100841
  Br  -0.62049572559666      0.41406110078205      2.24689400638159
  H   0.37689286566879     -0.55386114545998     -1.29862111269475
  N   -1.25481092688109      1.25054970098392     -0.41034541699704
  O   -1.51089377859792      0.99700803779240     -1.58561542083823
  O   -1.30318445433107      2.34507106410439      0.12483596335331
  N   -1.81522906230022     -0.96362395604738      0.20272178685718
  H   -1.66543245983050     -1.75757669598708      0.81171556051645
  H   -1.86486784076644     -1.26258839417116     -0.76456163230847
  C   1.07733213593565     -1.56609793031862      0.37116752867899
  N   1.46339338574018     -2.56110242795252      0.86145326586786
  C   1.63144234139645      0.78833690430398     -0.17781051716560
  H   1.26734038720232      1.67686717266945     -0.69692118573775
  H   2.55214488038579      0.46437186839837     -0.66583906465494
  H   1.85706406954852      1.04997516734571      0.85574993068784
