16
Coordinates from ORCA-job run
  C   -0.74487513000788     -0.27567901053970      0.13992765926317
  C   0.72040113121022      0.08218760072574      0.42957129812275
  Br  -1.25569683643690     -1.90909002200821      1.06625880605739
  H   0.82231229621823      0.18397419114492      1.51230014053832
  N   -1.62731318650980      0.82712044471659      0.82716536616022
  O   -2.59459179689499      1.21679167325231      0.18529793573947
  O   -1.28767414988248      1.20125067283661      1.94135270698722
  N   -1.00486163320114     -0.40810948718109     -1.23083110264737
  H   -1.97980894481448     -0.61340261115629     -1.40847635443928
  H   -0.74408233164538      0.43559417306251     -1.73162972992618
  C   0.96951017172902      1.39616545411051     -0.17329287552506
  N   1.16094626768623      2.42327428284962     -0.71085529643643
  C   1.70832541096403     -0.95094760664773     -0.11573820760098
  H   2.72859658946184     -0.61984252487621      0.08496443996484
  H   1.57810112504935     -1.07755489293077     -1.18979964468756
  H   1.55171101707404     -1.91173233735888      0.37378485842956
