16
Coordinates from ORCA-job run
  C   -0.77121110121553     -0.12479132101378      0.10979831600873
  C   0.70526817538604      0.07504630289003      0.46642213727670
  Br  -1.42448509681364     -1.75740346452101      1.11218299929148
  H   0.78661635127671      0.05525234099208      1.55503382931260
  N   -1.61622975568700      0.99361614719860      0.72857199215313
  O   -1.19472222212983      1.49341426251057      1.76179323501225
  O   -2.66184056686366      1.26640027258485      0.15393675205937
  N   -1.01265011138923     -0.13432420587752     -1.25815519987528
  H   -0.57141234882320     -0.91047271187850     -1.73062870586828
  H   -1.99950718176704     -0.07901319535448     -1.47564095210550
  C   1.11583352010540      1.40530898735172      0.00487249020257
  N   1.48013179310764      2.45393122339801     -0.37756356459709
  C   1.61321550439984     -0.99235412534603     -0.15211547232322
  H   1.63199746315540     -0.90961164029865     -1.24032354076701
  H   2.63355497264645     -0.84611254717583      0.20483961326004
  H   1.28544060461162     -1.99088632546005      0.13797607095952
