16
Coordinates from ORCA-job run
  C   -0.75771132324358     -0.12023750226104      0.18421339626449
  C   0.73818429791985      0.13308097715404      0.39647878703667
  Br  -1.29932810758732     -1.63806974189772      1.40663679384024
  H   0.90626336642772      0.23395288395977      1.47056424182901
  N   -1.57198491620409      1.05167242048177      0.74244494839598
  O   -1.08025271576989      1.66642929631380      1.67798541644018
  O   -2.66391873440266      1.24994614502698      0.22631931569820
  N   -1.10552474764585     -0.28275802120042     -1.15158955222709
  H   -0.69322914241554     -1.10619862935001     -1.56694058760111
  H   -2.10764610566399     -0.25966207433647     -1.29233710485989
  C   1.08569689708207      1.40922282337084     -0.23740827967263
  N   1.40674476403314      2.41654580115873     -0.74800987718253
  C   1.61412677120991     -0.98630132878207     -0.17424123780666
  H   1.54463615293325     -1.02251198495800     -1.26291078726857
  H   2.65662992888935     -0.79170890246343      0.08122180097025
  H   1.32931361443766     -1.95040216221674      0.24757272614343
