16
Coordinates from ORCA-job run
  C   -0.87051004862358     -0.24051949536317      0.39651236563020
  C   0.68112112138833     -0.22993045427914      0.47908095022267
  Br  -1.58689497037248     -0.46388959159897      2.18357016301190
  H   0.94270163249416     -1.21181828010507      0.89185541981936
  N   -1.28196210029907      1.13110272851458     -0.15806400674995
  O   -1.43414963298702      1.17002916408120     -1.37682253137820
  O   -1.33321796556399      2.07742316213799      0.61240571044363
  N   -1.45954542497098     -1.22148080648411     -0.44464818306906
  H   -1.24729418888423     -2.15773897231261     -0.12867837447588
  H   -1.21487562265286     -1.08317681143190     -1.41557796080255
  C   1.18695063008090      0.78197662986813      1.40767169261013
  N   1.66446492844259      1.58907497611029      2.11494609819073
  C   1.35354374209304     -0.06220978099608     -0.88872974918283
  H   1.01743394321186     -0.83290840854263     -1.58345779932842
  H   2.43355202638470     -0.16213415331056     -0.77004912333549
  H   1.14768193025862      0.91820009371198     -1.31901467160626
