16
Coordinates from ORCA-job run
  C   -0.73104668693598     -0.26066352185808      0.21695808956437
  C   0.74846703857362      0.12322903092033      0.36914814789091
  Br  -1.16535378268006     -1.79916814102766      1.32667081709454
  H   0.92353725548511      0.32864209986397      1.42754155927837
  N   -1.57128042015301      0.90228979184567      0.85617091437454
  O   -1.15679315109608      1.38265367314191      1.90227884542945
  O   -2.58367648511479      1.22824346659772      0.24935471505730
  N   -1.08444709272501     -0.52252535212933     -1.11367497570400
  H   -2.06821464658860     -0.74267528154165     -1.20304506784145
  H   -0.86368284302126      0.26955414566049     -1.70910826599359
  C   0.94594475985250      1.37258532000712     -0.37376906668744
  N   1.08097484755657      2.34002414214092     -1.02679000812402
  C   1.70355260766621     -0.95781964285584     -0.14076576709112
  H   1.49754382618478     -1.19123002668242     -1.18467237995776
  H   2.73276790857631     -0.60707850672106     -0.04831973863837
  H   1.59070686441964     -1.86506119736215      0.45202218134837
