16
Coordinates from ORCA-job run
  C   -0.73589162558927     -0.31044737688948      0.26645447905716
  C   0.74711758808199     -0.19366848285349     -0.13158778474490
  Br  -1.01095101246029     -0.03477589712886      2.15325289530810
  H   0.77800483338637     -0.44211917577960     -1.20069978246691
  N   -1.42377062876336      0.85906159007065     -0.51985155021830
  O   -1.48257860506426      0.63758872247411     -1.72860923384979
  O   -1.78873140934572      1.87499981124445      0.04885422459837
  N   -1.24966299015073     -1.57098085574171     -0.10239844214868
  H   -1.19760195965861     -1.69895719876676     -1.10627862594339
  H   -2.19679609203887     -1.71383933976195      0.22425822161829
  C   1.51572496238943     -1.21216099599673      0.58234684401007
  N   2.17683677646636     -2.01972844459026      1.11998724289905
  C   1.34856584886914      1.19935705159065      0.06624129656537
  H   2.40767324011368      1.17576319674158     -0.19384881992308
  H   1.25296950794623      1.52097439366554      1.10356495934674
  H   0.85809156581796      1.92893300172183     -0.57968592410813
