16
Coordinates from ORCA-job run
  C   -0.77831418845899      0.03434460328390      0.38290943555159
  C   0.64311181299314     -0.30420906691650     -0.13149581259821
  Br  -0.69622136525197      1.17977945196926      1.92931596780386
  H   0.47433607462080     -0.95739251774743     -0.99724167785078
  N   -1.44704637746632      0.76391524330524     -0.79599544968701
  O   -1.68460220057488      1.95854007006621     -0.73836179819828
  O   -1.64990825621410      0.02161082904140     -1.75452411199931
  N   -1.62645397111248     -1.07415590288838      0.68092053158314
  H   -1.34723424545215     -1.52154204508837      1.54436616457893
  H   -1.61948995244342     -1.74020023709027     -0.08310621575597
  C   1.32293378168000     -1.09724365111376      0.89078054593638
  N   1.86541489354959     -1.74074860076532      1.70993113795178
  C   1.47734017441845      0.89895523211723     -0.57248037540509
  H   1.66109005503435      1.57411363438364      0.26270582785484
  H   0.96617944075906      1.44767493636795     -1.36542624786930
  H   2.43686432391893      0.55555802107517     -0.96229792189653
