16
Coordinates from ORCA-job run
  C   -0.77471299503438     -0.13467324984047      0.30386142741940
  C   0.72076143840994     -0.30351482792696     -0.02153683427022
  Br  -1.06185072699454      0.74893143222928      1.99125146433115
  H   0.74677763477956     -0.87674076223505     -0.95782257559496
  N   -1.30201283694581      0.79198796452123     -0.84711736914410
  O   -1.35936686158124      0.20750212864468     -1.92810797331982
  O   -1.55703707436754      1.96797272693128     -0.64507557693370
  N   -1.42300835590742     -1.38740086937681      0.31395854010527
  H   -1.36485713358322     -1.82626809265968     -0.59772732733532
  H   -2.38785518037530     -1.32067397557057      0.61232812144018
  C   1.34783196869212     -1.11923271415307      1.01731954165129
  N   1.91252098313533     -1.74823544401575      1.83203427370822
  C   1.47840156330966      1.00967231810571     -0.22776668416944
  H   1.40017042332148      1.64612947538100      0.65395633789745
  H   1.09093884382329      1.54996528800493     -1.09263816070324
  H   2.53229830931809      0.79357860196025     -0.40791720508213
