16
Coordinates from ORCA-job run
  C   -0.75322213334067     -0.14606959649910      0.10282646200992
  C   0.75043991995586     -0.13656320206833     -0.22091593360919
  Br  -1.04396783972875      0.50310007484772      1.97543295820428
  H   0.80026058715379     -0.25178398894503     -1.30942646124950
  N   -1.50798749315730      0.85938328045667     -0.77621479414817
  O   -2.72612166572931      0.83835922268141     -0.67289651825794
  O   -0.85398171444584      1.56639107222520     -1.53350052967955
  N   -1.34500495609112     -1.38376106859313     -0.18262220250163
  H   -0.92121918907060     -2.14372586441447      0.33500533506844
  H   -2.34577195566969     -1.35950057725030     -0.02728017003372
  C   1.33750989859272     -1.33763643138327      0.37647434377807
  N   1.79647341220615     -2.30572386040231      0.85771628021653
  C   1.54852908917762      1.10124295049082      0.19910800981283
  H   1.06498186288090      2.00739152209460     -0.15842702202492
  H   1.65661737371048      1.14846104586256      1.28113058913494
  H   2.54346480355577      1.04043542089700     -0.24641034672036
