16
Coordinates from ORCA-job run
  C   -0.88191331913782     -0.22983515780551      0.37688392345948
  C   0.66728486004242     -0.22719674951434      0.50036209777326
  Br  -1.64482675817856     -0.42894867632550      2.14753671366022
  H   0.91135242590210     -1.20282545839870      0.93796107272357
  N   -1.27121986423231      1.13740347681469     -0.20382759518534
  O   -1.37942134514643      1.16437973954033     -1.42773679574285
  O   -1.35098120898361      2.09109047198266      0.55482082315921
  N   -1.45471413309929     -1.21674089853542     -0.46846600482555
  H   -1.18680863308300     -1.08760342809099     -1.43452739087153
  H   -1.25314883400210     -2.15085626366287     -0.13942534255330
  C   1.15288737851861      0.79875041179701      1.42434887400534
  N   1.61267852940169      1.61864918922662      2.12864248010725
  C   1.37822608525657     -0.08824909491415     -0.85101055467218
  H   1.19175594559325      0.88581208777069     -1.30378611090200
  H   2.45372494073870     -0.19420831238236     -0.70071132855610
  H   1.05512393040982     -0.86862133750218     -1.54106486157948
