16
Coordinates from ORCA-job run
  C   -0.75438251529016     -0.12159118035923      0.19906002822883
  C   0.74746416848451      0.11842244615003      0.38249611538979
  Br  -1.27556771993935     -1.66994693717001      1.39223998888409
  H   0.94146084094254      0.18937125178927      1.45459690267472
  N   -1.54920305217077      1.03821218580122      0.80851019637918
  O   -2.65303612280755      1.25401971927938      0.32569190712391
  O   -1.03122123554252      1.62697208559655      1.74676256206615
  N   -1.13478189832056     -0.24522651214396     -1.13175887645377
  H   -2.13981947769387     -0.21717384149734     -1.24824233531212
  H   -0.73252952945011     -1.05499356100056     -1.58215987293470
  C   1.08762590891972      1.40947542653280     -0.22467585658253
  N   1.40585705136115      2.42714906968863     -0.71616822609883
  C   1.60339611359128     -0.98944217090370     -0.23905853067945
  H   2.65250810148136     -0.80885041079121     -0.00102747949254
  H   1.50989879145630     -0.99392230593511     -1.32651289567726
  H   1.32133057497800     -1.96347526503682      0.16124637248450
