16
Coordinates from ORCA-job run
  C   -0.76087174553195     -0.24606292584245      0.49918529803771
  C   0.77850753636716     -0.22076636617060      0.45117005515601
  Br  -1.38254111433700     -0.27404109110490      2.32820042541267
  H   1.07680841183683     -1.15843446346823      0.93230039719153
  N   -1.24888948815687      1.09642650350417     -0.14161094021957
  O   -1.65114201440550      1.00321536228909     -1.29960902457893
  O   -1.12326206735572      2.12574679033795      0.50348856755633
  N   -1.26102679196037     -1.38119273719550     -0.18247184547766
  H   -2.23609119642884     -1.53486598909217      0.04339441013130
  H   -1.18551804059394     -1.24152637837209     -1.18367274021433
  C   1.35572674409312      0.87965036808530      1.22460101385346
  N   1.91035482472349      1.73083396475281      1.81362838687344
  C   1.31984591344812     -0.19544093113040     -0.98431953765158
  H   2.41009356674453     -0.21600418888622     -0.95469818448712
  H   0.98394587712261     -1.07353356306808     -1.53694402999568
  H   1.01305958443438      0.70799564536126     -1.51364225158750
