16
Coordinates from ORCA-job run
  C   -0.85644619610820     -0.16230314835255      0.14510449039214
  C   0.65217778578352      0.00215866010517      0.46750199863400
  Br  -1.52038080522156     -1.76374976405898      1.02806391502561
  H   0.75596846806642      0.03654987924435      1.55583830224701
  N   -1.54022820517536      1.04799410524125      0.81894363891770
  O   -2.11957507242124      1.83600763730132      0.08374900310193
  O   -1.38136262432669      1.15159125111001      2.02769413202316
  N   -1.25723474011806     -0.19040982941789     -1.20813078374969
  H   -0.90852108090654     -1.00536565982082     -1.69168616590640
  H   -1.03106200205108      0.66831392275697     -1.69464186456230
  C   1.06510366556176      1.29887952512032     -0.07698522483845
  N   1.37007276852793      2.32869666775122     -0.55349733874365
  C   1.52353156504444     -1.10931396470895     -0.11867554188942
  H   2.56790600632220     -0.92739244734345      0.13951393596634
  H   1.44766547982643     -1.13254401891585     -1.20723076524008
  H   1.23138498719601     -2.07811281601216      0.28543826862212
