16
Coordinates from ORCA-job run
  C   -0.79264447850241     -0.29039276540281      0.41623928823434
  C   0.74384146709237     -0.22742744547942      0.50347438917790
  Br  -1.56698367971653     -0.44166237527038      2.17998124366079
  H   1.02636711116844     -1.18218841219356      0.95985821508887
  N   -1.26194200360502      1.07634395310999     -0.18707589363721
  O   -1.22733257638054      2.06709880050481      0.52586705788553
  O   -1.55541574059767      1.04293429572060     -1.38035407325006
  N   -1.20091463063345     -1.39425226843335     -0.37000023564324
  H   -1.04486442429611     -1.19333330890145     -1.35128473575385
  H   -2.18675009839126     -1.58418798299834     -0.23798566919160
  C   1.22139759787744      0.84234041146363      1.38087824003036
  N   1.68750092914706      1.66706225150023      2.07485460828609
  C   1.40520870124748     -0.11319799755135     -0.87643230581291
  H   1.11740740895990      0.80801125613466     -1.38535243802584
  H   1.14506123317336     -0.97023219174132     -1.49853977700615
  H   2.48906318345695     -0.10691622046195     -0.75312791404303
