16
Coordinates from ORCA-job run
  C   -0.80587265038750     -0.22432643071064      0.22108448652230
  C   0.70414582758126     -0.23172124005782      0.49486530421641
  Br  -1.77964894278057     -0.34952747315985      1.96760690907099
  H   0.90933162606268     -1.24625470290698      0.86178514194533
  N   -1.27688348383392      1.10905871769077     -0.35817021423868
  O   -0.60526214648585      2.09852193064778     -0.10072131393130
  O   -2.30973614440516      1.07685847413353     -1.01540936191403
  N   -1.15494364219760     -1.21918250300875     -0.70302494663152
  H   -2.12470316127458     -1.13775858830864     -0.98345824748197
  H   -0.96720595869997     -2.14464885629577     -0.33959570559235
  C   1.11750729264302      0.67973512155179      1.56226929722033
  N   1.54687428994066      1.37278204765920      2.40689022379357
  C   1.53015404892919      0.01049106834271     -0.77633583311972
  H   2.58423000560930     -0.16882263179010     -0.55770920441610
  H   1.42297179379538      1.04064217893758     -1.11402697714665
  H   1.20804124550368     -0.66684711272482     -1.56604955829666
