16
Coordinates from ORCA-job run
  C   -0.75490083413488     -0.11745699869102      0.35631335400359
  C   0.70163401900833     -0.33288769535613     -0.09444692340552
  Br  -0.87009839887765      0.68038161643059      2.10565018509750
  H   0.62829650518573     -0.85213215580316     -1.05935295342875
  N   -1.32308177106924      0.89529576601339     -0.69859962782517
  O   -1.49447047219293      0.37562847937733     -1.80043051970033
  O   -1.50006645844072      2.06900438537564     -0.41578824673654
  N   -1.45983101690451     -1.33943474841651      0.35053168723045
  H   -1.49419359436049     -1.72632908924229     -0.58560258563393
  H   -2.39429089737947     -1.24790649947709      0.72839776670400
  C   1.36575193083469     -1.23360594045112      0.84654969967759
  N   1.95946421335306     -1.93354787024447      1.57860029783666
  C   1.50399083522182      0.95534767433880     -0.28896589502351
  H   2.52922431186353      0.70350016386530     -0.56343543713812
  H   1.07804716975325      1.56145050129058     -1.08978292345753
  H   1.52452445813948      1.54269241099012      0.62936212179962
