16
Coordinates from ORCA-job run
  C   -0.86534919226934     -0.25020234779825      0.40282281768757
  C   0.68740173790231     -0.24154739237485      0.46555970084215
  Br  -1.55687008274289     -0.51649444291682      2.19429915517475
  H   0.95387601645318     -1.23144419011189      0.85549032298564
  N   -1.28430242396135      1.13421148447096     -0.11275252125476
  O   -1.44736372362180      1.20378448967828     -1.32890527789696
  O   -1.33196457427163      2.06058979125996      0.68163520144243
  N   -1.46516127537060     -1.21033602092089     -0.45416281398962
  H   -1.23693723110867     -2.15406268988571     -0.17350002955443
  H   -1.24514280711950     -1.03816148733564     -1.42560029701885
  C   1.20458964183250      0.75146468357325      1.40819754560843
  N   1.69058087866834      1.54525647943831      2.12470389227183
  C   1.34251919328439     -0.04622445581198     -0.90686016825284
  H   1.13439977195776      0.94398283648010     -1.31286681797951
  H   2.42361421340727     -0.15238913726244     -0.80458136672372
  H   0.99410985696003     -0.80042760048236     -1.61347934334215
