16
Coordinates from ORCA-job run
  C   -0.88188532846071     -0.23383589042576      0.37497004026177
  C   0.66768094181587     -0.24678769755959      0.49194860492212
  Br  -1.63943244245056     -0.46943239676949      2.14424220019745
  H   0.90597436375329     -1.23693764871769      0.89913338402254
  N   -1.26192564732217      1.15048318257860     -0.17013996473006
  O   -1.32131287499102      2.08668756459945      0.61179789932047
  O   -1.38645521010073      1.20785757306562     -1.39151198543736
  N   -1.46492698970554     -1.19500048319441     -0.49201002114182
  H   -1.21518678376181     -1.03222093572475     -1.45785143649472
  H   -1.25522665479697     -2.13874176836151     -0.19747049010627
  C   1.16677492069128      0.74704809291867      1.44336419691759
  N   1.63751732482863      1.54183386206060      2.16889865302324
  C   1.37246564662494     -0.07330399502839     -0.85864155009410
  H   1.03408412138553     -0.82590766865569     -1.57179656505899
  H   2.44734387778021     -0.19838357537815     -0.71903663067082
  H   1.19651073470975      0.91764178459253     -1.27789633493103
