16
Coordinates from ORCA-job run
  C   -0.79875444695160     -0.30106677465665      0.40007106794102
  C   0.73467769975651     -0.21962514884887      0.52111404713376
  Br  -1.60870608452202     -0.46387508451309      2.14647636433896
  H   1.01763570380497     -1.17030451371853      0.98573906540505
  N   -1.27144298135908      1.06122485280918     -0.21203064539737
  O   -1.52549421426356      1.02765411465518     -1.41450988868330
  O   -1.27641471048764      2.04991755553831      0.50460692952238
  N   -1.17650624253508     -1.40815265577995     -0.39635491613009
  H   -2.16294851042279     -1.60934750795333     -0.28776997943074
  H   -0.99872903672846     -1.20537407823121     -1.37351101697374
  C   1.17864542137087      0.85868404271794      1.40567310092864
  N   1.62148631417223      1.70622701376497      2.08729742367144
  C   1.42678912202517     -0.09972301555458     -0.84299055145247
  H   1.14057852361653      0.81732529806622     -1.36014813719065
  H   1.19088911977971     -0.96059142387314     -1.46948577127242
  H   2.50729432274424     -0.08097267442249     -0.69417709241045
