11

C	0.0	0.0	0.0
C	-0.508606	-0.221783	-1.395387
F	1.3841	0.0	0.0
H	-1.604592	-0.274159	-1.351143
H	-0.34795	-0.792156	0.659472
H	-0.364122	0.961208	0.363223
H	-0.178222	0.547725	-2.090623
N	-0.003602	-1.508494	-1.950867
O	0.313651	-1.525718	-3.14114
O	0.035406	-2.484244	-1.20481
Cl	-3.515538	0.0	0.0
