11

C	0.0	0.0	0.0
C	-0.478288	0.226087	-1.405839
F	1.3841	0.0	0.0
H	-1.574238	0.281082	-1.389989
H	-0.37013	-0.961236	0.355949
H	-0.354187	0.791307	0.656209
H	-0.123945	-0.541482	-2.092348
N	0.049506	1.512265	-1.943761
O	0.085333	2.482889	-1.192048
O	0.392217	1.532154	-3.127022
Cl	-3.458478	0.0	0.0
