13
Coordinates from ORCA-job run
  C   0.59382589118311      0.69612643895215      0.08610935843110
  C   -0.77904309508900      0.32881416909634      0.62277442670841
  F   0.43806261895578      1.63294239896423     -0.93695987927110
  H   -1.30906537882565      1.26556596481259      0.81386179979763
  H   1.16081829985308      1.19786669988115      0.87971669534783
  H   -0.64281708000900     -0.16862425979878      1.59495634184961
  C   1.36518600184694     -0.47962039984583     -0.46557870553617
  H   0.80183166666336     -0.92117870154071     -1.28764282868456
  H   2.33593354045148     -0.15223628729434     -0.84068360544682
  H   1.52993794546169     -1.23449987375902      0.30860892081569
  N   -1.53855642964614     -0.46452280690630     -0.34046698731556
  H   -2.52319077364841     -0.24837156390424     -0.28076829872840
  H   -1.43092320719724     -1.45226177865726     -0.15492723796766
