13

C	0.0	0.0	0.0
C	-0.556244	-0.147817	-1.432452
F	1.362442	0.0	0.0
H	-1.436653	-0.799714	-1.375109
H	-0.373317	0.933221	0.422242
C	-0.391589	-1.141164	0.85412
N	-0.528531	-2.077588	1.548343
C	0.442659	-0.778162	-2.300751
N	1.19978	-1.290542	-3.037193
N	-0.905091	1.186653	-1.931836
H	-1.80918	1.371991	-1.490306
H	-1.08896	1.116358	-2.927955
Br	-3.495327	0.0	0.0
