13

C	0.0	0.0	0.0
C	-0.504492	-0.033614	-1.432502
F	1.381597	0.0	0.0
H	-1.603368	-0.050549	-1.34571
H	-0.369704	0.915005	0.463565
C	-0.408094	-1.183275	0.776611
N	-0.558792	-2.165788	1.401007
C	-0.043852	-1.253262	-2.121802
N	0.328434	-2.177551	-2.744984
N	-0.078667	1.192397	-2.097973
H	0.885766	1.109827	-2.395436
H	-0.655061	1.346297	-2.915019
Br	-3.579409	0.0	0.0
