13

C	0.0	0.0	0.0
C	-0.419057	-0.247416	-1.47758
F	1.37297	0.0	0.0
H	0.546117	-0.359429	-1.984485
H	-0.36849	0.954725	0.375566
C	-0.40557	-1.080863	0.913141
N	-0.567084	-1.904832	1.732947
C	-1.004896	0.975647	-2.07365
N	-1.296946	1.939312	-2.679375
N	-1.141657	-1.487417	-1.670007
H	-2.063911	-1.367136	-1.240611
H	-1.276543	-1.630214	-2.665153
Br	-3.467776	0.0	0.0
