13

C	0.0	0.0	0.0
C	-0.554991	-0.118036	-1.435697
F	1.358162	0.0	0.0
H	-1.450768	-0.7499	-1.387348
H	-0.376661	0.923502	0.440808
C	-0.396674	-1.159343	0.827645
N	-0.536556	-2.113298	1.496823
C	0.432189	-0.758952	-2.309165
N	1.179057	-1.278061	-3.051395
N	-0.875477	1.231005	-1.917693
H	-1.785274	1.420961	-1.490912
H	-1.037773	1.182955	-2.9186
Br	-3.485997	0.0	0.0
