13

C	0.0	0.0	0.0
C	-0.37147	-0.218328	-1.522958
F	1.383472	0.0	0.0
H	0.613139	-0.435239	-1.953903
H	-0.383057	0.930503	0.415025
C	-0.402981	-1.15695	0.811754
N	-0.523555	-2.139509	1.443172
C	-0.782562	1.062698	-2.113855
N	-0.991179	2.107163	-2.607325
N	-1.254536	-1.285139	-1.92887
H	-2.164261	-1.118388	-1.490903
H	-0.892654	-2.163259	-1.573577
Br	-3.48003	0.0	0.0
