13

C	0.0	0.0	0.0
C	-0.398969	0.255739	-1.485672
F	1.375998	0.0	0.0
H	0.307998	-0.374065	-2.040938
H	-0.377162	0.766819	0.67929
C	-0.444715	-1.336481	0.419179
N	-0.69022	-2.444361	0.719677
C	-0.03884	1.652744	-1.790005
N	0.240122	2.769364	-2.019863
N	-1.725296	-0.041051	-1.943626
H	-2.464123	0.354226	-1.354261
H	-1.882249	-1.041776	-1.915486
Br	-4.356425	0.0	0.0
