13

C	0.0	0.0	0.0
C	-0.437684	-0.240629	-1.471441
F	1.366147	0.0	0.0
H	0.039305	-1.188211	-1.754773
H	-0.374981	0.957339	0.369075
C	-0.46156	-1.098714	0.860813
N	-0.750418	-2.015091	1.534489
C	0.206216	0.807094	-2.288433
N	0.717844	1.629236	-2.950133
N	-1.837186	-0.325327	-1.773594
H	-2.387075	0.436031	-1.382365
H	-2.255197	-1.152892	-1.361905
Br	-4.555521	0.0	0.0
