17
Coordinates from ORCA-job run
  C   0.61518742389915      0.30274811344879      0.12678589933272
  C   -0.74904322141650     -0.38634109072389      0.01677235062452
  F   0.82022310708191      0.68187101332460      1.41855156328888
  H   -0.79706183199080     -0.85605742984758     -0.97310392968829
  C   1.77833990198639     -0.52588259080013     -0.35179949093798
  H   1.67832748144988     -0.74602522919336     -1.41475852622793
  H   2.70663120709539      0.02181413383277     -0.17850741473600
  H   1.78771493876255     -1.45440836786475      0.21745636515672
  N   0.57009782224073      1.57445436832012     -0.70003479308093
  O   0.97739791234195      2.61255288334453     -0.20273066551065
  O   0.14465737263852      1.43063169268704     -1.84642796413452
  N   -1.79885842765837      0.60581669735366      0.23987527051645
  H   -2.66082118603068      0.12501642251447      0.46468402978742
  H   -1.96153406037470      1.14769138135554     -0.60154008705728
  N   -0.74946987846375     -1.43682148940526      1.00715314423629
  H   -0.84504462182599     -1.02341211499228      1.92739805177837
  H   -1.51774393973566     -2.07564839335428      0.85022619665223
