17
Coordinates from ORCA-job run
  C   0.58212007192409      0.33511280149331      0.03902868586141
  C   -0.77251534133400     -0.36076001923238     -0.05656435825647
  F   0.65988222422240      0.91992689255641      1.28064484357316
  H   -0.84214877547505     -0.79410168740691     -1.05660982158248
  C   1.79295566526151     -0.52677066109555     -0.18981249026706
  H   1.80182935532094     -1.31939572819731      0.55557165794934
  H   2.69383913798048      0.08310146445237     -0.09558468983819
  H   1.75632458935461     -0.96600630576376     -1.18570535133483
  N   0.57933144640901      1.45785478923851     -0.98134680385151
  O   0.49020370774936      1.08620104676615     -2.14705822086692
  O   0.67900138311711      2.60814061648434     -0.58410629311685
  N   -1.79103815647223      0.66870046056475      0.04639014256429
  H   -1.77811868845534      1.09064886828596      0.96731825747967
  H   -2.71076572717215      0.28268049429679     -0.12168609461757
  N   -0.76460189405834     -1.45461947589420      0.90527902874742
  H   -1.58646059367151     -2.03184668432986      0.77754590362488
  H   -0.78983840470088     -1.07886687221863      1.84669560393171
