17
Coordinates from ORCA-job run
  C   0.65782637428327      0.37809974963082      0.12124414616747
  C   -0.67194619834976     -0.21905492376905      0.58700408538778
  F   0.97848787214050      1.37893460476735      1.00393337390050
  H   -0.48304191402860     -0.50022966641825      1.63483642415474
  C   1.80294276768860     -0.58748168462218      0.00513413491610
  H   2.70833231115085     -0.04165161981438     -0.26807303573597
  H   1.57895416518225     -1.34889177028184     -0.73632612254122
  H   1.95596924278445     -1.06777822141776      0.97297599125917
  N   0.43088040166946      1.05345100291952     -1.22222212066438
  O   0.17507198605909      0.29007190150019     -2.14937256967588
  O   0.51303389275074      2.27028320662369     -1.28433443286046
  N   -0.97608762524686     -1.43324070877147     -0.12640875822848
  H   -1.72626020024034     -1.92986061119507      0.33694327239075
  H   -1.27064721493214     -1.20069873965665     -1.06786093744584
  N   -1.68920314375810      0.81649644867615      0.43348618060584
  H   -2.56560427652648      0.48851893983651      0.82115541189896
  H   -1.42070844062694      1.65503209199240      0.93788495647094
