17
Coordinates from ORCA-job run
  C   0.55044185871512      0.28813290510472      0.06395856699381
  C   -0.78872736559565     -0.45846939064244      0.00396064847356
  F   0.65995994587737      0.85156412162070      1.31063956104900
  H   -0.86080924654556     -0.91291046413420     -0.98669961546832
  C   1.78352822088102     -0.51598887377406     -0.24358190018404
  H   2.66738180829813      0.11944215231242     -0.15527117662927
  H   1.72539961168878     -0.91786059489467     -1.25439546098291
  H   1.84483151400094     -1.33722948540950      0.46788888013530
  N   0.45075598366565      1.43703617689264     -0.92091646219015
  O   0.50068618808235      2.58331812953296     -0.49671094729943
  O   0.29815927510517      1.09818630854580     -2.09236346293341
  N   -1.94363801064448      0.40941904064052      0.17127270018078
  H   -1.79657362604222      1.05824398838137      0.93638596071969
  H   -2.13822467486155      0.93982194944569     -0.66933406132040
  N   -0.71330166882985     -1.51458227030706      0.99270793885577
  H   -1.58451628994210     -2.03074375608977      0.95776381346218
  H   -0.65435352385312     -1.09737993722512      1.91569501713784
