17
Coordinates from ORCA-job run
  C   0.52844235786082      0.37553225965705      0.06218163129713
  C   -0.82104554036408     -0.37012727327203      0.04650100128151
  F   0.61133284226974      1.12507208699734      1.19635783945661
  H   -0.95435836506964     -0.77059594955526     -0.96656213120266
  C   1.75815804151856     -0.48305848501247     -0.06492410156410
  H   1.82145607161988     -1.10875037663549      0.82523879390578
  H   1.70929722846668     -1.10177896606211     -0.96047312403286
  H   2.64785269029883      0.14772587376631     -0.11386042330771
  N   0.48068480026999      1.35176305454230     -1.09958635470944
  O   0.41928840717205      2.55032397238328     -0.85683739477185
  O   0.47034158306154      0.83352896201453     -2.21461919681540
  N   -1.94025733762314      0.49833544455323      0.33210205439914
  H   -1.71472888751793      1.09984827361836      1.11574279314636
  H   -2.17719274062686      1.07533271602937     -0.46380204659109
  N   -0.77136944647540     -1.38673657074488      1.08535566091242
  H   -1.72948835033931     -1.59947210027679      1.33414677083266
  H   -0.33741335452170     -2.23494292200273      0.74303822776348
