17
Coordinates from ORCA-job run
  C   0.61018020185390      0.44141348529369      0.15292054377846
  C   -0.68004088369126     -0.27844355139100      0.55084201125840
  F   0.78054028613774      1.47650281819078      1.03817434498598
  H   -0.52658600191647     -0.53044868631179      1.61175625621068
  C   1.84850539984734     -0.40847956123934      0.11623020351930
  H   2.71121551991485      0.22159217270116     -0.10963810879955
  H   1.98877928258935     -0.86543143809833      1.09717913357468
  H   1.74458259577765     -1.19262305037696     -0.62809876009421
  N   0.39698720822360      1.07975305570650     -1.21091224616463
  O   0.36534708776882      2.29814853500810     -1.28607411005337
  O   0.26905337022180      0.28660056300932     -2.13949869736006
  N   -0.82304695895247     -1.52300657179895     -0.16081044134307
  H   -1.54746372346260     -2.08590933753251      0.26635850120763
  H   -1.08386216024715     -1.32881734327908     -1.12074477283956
  N   -1.78218087062643      0.65160678308944      0.32431455463910
  H   -2.64422354150368      0.24264487910006      0.66424615193354
  H   -1.62678681193498      1.51589724792891      0.83275543554668
