17
Coordinates from ORCA-job run
  C   0.48437104638810      0.54366678207675     -0.08803400182598
  C   -0.94989537480633      0.08519001718704      0.26535476951300
  F   0.73599829986992      1.67269442070964      0.64348081721187
  H   -1.61047833052723      0.88787824653895     -0.10479529550436
  C   1.58284442010242     -0.45942746665592      0.12725975210663
  H   1.59720749553937     -0.74537078887044      1.17961415083235
  H   2.54364234289609     -0.00439383933741     -0.12150073707185
  H   1.41733035820463     -1.34563365251175     -0.47882851915998
  N   0.48567449103942      0.98303324150577     -1.54407814810889
  O   0.55987858042915      2.17813432634801     -1.79244788224225
  O   0.37575277575160      0.07669584329064     -2.36973813566051
  N   -1.17763105798458     -0.01937032494337      1.68722338458477
  H   -0.95637359069140      0.84883164193939      2.15655184977613
  H   -0.61205041428634     -0.76840755175335      2.06838890863340
  N   -1.20428640988715     -1.22515819957098     -0.29153191325650
  H   -1.12505803138346     -1.21516652160755     -1.30016719377374
  H   -2.14592660065422     -1.49419617434539     -0.03375180605408
