17
Coordinates from ORCA-job run
  C   0.53583297872218      0.56228417415214     -0.05262084032487
  C   -0.90221215262752      0.08132061075647      0.13057885051790
  F   0.68398749674070      1.73111225535904      0.66848272394294
  H   -1.53692629310537      0.88926137723093     -0.25349408111264
  C   1.60581339920340     -0.41149177434047      0.33830813644200
  H   1.55265022889073     -1.30337125707229     -0.28233053998307
  H   1.45885244422651     -0.67852688702793      1.38410325246955
  H   2.58594359571699      0.04587510662495      0.20462160396043
  N   0.67354303101556      0.97668918921139     -1.51109805673958
  O   1.49745785682707      0.39471879608013     -2.20724932485443
  O   -0.06957590979898      1.88274047311307     -1.87635311752953
  N   -1.09904807214187     -0.19940754624076      1.54949811511259
  H   -2.06998654598100     -0.44863593637897      1.70056602591737
  H   -0.91186170812478      0.63683237741967      2.09266883893232
  N   -1.09923043335915     -1.08072150767364     -0.70281149624760
  H   -0.84185605573506     -1.91323608192366     -0.18567596215204
  H   -2.06238386046941     -1.16444336929006     -0.99619412835135
