17
Coordinates from ORCA-job run
  C   0.64424946157623      0.47752039560162      0.17619640003977
  C   -0.64938365699450     -0.19720214986763      0.64929332690431
  F   0.94707015105087      1.47478311562650      1.05347990701013
  H   -0.48671579268829     -0.32057377392419      1.72489456896349
  C   1.83974544415320     -0.42386940496108      0.01013892077038
  H   2.70975676932892      0.18837491880425     -0.23646414008883
  H   2.02033926072748     -0.94458509274688      0.95137037398883
  H   1.66296521911060     -1.16550812733423     -0.76500561520406
  N   0.38163322380583      1.15424067960506     -1.15962144930435
  O   0.80496968221941      2.28424319076668     -1.33645321210830
  O   -0.21843769621318      0.46510518810635     -1.98685994584750
  N   -0.77675958077062     -1.52674745441160      0.07933266178928
  H   -0.98674567863984     -1.45034053864273     -0.90881758008810
  H   -1.53899473165029     -2.01614230237631      0.53174649327967
  N   -1.74173437716135      0.75250784198173      0.49175733353364
  H   -2.47380203544724      0.56752166726116      1.16416584691799
  H   -2.13715566240724      0.68067184651129     -0.43815389055636
