17
Coordinates from ORCA-job run
  C   0.70050381627783      0.40871890841032      0.12976960335483
  C   -0.62391408437839     -0.12401165768137      0.69108959013936
  F   1.16045638875733      1.37389397364919      0.97392320753133
  H   -0.40800470648644     -0.25522127669148      1.75636223900052
  C   1.78291635892878     -0.61339732057608     -0.10014132102453
  H   1.48003956373663     -1.33838740186487     -0.85158715968668
  H   1.97000355077891     -1.14276393057970      0.83501789123520
  H   2.69374938587494     -0.09708019141349     -0.41066544397096
  N   0.42428403600639      1.10116202573887     -1.19503657629154
  O   0.94378352474429      2.18340509411534     -1.40991751987713
  O   -0.28993565216560      0.46970055723562     -1.97641744159209
  N   -0.92384149785537     -1.43722671393426      0.14871991409892
  H   -1.18562706224200     -1.34672383827087     -0.82580745684238
  H   -1.70330954363987     -1.84071341722793      0.65354281055506
  N   -1.61968892715201      0.93307833967153      0.58756128213987
  H   -2.32197102035182      0.83267176561169      1.30791823507719
  H   -2.07944413083360      0.89489508380749     -0.31433185384696
