17
Coordinates from ORCA-job run
  C   0.57150539848463      0.42303661683173      0.10773081021833
  C   -0.73500792166887     -0.26560068011874      0.56286644418572
  F   0.74572521442395      1.53805368609797      0.89156271433346
  H   -0.49228401673736     -0.68783117998877      1.55259792792061
  C   1.81073161030243     -0.42635921190853      0.19413984959705
  H   2.67912051865741      0.15196741793946     -0.12353609541361
  H   1.94832907848210     -0.72560740312255      1.23498932756845
  H   1.73923382446274     -1.30867451615877     -0.43799809689352
  N   0.37068842431313      0.92554673134509     -1.30727100358903
  O   0.87688985044061      0.27750426366045     -2.21656350764034
  O   -0.32833176478818      1.92716364079324     -1.43517285502358
  N   -1.11570089793026     -1.23889184022570     -0.43981816715337
  H   -2.03315993585058     -1.58912736442312     -0.19369640046576
  H   -0.47190298742123     -2.01840853330382     -0.47798855584532
  N   -1.86278612564806      0.61194309526062      0.74806598661930
  H   -2.05054308120777      1.10591323831884     -0.11737508185994
  H   -1.65350718831470      1.30137203900259      1.45846670344154
