17
Coordinates from ORCA-job run
  C   0.55618273089229      0.42233811586136      0.05739173526264
  C   -0.79093706104176     -0.29980181229432     -0.03235049851506
  F   0.58336715826275      1.17258172710084      1.19433487932047
  H   -0.86916733531335     -0.70309651624190     -1.04805611767149
  C   1.77387478702407     -0.46176475894580      0.01140364879848
  H   2.67394289723607      0.15561012745282      0.02859751705476
  H   1.77535908513088     -1.07099559435437     -0.89227803293906
  H   1.76621913779042     -1.09558111807024      0.89798248083987
  N   0.61077054487124      1.39016600887991     -1.11184540013441
  O   0.70934275495671      2.58431226889515     -0.87754788063059
  O   0.56678353031221      0.86200216728507     -2.22032492917793
  N   -1.81141954894746      0.70297204981873      0.11931816628379
  H   -2.72731864495858      0.33750240903708     -0.10238889875432
  H   -1.80709769286362      1.06770566322797      1.06359485454673
  N   -0.81570041081226     -1.33736226705613      1.00353185890397
  H   -1.77869260664971     -1.52548111019098      1.25164207551375
  H   -0.41650932588988     -2.20210736040521      0.65599454129841
