17
Coordinates from ORCA-job run
  C   0.49778469186624      0.27405257157002      0.04021974635598
  C   -0.89557771101527     -0.39878893470714      0.06045229161259
  F   0.71876094610287      0.83052247575727      1.27295378283648
  H   -1.07723957214137     -0.77354615071188     -0.95053548671258
  C   1.67505419790212     -0.58678254318984     -0.33633871983754
  H   1.51126880335962     -1.06012262720437     -1.30365809518620
  H   1.82187662603332     -1.34832033380454      0.42971545324283
  H   2.57913394027866      0.02354486883542     -0.38382747768458
  N   0.40437078633037      1.41761766476987     -0.94726092496435
  O   0.46229742533850      2.56607009731430     -0.52840747003457
  O   0.23347513977391      1.07352739624965     -2.11518165238335
  N   -1.92213705766593      0.56306921029873      0.39747232547428
  H   -1.57155009052763      1.27630486437295      1.02397983663022
  H   -2.30947968657361      1.00431894506225     -0.42329958500378
  N   -0.96812001075899     -1.51345765190982      0.98356714845702
  H   -0.94369246976439     -1.17388877427754      1.93689839344046
  H   -0.21422595853842     -2.17412107842533      0.84525043375707
