17
Coordinates from ORCA-job run
  C   0.59198302006509      0.42542810207932      0.17908533030377
  C   -0.67400790117776     -0.31101074005782      0.65269291633747
  F   0.80012526917477      1.45630207238771      1.05678245394868
  H   -0.47028911731118     -0.49800017727852      1.71350732392722
  C   1.84164100575379     -0.40171233003257      0.05751666003375
  H   2.68597247414809      0.24964982909225     -0.17881308236734
  H   1.72256761855157     -1.16296454663087     -0.70878006657326
  H   2.02690207220440     -0.89447855026899      1.01310317066638
  N   0.28835450553717      1.07509821422036     -1.15919012314779
  O   0.30372268114852      2.29444610432362     -1.24179129036516
  O   0.01223494291413      0.29192218888572     -2.06821642890627
  N   -0.79968812568827     -1.58797727586511     -0.00476199081667
  H   -0.94093922625750     -1.45396627222367     -0.99911849493174
  H   -1.61575416540752     -2.05532431666364      0.37145617516805
  N   -1.88086214798657      0.49964348879566      0.59766986745971
  H   -2.14185876268595      0.69274615909612     -0.36312504697547
  H   -1.74910414298279      1.38119805014044      1.08098262623867
