17
Coordinates from ORCA-job run
  C   0.60829642781307      0.32738651395720      0.09404951513438
  C   -0.74115864542554     -0.39754184537218      0.05765214399904
  F   0.80154951635369      0.84777637598071      1.33732364440146
  H   -0.77670647855430     -0.97184743317044     -0.87591550737738
  C   1.78983604528965     -0.52324342759330     -0.29197829805363
  H   1.81790875232710     -1.38453128677113      0.37412806258947
  H   1.69688065522505     -0.85934327136040     -1.32484559023547
  H   2.70591189303516      0.05975189541192     -0.17952902496293
  N   0.53971099086375      1.50114509257333     -0.86527598057426
  O   0.92937739993322      2.59382101653211     -0.48425835796695
  O   0.11722826481232      1.22691410987925     -1.98875193134951
  N   -1.81148762754836      0.59136633355540      0.17172436998568
  H   -2.66270303955843      0.12082676789527      0.45220221859012
  H   -1.98621315894128      1.03175753594167     -0.72468163160930
  N   -0.72290832004181     -1.33530582893464      1.15549600675743
  H   -1.47851107183057     -2.00197122655113      1.06793869817710
  H   -0.82901160375273     -0.82696132197365      2.02572166249473
