17
Coordinates from ORCA-job run
  C   0.56779991580647      0.60058450371127     -0.07437019163231
  C   -0.87380676202222      0.17865677348040      0.23971272893318
  F   0.75742015838582      1.86204436503461      0.41715993075835
  H   -1.48611016090308      1.05779971657697     -0.00188665651764
  C   1.63697725002271     -0.31994867024706      0.43022688899279
  H   2.61525772950409      0.02047395998325      0.09153140254873
  H   1.46500603280369     -1.33321671666591      0.07307469406507
  H   1.60499086840080     -0.29162397393257      1.51916944791332
  N   0.63968537607141      0.75090329487524     -1.58938238174758
  O   1.32551900437011     -0.04501421781376     -2.22526380466096
  O   -0.05348759997944      1.64641452205073     -2.06716703353410
  N   -0.97517341277154     -0.06510684085544      1.65828589764028
  H   -1.90372256651574      0.14054323059368      1.99893218344397
  H   -0.75691961797834     -1.03512047138221      1.85333806049552
  N   -1.19796041190758     -1.01374085585298     -0.53866511823236
  H   -1.25130175479027     -0.81001481540946     -1.53103577680198
  H   -2.11217404849689     -1.34463380414675     -0.25366027166428
