17
Coordinates from ORCA-job run
  C   0.51466377784791      0.34320289965824      0.03123894800439
  C   -0.86730465105118     -0.31672834426169     -0.04922339454820
  F   0.63697226829851      0.92263101767354      1.27064481099381
  H   -0.96535090554867     -0.72740223023787     -1.05746461651709
  C   1.69748219103711     -0.55607114320248     -0.21237292548302
  H   1.62055102662329     -1.03003954391961     -1.19005385342055
  H   1.73796171529715     -1.31680716022209      0.56731681087991
  H   2.61673332880654      0.03108069505299     -0.16945758435470
  N   0.54098088975425      1.46103406147365     -0.99122448302748
  O   0.64578658444818      2.61235966651098     -0.59834835203635
  O   0.45831333677598      1.08282023142636     -2.15606634939646
  N   -1.84126772885365      0.73858610588592      0.10691779208672
  H   -2.76601409936814      0.32664980838909      0.09502446224960
  H   -1.71599357072297      1.19433240305457      1.00378353828001
  N   -1.04181080156129     -1.40964964087193      0.89446029840650
  H   -0.76096976998951     -1.12513385631104      1.82594225934422
  H   -0.51273359179351     -2.23086497009862      0.62788263853867
