17
Coordinates from ORCA-job run
  C   0.54423991347731      0.62730952984052     -0.05444665518988
  C   -0.90355230883392      0.17946898466441      0.15676163407611
  F   0.71590729007539      1.84700186437815      0.54139948963610
  H   -1.50531815546558      1.04316947566956     -0.13635400166531
  C   1.60240568654681     -0.31778353079235      0.43916306528281
  H   1.51753501465764     -1.29803501399623     -0.02810052440084
  H   1.49933893123937     -0.39801244773079      1.52159082424085
  H   2.58932214440910      0.08115605723337      0.20670534162829
  N   0.69263430958918      0.88795075057854     -1.54766880392605
  O   1.45961724067294      0.17840949830739     -2.18878865595156
  O   0.00802399808374      1.80213508353330     -1.99257678551767
  N   -1.11031409085587     -0.05052566762262      1.57743819227344
  H   -0.86717911297078     -1.00277750582061      1.82347243579947
  H   -2.08083750255926      0.09582174325740      1.82171683665046
  N   -1.18651525766013     -0.89137710846464     -0.78321371956989
  H   -0.79081374524939     -1.76905356404234     -0.46715282279118
  H   -2.18449435515655     -1.01785814899305     -0.88894585057517
