17
Coordinates from ORCA-job run
  C   0.46711166190722      0.57712040283150     -0.07609712456524
  C   -0.97398295442539      0.09650314621077      0.13907086285876
  F   0.62438714903021      1.74196278148046      0.64429429095451
  H   -1.59997175591827      0.91686413808686     -0.22188227264447
  C   1.56339470894897     -0.38056115174689      0.29313392110162
  H   1.51278248582639     -1.28865383041388     -0.30404888033141
  H   2.53193700068488      0.08706706058600      0.11739321970467
  H   1.48382086557163     -0.61927928049803      1.35469522528367
  N   0.57970078306821      0.98813110658900     -1.53591783875330
  O   -0.14093660660680      1.91979299915546     -1.87839306595280
  O   1.35446067409891      0.36816829150635     -2.25636666063420
  N   -1.32378307588740     -0.12675023159276      1.53091144451911
  H   -0.74900645381490     -0.85410939482640      1.94065097683496
  H   -1.19859604536215      0.72142144475442      2.07129668821726
  N   -1.19006534872663     -1.04441456143811     -0.71815856249724
  H   -2.18358201319390     -1.22946531666356     -0.77593763754992
  H   -0.75467107520096     -1.87179760402118     -0.32564458654597
