17
Coordinates from ORCA-job run
  C   0.56014580838844      0.43639628831276      0.11618998732112
  C   -0.73467118342849     -0.28633858312179      0.55186263966684
  F   0.69772827976281      1.55223419948128      0.90640787149217
  H   -0.49406808060140     -0.70866139405803      1.54198796775312
  C   1.81805691626306     -0.38350351603779      0.21516132195859
  H   2.67614996344726      0.21407831457595     -0.09460726492486
  H   1.95195942985343     -0.67907373226839      1.25752182905018
  H   1.77318846455141     -1.26768495025553     -0.41693476906355
  N   0.36443959084600      0.93957845864581     -1.29882665373569
  O   -0.36152966570560      1.92122731352884     -1.43168523739802
  O   0.90193911891589      0.31150721671464     -2.20404958434887
  N   -1.07859631707550     -1.26252989043336     -0.46146424122844
  H   -0.42059916399859     -2.03054234266400     -0.48925021350941
  H   -1.99409624993853     -1.62987646838997     -0.23356781444914
  N   -1.88572877401357      0.56251748304043      0.72826016680076
  H   -2.07205000536066      1.06033528417434     -0.13535909690705
  H   -1.70226813190593      1.25033631875479      1.44735309152223
