17
Coordinates from ORCA-job run
  C   0.52128347734424      0.38345949902937      0.07210899710533
  C   -0.81754687711062     -0.38045555135902      0.02881152147718
  F   0.56847435981196      1.13879175757463      1.20412288450573
  H   -0.92289273009273     -0.78601312858953     -0.98551550069917
  C   1.76479710137674     -0.45924607235451     -0.02390033582554
  H   2.64693921092616      0.18295025658436     -0.05945575062715
  H   1.74243013118057     -1.08492287289817     -0.91560090749134
  H   1.81910883108173     -1.07757204563101      0.87200683358571
  N   0.48657244430854      1.35374331079944     -1.09501542863480
  O   0.51138646775491      0.83025152339070     -2.20738994201319
  O   0.40137602476130      2.55237659638352     -0.85995143879425
  N   -1.95511938021879      0.47251274904061      0.28690607356702
  H   -1.75842211554564      1.07073379622069      1.08086206699225
  H   -2.17494851367947      1.05330487952996     -0.51125200577826
  N   -0.77783826214566     -1.39223583399181      1.07285678012231
  H   -0.31705650501669     -2.23249224430939      0.74619342600709
  H   -1.73854366473654     -1.62418661941982      1.29321272650108
