17
Coordinates from ORCA-job run
  C   0.53659377402988      0.62765656686420     -0.06795227895200
  C   -0.88130623104260      0.12740672591910      0.24308816454653
  F   0.66429019768299      1.88335153732032      0.45345506244886
  H   -1.53879887988323      0.97198985840767     -0.00627739522423
  C   1.65289266312898     -0.25022328748136      0.41127205522883
  H   1.62480050106981     -0.24618188567814      1.50076744300874
  H   1.52965910671855     -1.26332985931011      0.03507320057781
  H   2.61145749481340      0.14632853237007      0.07630329707022
  N   0.59088002545528      0.81460312540602     -1.57893126077423
  O   -0.08423584704167      1.73705764373320     -2.02872845456499
  O   1.24091779516569      0.00792223653267     -2.24023353256193
  N   -0.97428613758737     -0.11299459953047      1.66334974156840
  H   -0.73650405290476     -1.07843158904244      1.85785835786342
  H   -1.90520138061324      0.07557848010830      2.00696367274338
  N   -1.13838938529011     -1.08812567498120     -0.52170849828877
  H   -2.06017034887287     -1.43250734357700     -0.28052659975142
  H   -1.13259929482873     -0.92010046706083     -1.52177297493863
