17
Coordinates from ORCA-job run
  C   0.55025868597787      0.35900977147112      0.06407142698543
  C   -0.75881173616167     -0.43139240593148      0.07066009368670
  F   0.62337463583479      1.09398180780553      1.21459235618971
  H   -0.82955446217402     -0.90364041301918     -0.91466330577503
  C   1.80830083718471     -0.44568737045518     -0.10635306406546
  H   2.66953312291135      0.22567923803357     -0.10908004013797
  H   1.77915852277335     -1.00243052047573     -1.04155890235291
  H   1.88033320825572     -1.14245925266224      0.72574775159139
  N   0.44592737414973      1.35667887363561     -1.08282701218845
  O   0.35550559897601      2.54856011487669     -0.81399917294524
  O   0.43819752080011      0.86211734176896     -2.20637296825595
  N   -1.87607715962098      0.47230180129582      0.32262431977288
  H   -2.63235414130007      0.31675917134309     -0.32786320773268
  H   -1.62213800096509      1.45095927894835      0.30512754442950
  N   -0.63502709555915     -1.48890557545220      1.05903689048112
  H   -1.34255933120884     -2.19088361815267      0.87945238093510
  H   -0.85406757987382     -1.07964824303007      1.96140490938186
