17
Coordinates from ORCA-job run
  C   0.61211286142734      0.43915770723592      0.15139961875339
  C   -0.67897115409497     -0.27701465419186      0.55362034960295
  F   0.78974122116699      1.47280292264613      1.03674370966448
  H   -0.52210919850092     -0.53038847864846      1.61369510327661
  C   1.84734618332390     -0.41489360419185      0.10815408077253
  H   1.73694231596562     -1.19770841182052     -0.63662276596332
  H   2.71107939263614      0.21250562289239     -0.12122106505694
  H   1.99102724643789     -0.87385456270465      1.08766686467569
  N   0.39511218072453      1.07961020816869     -1.21080135601099
  O   0.26377573140041      0.28833766976698     -2.14049789403919
  O   0.36392332006410      2.29813414275699     -1.28404896695448
  N   -0.82822344536571     -1.52043792973183     -0.15895098029741
  H   -1.55381979573334     -2.08089041517386      0.26950605998544
  H   -1.09132979864539     -1.32384541082009     -1.11780595398177
  N   -1.77930768693799      0.65650333151988      0.33193344768379
  H   -1.61702114971332      1.52127098037660      0.83756737951117
  H   -2.64027822415530      0.25171088191954      0.67966236837807
