17
Coordinates from ORCA-job run
  C   0.46335330419679      0.57906022427672     -0.08085211746634
  C   -0.97648340636102      0.09091076725762      0.12623178793550
  F   0.60368266541303      1.75715079619123      0.62173920278912
  H   -1.60497992842759      0.89920052576935     -0.25684147708777
  C   1.56230410457730     -0.36378068462501      0.31700189222506
  H   2.52933685662031      0.10857357829207      0.14554662409468
  H   1.47145804044406     -0.58608508977425      1.38121146121801
  H   1.52638096302647     -1.28168608384337     -0.26607643332611
  N   0.58960317060070      0.96696599579412     -1.54587631910773
  O   1.37729527623698      0.34076828843254     -2.24669608239599
  O   -0.13395417625284      1.88709688341614     -1.91238720102969
  N   -1.34066779817038     -0.10998549494279      1.51773850016091
  H   -0.76570960906883     -0.82588901619499      1.94689685138391
  H   -1.22767053592871      0.74844029670785      2.04440416376287
  N   -1.17301821867250     -1.06709395429223     -0.71261405317164
  H   -2.16425820711488     -1.26083429490877     -0.78005998872505
  H   -0.73667250111890     -1.88381273755623     -0.29936681125976
