17
Coordinates from ORCA-job run
  C   0.56991649108567      0.43090664057380      0.15573136631678
  C   -0.76696641047355     -0.21716430787903      0.56937852541373
  F   0.80053821989900      1.46479387694707      1.02875276724286
  H   -0.61367047430932     -0.47069437812789      1.63203341259734
  C   1.76486690401199     -0.48341345263843      0.14199642141197
  H   2.66488755158769      0.10008257113834     -0.06060211999551
  H   1.86711849916292     -0.95119092679057      1.12342429805704
  H   1.65707310408494     -1.24946428217743     -0.62259255316823
  N   0.39480953328414      1.05120981333953     -1.21438039372495
  O   0.38408993996188      2.26787729540504     -1.31054046933957
  O   0.25991177374257      0.24370896762021     -2.13202585613174
  N   -1.15013004139870     -1.42607591441280     -0.11168204598378
  H   -0.53817243361939     -2.19640884221599      0.12069251096255
  H   -1.13882683138940     -1.27537756646787     -1.11321593382653
  N   -1.80654925963760      0.76139222096116      0.32869956326133
  H   -2.69460468283054      0.35229505841335      0.58927774076166
  H   -1.65129188316231      1.59952322631151      0.87505276614504
