17
Coordinates from ORCA-job run
  C   0.49087103445104      0.28316424413634      0.05530054424192
  C   -0.89003224568697     -0.41463999856795      0.03264352874827
  F   0.66080422728125      0.84893008874471      1.29190009621884
  H   -1.03128461341231     -0.79651583334628     -0.98209599037330
  C   1.69554231021111     -0.55757126831555     -0.27747903212977
  H   2.58951149032296      0.06899203205014     -0.29619752112252
  H   1.57366600200199     -1.03728103082412     -1.24783167669806
  H   1.82941303462631     -1.31342958055529      0.49654600114248
  N   0.40970796385057      1.42050464843542     -0.94044208909335
  O   0.28270367690299      1.06811275182417     -2.11153256756583
  O   0.43399447225445      2.57177299095779     -0.52590095490198
  N   -1.94398817245335      0.53021426079304      0.33149161888630
  H   -1.62615369631139      1.25329579590703      0.96415266561101
  H   -2.31328457371460      0.95974734966365     -0.50370011605755
  N   -0.97343039061623     -1.52701224516020      0.95762322305850
  H   -0.20478534421296     -2.17560296086009      0.84563777373629
  H   -0.98425517549487     -1.18368124488282      1.90988449629875
