17
Coordinates from ORCA-job run
  C   0.67472406093484      0.36995899567106      0.22351367695097
  C   -0.71230171150308     -0.11830264620807      0.68692587407798
  F   1.43225778913661      0.64712358772893      1.32650716834166
  H   -0.96286367322780      0.53228497029726      1.52956985958755
  C   1.43918892789842     -0.55307003092323     -0.68367751526753
  H   0.85533832092578     -0.84302118522707     -1.55670439483184
  H   1.70651382455254     -1.43453723323569     -0.10207303805096
  H   2.34918929658331     -0.06438122375529     -1.03171402872463
  N   0.42714512663035      1.71031627228121     -0.44968628525592
  O   0.12790794330368      2.63952129532624      0.29356154587319
  O   0.46361366783089      1.75055564394987     -1.67726625721919
  N   -0.54911700219490     -1.46742806585320      1.18647569844419
  H   -1.35377229986750     -1.68939294681253      1.76055568711642
  H   -0.56602995551696     -2.11868017159143      0.40829826159742
  N   -1.77397244958510      0.01575586357856     -0.29604301003185
  H   -2.05536334566507      0.98033068772377     -0.41857207128102
  H   -1.50445852023601     -0.35503381295039     -1.19967117132643
