17
Coordinates from ORCA-job run
  C   0.54915041962494      0.41541054358564      0.19075702236350
  C   -0.76770872330199     -0.25626910671771      0.66108814600790
  F   0.81055737427724      1.43872165138654      1.06413752779602
  H   -0.54337377158082     -0.54353780113258      1.69665526036468
  C   1.75441595864786     -0.48057574219564      0.09911817889604
  H   2.63717819574257      0.11519929074775     -0.14093443969719
  H   1.91069284459193     -0.95750163508046      1.06897983985914
  H   1.61738905444290     -1.24251822057927     -0.66452301009186
  N   0.29141812768275      1.06217268738628     -1.15264269897235
  O   0.20507655836057      2.28060854367338     -1.21293237405413
  O   0.13508259163638      0.27890363174251     -2.09097104149706
  N   -1.14226439893881     -1.44337847781291     -0.06626668565347
  H   -0.96502121045569     -1.34093262166672     -1.05741150451406
  H   -0.65796414513430     -2.25972453037981      0.27654636327332
  N   -1.87687969717946      0.67511369319718      0.67165999404692
  H   -1.57772971324007      1.62295104093692      0.86114901871733
  H   -2.38001946517600      0.63635705290890     -0.20440959684471
