17
Coordinates from ORCA-job run
  C   0.49086215744966      0.55604362973351     -0.04334023202480
  C   -0.96422326785751      0.08033429523063      0.17932423439538
  F   0.66379510709289      1.69331827734399      0.70184161149942
  H   -1.60303193227677      0.86974854396743     -0.25027741751853
  C   1.57242177651375     -0.43436660918976      0.28489307762937
  H   2.54551255773965      0.05237537647987      0.19657220962512
  H   1.42495516674147     -0.77158469881141      1.31043377777879
  H   1.53989071952590     -1.28358058231643     -0.39413319251747
  N   0.60450079255846      0.98317433004984     -1.49478464096356
  O   0.63048131645368      2.17978300926274     -1.74850692562911
  O   0.61261385537091      0.06715711409217     -2.31709748790383
  N   -1.12032387259136     -0.09149305846923      1.61168019884243
  H   -1.03321652053328      0.79728180805430      2.08725693762179
  H   -2.05007087712507     -0.45898734369473      1.77517761266475
  N   -1.33633285243162     -1.17008889243899     -0.43118323416077
  H   -0.78026902374625     -1.91778744193127     -0.03331726710297
  H   -1.19556510288450     -1.15032775736265     -1.43253926223601
