17
Coordinates from ORCA-job run
  C   0.57382448246219      0.42682299730601      0.15087514773941
  C   -0.76440975259236     -0.21108833187833      0.57582944353403
  F   0.81873787410576      1.46064333951139      1.01993447283432
  H   -0.60475187994798     -0.46379718079757      1.63776198981814
  C   1.76211637532270     -0.49600884003326      0.12899238407278
  H   1.64252732166730     -1.26229048662643     -0.63360861927986
  H   2.66445592797362      0.08095046818986     -0.08179870473091
  H   1.86920693603047     -0.96338108152929      1.11010781478384
  N   0.39249296468017      1.04594734597799     -1.21904107818893
  O   0.38846180679472      2.26259652622841     -1.31713863880894
  O   0.24511441151420      0.23815932241036     -2.13456637526733
  N   -1.16126005627351     -1.41831633937978     -0.10015551288645
  H   -0.55196911219317     -2.19225405778353      0.12719475885156
  H   -1.15892619565040     -1.26851122762235     -1.10188320291138
  N   -1.79893210455683      0.77445193334225      0.34133564477282
  H   -1.63123835255532      1.61334736496279      0.88294033160213
  H   -2.68745064678158      0.37372824772148      0.61322014406477
