17
Coordinates from ORCA-job run
  C   0.54872987783694      0.41695454054916      0.18815886987326
  C   -0.76390456867706     -0.25949307471851      0.66409783741508
  F   0.81084504076930      1.44024947335001      1.06143907120634
  H   -0.53362770553720     -0.54602492423358      1.69855816827966
  C   1.75639407741597     -0.47505224203774      0.09021230827181
  H   1.61938767179939     -1.23513384974899     -0.67530138471219
  H   1.91665428318721     -0.95460674847792      1.05815866376258
  H   2.63674699212298      0.12423840064192     -0.14988801860558
  N   0.28266613553864      1.06435067350636     -1.15330561986790
  O   0.12200132230414      0.28152106333038     -2.09132502004656
  O   0.19527696242000      2.28279139981625     -1.21255151786047
  N   -1.13759358229251     -1.44734950154614     -0.06199236401591
  H   -0.96487458366313     -1.34416625487308     -1.05380676590066
  H   -0.65043967134043     -2.26273794997643      0.27891941995103
  N   -1.87572668613954      0.66842055417736      0.68021969021476
  H   -2.38252834415472      0.63032965786813     -0.19373349191790
  H   -1.57900722158997      1.61670878237282      0.87114015395264
