15
Coordinates from ORCA-job run
  C   0.78631933476251     -0.31280718690818     -0.20153200979498
  C   -0.59678302517102      0.27517630476631      0.09023544169381
  Br  0.76938556781592     -2.11137001821969     -0.84251408003979
  H   -0.47819604748013      1.19457648542365      0.66483505384718
  N   1.61789336720531     -0.20682297881320      1.14607539711068
  O   1.55730103506404      0.90027410296095      1.65674609286198
  O   2.24737237166232     -1.17510661795700      1.50750904091536
  C   1.47637032659024      0.55693000565397     -1.14188955037147
  N   2.02457109933142      1.27499758250251     -1.89628459498211
  N   -1.43727403280693     -0.65661214449093      0.92186476006388
  O   -0.83032840974696     -1.19850784929719      1.83683546553353
  O   -2.62765473506867     -0.73001510725370      0.66072384548458
  N   -1.32859470432302      0.63591263093446     -1.16705281411082
  O   -1.56864160276331     -0.27181241279943     -1.95200924671799
  O   -1.61074054507173      1.82518720349748     -1.28354280149386
