15
Coordinates from ORCA-job run
  C   0.83752549630612     -0.19771862783401     -0.12161890145205
  C   -0.63904249447073      0.17892484392025      0.02485251655657
  Br  1.15634963054338     -2.04846371665549     -0.46934115876770
  H   -0.71018429324412      1.18019993425780      0.45141407592159
  N   1.55541034334694      0.25108405888887      1.22063750543865
  O   1.28280996534633      1.39558982855796      1.54569575411855
  O   2.30984231181161     -0.52976661887844      1.75461453232776
  C   1.43207130718556      0.62483602385006     -1.16399486399936
  N   1.90652858798887      1.29838111507515     -2.00449921922737
  N   -1.36322322173364     -0.74955720764480      0.96255013180461
  O   -2.50563649286204     -1.06913787701275      0.67316573419158
  O   -0.73367840429932     -1.03197750618331      1.97420740489836
  N   -1.34137215307001      0.21653504800295     -1.29878688718466
  O   -1.80831649507183      1.30851285512955     -1.61051194973746
  O   -1.37908408777711     -0.82544215347380     -1.93938467488908
