15
Coordinates from ORCA-job run
  C   0.86249333393878     -0.07709905543371     -0.34597823510263
  C   -0.61998833930845     -0.43375261015461     -0.20722679120245
  Br  1.65187767010595     -1.05279736915557     -1.82256971119338
  H   -0.79913028342370     -1.49420762003538     -0.37826138446800
  N   1.57770845051305     -0.61588207014726      0.91943769661206
  O   2.54396448928845      0.01058096193574      1.31333352493634
  O   1.11954087960873     -1.66104306281406      1.35858985661979
  C   1.12638799330068      1.34152000617502     -0.48213028714521
  N   1.35986784199337      2.48879645030429     -0.59671153398581
  N   -1.48580135587347      0.35326973821250     -1.17919287348138
  O   -2.62669082105157      0.58654942307330     -0.80952927238294
  O   -0.97559650835223      0.62867041416317     -2.25522784722704
  N   -1.12207397913938     -0.10829236040257      1.16945000040855
  O   -1.95014774569802     -0.87577814701410      1.63766484552156
  O   -0.66141162590219      0.90946530129326      1.67835201209053
