15
Coordinates from ORCA-job run
  C   0.86270350661677      0.15352786595589     -0.40806951553959
  C   -0.65152012682688      0.36439889777427     -0.32203492311977
  Br  1.32364319602197     -0.09369598160584     -2.26298228646249
  H   -0.93114487441091      1.24140090434358     -0.90528893652750
  N   1.30213867451973     -1.07791283434040      0.45192998347220
  O   1.99804442594984     -1.92843648637911     -0.05588781180209
  O   0.90346838814698     -0.99584457827201      1.60345631475142
  C   1.60371883593917      1.28829855421016      0.11698154294949
  N   2.25798394192140      2.17897604920783      0.52116725798741
  N   -1.15963586251550      0.62307263247727      1.08909152945733
  O   -1.90947417791392     -0.20348446624541      1.58161721649642
  O   -0.77600474733030      1.68049643071897      1.56489243712169
  N   -1.41401034701965     -0.80061075926307     -0.86906492617219
  O   -2.46366763135560     -0.51586449892912     -1.43344607034540
  O   -0.94624320174310     -1.91532172965300     -0.67136181226694
