13

C	-0.461542	0.025257	-1.429243
C	0.0	0.0	0.0
Cl	-2.237092	0.02736	-1.582627
H	1.092683	0.0	0.0
H	-0.075725	0.882389	-1.970746
H	-0.397864	-0.847552	0.549714
N	0.041927	-1.201206	-2.141391
O	-0.052817	-2.271076	-1.549694
O	0.470091	-1.029586	-3.277835
N	-0.43877	1.235999	0.687387
O	-0.767078	1.135238	1.866671
O	-0.406554	2.285618	0.047364
Br	3.389764	0.0	0.0
