13

C	-0.463569	0.02384	-1.428706
C	0.0	0.0	0.0
Cl	-2.238377	0.015002	-1.576751
H	1.092649	0.0	0.0
H	-0.084143	0.883775	-1.970655
H	-0.397548	-0.8463	0.551885
N	0.045136	-1.199885	-2.14231
O	-0.041264	-2.270093	-1.54953
O	0.468157	-1.026626	-3.280957
N	-0.436849	1.237762	0.686635
O	-0.763349	1.139328	1.867404
O	-0.405774	2.286114	0.043742
Br	3.392716	0.0	0.0
