13

C	-0.497901	0.009861	-1.421644
C	0.0	0.0	0.0
Cl	-0.097257	1.482108	-2.279403
H	1.087981	0.0	0.0
H	-0.022793	-0.825128	-1.940613
H	-0.355565	-0.90325	0.499068
N	-1.99185	-0.301283	-1.504662
O	-2.734145	0.408667	-2.161776
O	-2.31179	-1.326731	-0.909221
N	-0.539447	1.14296	0.78479
O	0.146686	1.579792	1.701607
O	-1.671668	1.533698	0.48892
Br	3.47922	0.0	0.0
