13

C	-0.467969	0.038205	-1.426751
C	0.0	0.0	0.0
Cl	-0.105046	1.617346	-2.131757
H	1.090913	0.0	0.0
H	-0.00999	-0.730447	-2.041578
H	-0.39303	0.819512	0.594826
N	-1.959876	-0.173978	-1.539895
O	-2.65956	0.235137	-0.618011
O	-2.359516	-0.714773	-2.566017
N	-0.44228	-1.261619	0.64161
O	-0.530735	-1.268114	1.863981
O	-0.656914	-2.227651	-0.094031
Br	3.412674	0.0	0.0
