13

C	0.0	0.0	0.0
C	-0.646548	0.210323	-1.333117
F	1.350279	0.0	0.0
H	-1.772065	0.153841	-1.044935
H	-0.325352	-0.951703	0.414337
H	-0.387237	1.161263	-1.787735
N	-0.620014	1.026141	0.846705
O	-0.409156	2.227672	0.553242
O	-1.727458	0.555682	1.343182
N	-0.389433	-0.866769	-2.270206
O	-0.523819	-2.028827	-1.867714
O	-0.09253	-0.568734	-3.436288
H	-2.800466	0.0	0.0
