13

C	0.0	0.0	0.0
C	-0.624945	0.200623	-1.34654
F	1.350232	0.0	0.0
H	-0.339892	1.143626	-1.80334
H	-0.326858	-0.950887	0.414261
H	-1.746543	0.152067	-1.098462
N	-0.629327	1.025707	0.837415
O	-1.739815	0.549491	1.324516
O	-0.428003	2.226726	0.534739
N	-0.329888	-0.889728	-2.264546
O	0.043966	-0.604413	-3.409862
O	-0.50209	-2.045925	-1.861757
H	-2.819899	0.0	0.0
