15

C	0.0	0.0	0.0
C	-0.390678	0.099977	-1.513232
Cl	1.758216	0.0	0.0
H	0.529914	0.29122	-2.06758
H	-0.366464	0.886968	0.499775
N	-0.494698	-1.143139	0.843957
O	-0.470024	-0.909835	2.048869
O	-0.78712	-2.207251	0.326386
N	-1.335007	1.109569	-1.736783
H	-2.148527	0.808481	-1.111169
H	-1.570559	1.146677	-2.720436
N	-0.731915	-1.294482	-2.12265
O	0.220339	-2.064348	-2.247679
O	-1.863045	-1.493579	-2.543143
F	-2.5878	0.0	0.0
