13

C	0.0	0.0	0.0
C	-0.502734	-0.260803	-1.419272
F	1.385646	0.0	0.0
H	0.006399	-1.170863	-1.747542
H	-1.576143	-0.443063	-1.336661
C	-0.410298	1.319955	0.508334
N	-0.569166	2.411384	0.908724
C	-0.412036	-1.080265	0.917088
N	-0.549131	-2.007962	1.623178
N	-0.164053	0.87601	-2.263383
H	-1.010866	1.366316	-2.515071
H	0.297203	0.572963	-3.107446
Cl	-3.483631	0.0	0.0
