13

C	0.0	0.0	0.0
C	-0.476606	-0.289978	-1.419252
F	1.385719	0.0	0.0
H	-0.124147	-1.301263	-1.663243
H	-1.568783	-0.29182	-1.376197
C	-0.408885	1.338968	0.461686
N	-0.587059	2.443713	0.815459
C	-0.418393	-1.046478	0.95131
N	-0.562822	-1.944996	1.693738
N	0.036042	0.743077	-2.302694
H	0.855485	0.435342	-2.804738
H	-0.675379	1.025322	-2.959902
Cl	-3.451977	0.0	0.0
