13

C	0.0	0.0	0.0
C	-0.440284	-0.187574	-1.486868
F	1.381874	0.0	0.0
H	0.244984	0.469619	-2.035639
H	-0.182979	-1.221433	-1.739882
C	-0.443133	1.3071	0.509784
N	-0.690657	2.397378	0.87021
C	-0.455222	-1.091942	0.869933
N	-0.697563	-2.013952	1.5562
N	-1.788692	0.09885	-1.852965
H	-2.020161	1.071894	-1.699889
H	-2.499117	-0.415566	-1.332045
Cl	-4.395894	0.0	0.0
