13

C	0.0	0.0	0.0
C	-0.43865	0.115203	-1.501058
F	1.382214	0.0	0.0
H	0.35733	-0.42757	-2.023426
H	-0.344123	1.173597	-1.764465
C	-0.449835	1.123269	0.830276
N	-0.681758	2.072977	1.480888
C	-0.424108	-1.291265	0.563134
N	-0.628785	-2.370523	0.978017
N	-1.712392	-0.388581	-1.900512
H	-1.76058	-1.389996	-1.762153
H	-2.500449	-0.000312	-1.372361
Cl	-4.215727	0.0	0.0
