13

C	0.0	0.0	0.0
C	-0.443812	-0.199945	-1.479686
F	1.382209	0.0	0.0
H	-0.19311	-1.237017	-1.725026
H	0.242982	0.445091	-2.038628
C	-0.424054	1.318693	0.501533
N	-0.607062	2.418112	0.871169
C	-0.447506	-1.082539	0.886344
N	-0.66763	-1.994013	1.593064
N	-1.791971	0.091913	-1.842577
H	-2.501144	-0.393438	-1.29062
H	-2.00823	1.072528	-1.713088
Cl	-4.358136	0.0	0.0
