13

C	0.0	0.0	0.0
C	-0.402338	0.028962	-1.507989
F	1.3822	0.0	0.0
H	-0.044697	0.998176	-1.872953
H	0.236053	-0.742954	-1.952768
C	-0.449028	1.19328	0.728723
N	-0.713485	2.199935	1.272215
C	-0.447884	-1.238849	0.650626
N	-0.692072	-2.280133	1.135661
N	-1.761789	-0.18239	-1.883595
H	-2.423604	0.433659	-1.414973
H	-2.080721	-1.108912	-1.62824
Cl	-4.296651	0.0	0.0
