14
Coordinates from ORCA-job run
  C   0.67596249635112      0.28653456151829     -0.24999170021885
  C   -0.72400044385022     -0.31348371933226     -0.06458433344419
  F   0.60371821960647      1.62430224856080     -0.34707780801118
  H   -0.62272574884218     -1.35944683622905      0.24079872641731
  C   1.32811256170700     -0.29476683672252     -1.42383169849130
  N   1.83436140163925     -0.77512958077755     -2.36989212937278
  N   1.56153120355164     -0.07910724232402      0.96465958507373
  O   2.19682635758834      0.82581542772895      1.46578241056674
  O   1.54497595255771     -1.26508138906574      1.25254931138458
  C   -1.50603054757858     -0.18783358587979     -1.28445146184042
  N   -2.10797072698265     -0.10642431892231     -2.29006411340069
  N   -1.43222781591553      0.39410628512825      1.08931722105836
  O   -0.73153315301650      0.62382279455308      2.06525196809124
  O   -2.62199975681588      0.62769219176386      0.95153402218747
