14
Coordinates from ORCA-job run
  C   0.68655679102200     -0.17901488070858     -0.39937574951862
  C   -0.75949192185087      0.24547715112531     -0.11610259186986
  F   0.72417216877662     -0.72410807749502     -1.63317817316131
  H   -1.05392003245250      0.97318180092615     -0.87760311591044
  C   1.28571367537849     -1.07072298975261      0.58566571659512
  N   1.80270306144784     -1.80176210218206      1.34768024950615
  N   1.49551557182312      1.13646945220560     -0.43634392034526
  O   1.96007250568208      1.50509499518579      0.63213274613872
  O   1.52919465456470      1.69314432858665     -1.52130811787331
  C   -0.93595354733710      0.75994914696056      1.23089475906303
  N   -1.09491548055203      1.18058517829987      2.31677962303990
  N   -1.66682533225885     -0.95880083106838     -0.32724509996364
  O   -2.55545065498444     -0.81401868674397     -1.15475933844679
  O   -1.41837145925907     -1.94447448533931      0.35276301274633
