14
Coordinates from ORCA-job run
  C   0.63519600421415     -0.24478968277604     -0.47496815472586
  C   -0.76633868910849      0.20199869838342     -0.04724236700191
  F   0.52036092750511     -0.94736526685811     -1.61935512452281
  H   -1.18761638669373      0.80589753506086     -0.85650991666659
  C   1.39880264961462     -0.97431324960245      0.52902979132543
  N   2.04606860898521     -1.55386897509903      1.32083567711452
  N   1.38483922510612      1.06937231533767     -0.80779924734438
  O   2.03399788091209      1.56491455758071      0.10092682110362
  O   1.19658121948891      1.49545884923335     -1.93566509135884
  C   -0.76096973061659      0.92553842215988      1.21370014381522
  N   -0.76898414270776      1.50176872360375      2.23783406585030
  N   -1.68858922752531     -1.00534316471544      0.07814444745434
  O   -1.18386594128894     -2.05185198060326      0.45759608808424
  O   -2.85848239788539     -0.78741678170530     -0.19852713312726
