14
Coordinates from ORCA-job run
  C   0.76377242856008     -0.03003854101410     -0.44402703752760
  C   -0.77089416913061     -0.00428947921733     -0.46501614582128
  F   1.20552854359844      0.72809303831240     -1.48324283439794
  H   -1.10202021558690     -0.65153568652498     -1.28576362176869
  C   1.31650868587763     -1.37744784130046     -0.55589680816292
  N   1.73444146483922     -2.46193258760021     -0.73015288244785
  N   1.31300405754256      0.64437240680023      0.81928051077312
  O   0.52870617510152      1.33401205132705      1.45569987416843
  O   2.50803085493520      0.47897307132123      1.01227102387166
  C   -1.30364086373732      1.33439550121045     -0.66506040379381
  N   -1.72470230873669      2.40812602022735     -0.88571568829617
  N   -1.34922907768954     -0.63503455833196      0.79174060562277
  O   -0.58873138472029     -1.34829384509073      1.43329015248747
  O   -2.52977419085332     -0.41739955011897      1.00459325529279
