14
Coordinates from ORCA-job run
  C   0.67345149956434     -0.21789400373225     -0.41003452472770
  C   -0.76372869998742      0.22224910699147     -0.10554047438140
  F   0.66646218553712     -0.87413221116429     -1.58797076569159
  H   -1.08943695686777      0.89529384964454     -0.90360373456382
  C   1.33009628773147     -1.00041441617487      0.62970762272397
  N   1.90333281232362     -1.61435776957064      1.45198089006930
  N   1.46016386059222      1.09927162437026     -0.60482217181561
  O   1.98698130062371      1.56244773398925      0.39562046096856
  O   1.41548106967090      1.56316332567251     -1.73242995656858
  C   -0.88624116879726      0.83766714129909      1.20560533327594
  N   -0.99283609090571      1.33127748704781      2.26687834013381
  N   -1.68182319478861     -0.98825357120264     -0.18688545511553
  O   -1.31778186020918     -1.98462907335527      0.42141350255254
  O   -2.70312104448745     -0.83168922381496     -0.83991906685989
