14

C	0.0	0.0	0.0
C	-0.470196	-0.46234	-1.40602
Cl	1.75404	0.0	0.0
H	0.434356	-0.5571	-2.014006
H	-0.379375	-0.661151	0.771201
N	-0.381787	1.39968	0.407387
O	-0.595858	1.567476	1.601193
O	-0.332475	2.269249	-0.454526
C	-1.303477	0.474275	-2.190597
N	-1.804113	1.076763	-3.067848
N	-1.018267	-1.803294	-1.253421
H	-1.93702	-1.665768	-0.822617
H	-1.169622	-2.189547	-2.179369
Cl	-3.209924	0.0	0.0
