14

C	0.0	0.0	0.0
C	-0.451106	-0.231424	-1.488754
Cl	1.76033	0.0	0.0
H	0.477324	-0.242761	-2.070065
H	-0.383697	-0.779693	0.649727
N	-0.380121	1.300436	0.661202
O	-0.307094	2.317376	-0.017986
O	-0.619486	1.237357	1.86033
C	-1.219248	0.856033	-2.111066
N	-1.651871	1.702083	-2.80119
N	-1.104699	-1.504424	-1.7207
H	-1.98866	-1.462204	-1.210068
H	-0.530837	-2.249679	-1.341348
Cl	-3.172404	0.0	0.0
