14

C	0.0	0.0	0.0
C	-0.527495	-0.14303	-1.455086
Cl	1.759718	0.0	0.0
H	-0.339049	-1.198477	-1.694667
H	-0.37879	-0.78577	0.650047
N	-0.425601	1.300059	0.631451
O	-0.527338	2.271547	-0.110331
O	-0.585639	1.284052	1.846701
C	0.302284	0.639631	-2.392678
N	0.933835	1.229006	-3.18673
N	-1.903067	0.15081	-1.71847
H	-2.585229	-0.337783	-1.131494
H	-2.09655	1.135154	-1.585649
Cl	-4.48418	0.0	0.0
