14

C	0.0	0.0	0.0
C	-0.469235	0.153358	-1.470159
Cl	1.759502	0.0	0.0
H	-0.097199	-0.766719	-1.943793
H	-0.375864	-0.915557	0.453776
N	-0.460412	1.123877	0.889605
O	-0.480038	0.880605	2.091097
O	-0.739528	2.190728	0.353367
C	0.252757	1.258787	-2.13087
N	0.834319	2.099134	-2.707541
N	-1.867942	0.280398	-1.746549
H	-2.447275	-0.429785	-1.303324
H	-2.240132	1.150464	-1.38634
Cl	-4.404668	0.0	0.0
