17

C	-0.566156	-0.081863	-1.395502
C	0.0	0.0	0.0
F	-1.897295	-0.283884	-1.393574
H	1.091838	0.0	0.0
N	-0.289642	1.184773	-2.194167
O	-1.233683	1.940362	-2.371335
O	0.868119	1.321097	-2.559433
N	0.025406	-1.187432	-2.256476
O	0.858245	-1.931711	-1.759639
O	-0.434036	-1.232081	-3.393849
C	-0.454753	-1.180949	0.87507
H	-0.010323	-1.052598	1.863054
H	-1.541398	-1.217131	0.972478
H	-0.079785	-2.114404	0.459456
C	-0.478663	1.244846	0.602687
N	-0.912022	2.17943	1.167094
Br	3.393819	0.0	0.0
