14

C	-0.494913	-0.039071	-1.425121
C	0.0	0.0	0.0
Cl	-2.248065	0.186024	-1.584065
H	1.094287	0.0	0.0
H	-0.251627	-1.018983	-1.83265
N	0.247469	0.918212	-2.3482
O	-0.291124	1.941638	-2.739983
O	1.3761	0.525245	-2.625918
C	-0.446994	-1.180677	0.701911
N	-0.741068	-2.204779	1.200928
N	-0.341598	1.208975	0.710976
O	-0.199833	2.262662	0.073538
O	-0.583468	1.134671	1.924806
H	2.345598	0.0	0.0
