14

C	-0.495226	0.037914	-1.430919
C	0.0	0.0	0.0
Cl	0.582602	0.948785	-2.524926
H	1.089857	0.0	0.0
H	-1.48124	0.484142	-1.523878
N	-0.592245	-1.3512	-1.994492
O	-1.574466	-1.587719	-2.697887
O	0.324961	-2.126589	-1.752057
C	-0.42826	-1.155013	0.74958
N	-0.755497	-2.11127	1.353853
N	-0.374568	1.206996	0.694137
O	-0.186497	1.222906	1.921989
O	-0.690468	2.200452	0.010357
H	2.303334	0.0	0.0
