14

C	-0.496754	0.066976	-1.429143
C	0.0	0.0	0.0
Cl	0.60382	0.951233	-2.516666
H	1.089861	0.0	0.0
H	-1.474126	0.53887	-1.511126
N	-0.644789	-1.316759	-2.001764
O	-1.702459	-1.552113	-2.589157
O	0.299327	-2.087208	-1.870888
C	-0.436135	-1.168773	0.725607
N	-0.78688	-2.128835	1.309737
N	-0.375341	1.197352	0.71392
O	-0.193559	1.196714	1.943225
O	-0.683073	2.203885	0.044167
H	2.306789	0.0	0.0
