14

C	-0.51214	0.079333	-1.415548
C	0.0	0.0	0.0
Cl	-2.277472	0.222527	-1.527482
H	1.094843	0.0	0.0
H	-0.227911	-0.840493	-1.925085
N	0.163861	1.164951	-2.242934
O	-0.471681	2.135888	-2.619028
O	1.339647	0.915293	-2.478267
C	-0.417988	-1.242259	0.607168
N	-0.671294	-2.296503	1.06225
N	-0.345203	1.141676	0.811898
O	-0.26118	2.245703	0.24962
O	-0.512627	0.968966	2.027033
H	2.347048	0.0	0.0
