14

C	-0.508598	-0.030042	-1.419789
C	0.0	0.0	0.0
Cl	-2.260952	0.22252	-1.563944
H	1.094265	0.0	0.0
H	-0.286829	-1.013592	-1.831232
N	0.240431	0.9131	-2.351824
O	-0.280025	1.948743	-2.734952
O	1.355081	0.494736	-2.647806
C	-0.439447	-1.186065	0.697592
N	-0.75277	-2.209417	1.185933
N	-0.336556	1.203851	0.722704
O	-0.528421	1.123233	1.944444
O	-0.238561	2.259708	0.081908
H	2.351236	0.0	0.0
