15

C	-0.475283	-0.008962	-1.465773
C	0.0	0.0	0.0
F	-1.887368	-0.187013	-1.424891
H	1.091857	0.0	0.0
C	-0.276271	1.322009	-2.075585
N	-0.146981	2.381338	-2.566381
N	0.181255	-0.972145	-2.229136
H	0.309959	-1.853325	-1.756355
H	-0.185974	-1.057389	-3.16301
N	-0.494205	-1.26469	0.654565
O	-0.002216	-2.312365	0.238215
O	-1.338727	-1.182528	1.540311
C	-0.529025	1.149262	0.718085
N	-0.935645	2.084014	1.301398
Br	3.315079	0.0	0.0
