15

C	-0.326866	0.054857	-1.505133
C	0.0	0.0	0.0
F	-0.129251	-1.256769	-1.98247
H	1.092681	0.0	0.0
C	-1.735174	0.3743	-1.821115
N	-2.836037	0.640304	-2.131014
N	0.53303	1.006427	-2.066044
H	0.433049	1.077275	-3.069581
H	1.502896	0.843143	-1.786093
N	-0.563556	-1.257841	0.587284
O	-1.790909	-1.307631	0.666508
O	0.223106	-2.135078	0.914313
C	-0.528052	1.151204	0.710172
N	-0.946202	2.080029	1.295048
Br	3.370668	0.0	0.0
