15

C	-0.533432	-0.054274	-1.440724
C	0.0	0.0	0.0
F	-0.094328	1.140088	-2.028363
H	1.091433	0.0	0.0
C	0.034262	-1.140749	-2.259429
N	0.421237	-1.933838	-3.033815
N	-1.94745	-0.162832	-1.442744
H	-2.358755	0.631205	-0.964587
H	-2.304996	-0.217043	-2.388188
N	-0.425673	-1.21716	0.764394
O	-0.840413	-1.061459	1.909222
O	-0.272706	-2.289476	0.192149
C	-0.517312	1.198162	0.643798
N	-0.952171	2.190997	1.096871
Br	3.283096	0.0	0.0
