15

C	-0.378093	-0.140101	-1.487643
C	0.0	0.0	0.0
F	-1.706448	-0.560631	-1.585013
H	1.092636	0.0	0.0
C	-0.352187	1.194345	-2.139253
N	-0.323364	2.209191	-2.731576
N	0.471462	-1.089481	-2.09998
H	0.526756	-0.951982	-3.099903
H	1.405	-1.078913	-1.689653
N	-0.459088	-1.240661	0.719248
O	0.194051	-2.25472	0.511051
O	-1.447504	-1.147628	1.443358
C	-0.573459	1.17728	0.623575
N	-1.008369	2.14888	1.11998
Br	3.316078	0.0	0.0
