15

C	-0.545534	0.023371	-1.43699
C	0.0	0.0	0.0
F	-1.957404	-0.150407	-1.321787
H	1.093689	0.0	0.0
C	-0.378461	1.375296	-2.011119
N	-0.290674	2.42822	-2.522543
N	0.062887	-0.90428	-2.28543
H	0.050546	-1.836647	-1.89734
H	-0.308237	-0.860222	-3.224228
N	-0.396483	-1.263998	0.718602
O	-0.407797	-2.308295	0.067224
O	-0.612806	-1.178958	1.921402
C	-0.507445	1.138129	0.753192
N	-0.89436	2.077625	1.342324
Br	3.2916	0.0	0.0
