16

C	0.0	0.0	0.0
C	-0.553535	0.059728	-1.400471
F	1.437595	0.0	0.0
H	-1.646207	0.119445	-1.200827
H	-0.313642	-0.88562	-1.912373
N	-0.369725	1.198428	0.706591
H	0.339589	1.365631	1.409815
H	-0.351127	1.956945	0.034482
C	-0.52245	-1.208999	0.729135
H	-0.17807	-2.136917	0.260697
H	-0.194557	-1.188558	1.77401
H	-1.618703	-1.07963	0.657805
N	-0.050323	1.245708	-2.105784
H	0.909724	1.08163	-2.385506
H	-0.599907	1.389696	-2.942752
F	-3.052324	0.0	0.0
