16

C	0.0	0.0	0.0
C	-0.321521	-0.070292	-1.508165
F	1.429457	0.0	0.0
H	0.404343	-0.7724	-1.941297
H	-0.069977	0.92276	-1.909322
N	-0.437137	1.250678	0.539479
H	-0.545709	1.209665	1.543159
H	0.227262	1.970056	0.289146
C	-0.590371	-1.14231	0.776592
H	-0.245661	-1.118021	1.816094
H	-1.681665	-0.993222	0.719017
H	-0.301908	-2.099286	0.333594
N	-1.664382	-0.432814	-1.90532
H	-1.754972	-1.43676	-1.787747
H	-2.371388	-0.056435	-1.21106
F	-3.359297	0.0	0.0
