16

C	0.0	0.0	0.0
C	-0.591013	0.025266	-1.392925
F	1.427208	0.0	0.0
H	-1.661145	-0.179689	-1.193638
H	-0.117234	-0.760532	-1.993439
N	-0.364504	1.219419	0.662433
H	-0.008828	1.971098	0.080903
H	0.11543	1.243396	1.554897
C	-0.527999	-1.184621	0.766095
H	-0.235816	-2.121457	0.278537
H	-0.133768	-1.186289	1.788447
H	-1.622328	-1.035142	0.744881
N	-0.418696	1.348244	-2.027491
H	-1.335932	1.779642	-2.051483
H	-0.105165	1.239587	-2.983868
F	-3.083371	0.0	0.0
