16

C	0.0	0.0	0.0
C	-0.429741	-0.291964	-1.42551
F	1.436503	0.0	0.0
H	-1.517432	-0.396398	-1.36139
H	-0.180462	0.604497	-2.013666
N	-0.529162	1.28269	0.358852
H	-0.379249	1.403268	1.358079
H	-1.553047	1.085429	0.249012
C	-0.405752	-1.111743	0.95029
H	-0.0107	-0.893018	1.949786
H	-1.499222	-1.094533	0.948814
H	-0.021865	-2.07482	0.610079
N	0.204947	-1.516274	-1.92919
H	1.198679	-1.337064	-2.012003
H	-0.14956	-1.701619	-2.85967
F	-2.919744	0.0	0.0
