16

C	0.0	0.0	0.0
C	-0.222963	-0.016198	-1.543174
F	1.39622	0.0	0.0
H	0.406382	0.809327	-1.880488
H	0.239088	-0.945594	-1.89953
N	-0.570703	1.204863	0.542431
H	-0.41238	1.205334	1.550302
H	-1.58995	1.001834	0.420869
C	-0.471476	-1.25204	0.716984
H	-0.063403	-2.160745	0.260316
H	-0.143347	-1.208801	1.761513
H	-1.563064	-1.221443	0.661305
N	-1.536294	0.122477	-2.151759
H	-2.06556	-0.70485	-1.908697
H	-2.063323	0.792716	-1.596959
F	-3.027256	0.0	0.0
