16

C	0.0	0.0	0.0
C	-0.416767	0.043925	-1.470549
F	1.411807	0.0	0.0
H	-0.060889	1.000196	-1.879526
H	-1.510414	0.047539	-1.434241
N	-0.526969	1.11498	0.732761
H	-0.374607	1.952847	0.174138
H	-1.551211	0.911651	0.672326
C	-0.451838	-1.274456	0.682189
H	-1.544705	-1.269564	0.616493
H	-0.014601	-2.15214	0.198879
H	-0.125216	-1.243898	1.724752
N	0.085131	-1.037029	-2.327005
H	-0.432363	-1.878182	-2.105091
H	1.048965	-1.211806	-2.06721
F	-2.921909	0.0	0.0
