16

C	0.0	0.0	0.0
C	-0.408654	-0.015973	-1.47329
F	1.419499	0.0	0.0
H	-1.502272	-0.009681	-1.445725
H	-0.04789	0.922258	-1.9183
N	-0.527809	1.144796	0.684781
H	-1.551516	0.935085	0.622378
H	-0.371391	1.956885	0.090747
C	-0.446384	-1.245981	0.734276
H	-1.539371	-1.246825	0.672564
H	-0.114216	-1.174325	1.772736
H	-0.010087	-2.141241	0.283504
N	0.097288	-1.130618	-2.282157
H	1.061584	-1.292156	-2.010286
H	-0.420386	-1.963334	-2.027254
F	-2.918105	0.0	0.0
