16

C	0.0	0.0	0.0
C	-0.283267	-0.053893	-1.530628
F	1.404604	0.0	0.0
H	0.514295	0.561657	-1.961475
H	-0.090642	-1.088105	-1.84804
N	-0.523644	1.229215	0.535155
H	-1.544616	1.078902	0.446167
H	-0.325559	1.241391	1.533543
C	-0.477687	-1.228239	0.744756
H	-0.060388	-2.143637	0.31477
H	-1.569834	-1.208386	0.662539
H	-0.179827	-1.166123	1.798246
N	-1.558967	0.391396	-2.059996
H	-1.566973	1.402388	-1.975556
H	-2.301664	0.087124	-1.399636
F	-3.098138	0.0	0.0
