14
Coordinates from ORCA-job run
  C   0.68952826715968      0.56591697656383      0.00232869089167
  C   -0.79148773973299      0.18824679395779     -0.16804930338493
  H   0.81740882496958      1.65245254626675     -0.00126486768846
  H   -1.10933355249381      0.61615077689243     -1.12251925756959
  N   1.42072112601774      0.05896489378139     -1.22780240498816
  O   0.99301910401154      0.50070317265117     -2.28679500745619
  O   2.35349737291008     -0.71366958730427     -1.07191762810430
  C   1.24958745697166     -0.01939658977109      1.21291697781900
  N   1.63169463327251     -0.48715344730372      2.22012351717271
  C   -1.57286705191238      0.81961614888125      0.91245487087481
  N   -2.20822109619870      1.28324387791890      1.78551720859924
  N   -0.89084228493424     -1.25325879918578     -0.25393029602539
  H   -0.80952629271909     -1.68357040208502      0.66036186498534
  H   -1.77517876732160     -1.52924636126363     -0.66042436512572
