14
Coordinates from ORCA-job run
  C   0.62496451681602      0.63728113894887      0.01787724425928
  C   -0.81400633085980      0.11169878707345     -0.11904385103275
  H   0.63539465634793      1.72851590566825      0.09445703035349
  H   -1.22329566892054      0.57015809111501     -1.02321407179976
  N   1.34292408658586      0.30640387751191     -1.27802888843940
  O   2.36019723628607     -0.36711852536009     -1.22285991278231
  O   0.81761664749882      0.77509528940455     -2.28002131713643
  C   1.30390447100732      0.02897663666493      1.15397434762172
  N   1.78269474211243     -0.46627613053955      2.10521920118543
  C   -1.60401653515534      0.57130572344399      1.03883642506390
  N   -2.24023372786841      0.89691454676424      1.97159445778965
  N   -0.76280760907555     -1.32180972889297     -0.31438513794932
  H   -0.59079656230791     -1.80744587054711      0.55870207054252
  H   -1.63153992246689     -1.66269974125549     -0.70510759767603
