14
Coordinates from ORCA-job run
  C   0.56173122862189      0.68531659570193     -0.10725096350371
  C   -0.81482873499026      0.00188327427188     -0.15892275428021
  H   0.46777299800428      1.76294940751192     -0.27043611010563
  H   -1.22485414718328      0.21237329475598     -1.15028949881425
  N   1.36306741718258      0.15681701946453     -1.28395065150033
  O   2.43383277257066     -0.38615852113317     -1.06019048388046
  O   0.84098366522503      0.34516592705925     -2.37548879172707
  C   1.24486069854563      0.40650378517174      1.14859283292641
  N   1.72621006038861      0.17703834316687      2.19502881962920
  C   -1.69371766291341      0.61861220474575      0.85277265290878
  N   -2.39739435497601      1.07092185643834      1.67805454379437
  N   -0.62331843076734     -1.42758632291783     -0.03459521147781
  H   -0.44449082198425     -1.69320653934512      0.92730291761988
  H   -1.43885468772413     -1.92963032489208     -0.36062730158916
