14
Coordinates from ORCA-job run
  C   0.66314819192040      0.58862971218425     -0.01860818666887
  C   -0.80521962038099      0.16741131838914     -0.16496077102604
  H   0.77201698880675      1.67839094682694     -0.00849636649199
  H   -1.15730744016167      0.58128130878046     -1.11194429070135
  N   1.43356606886501      0.12342616891126     -1.24644497107623
  O   2.60083263090354     -0.19833406888089     -1.07354224511424
  O   0.83669576288343      0.18975727950477     -2.31079586545101
  C   1.24765460658129      0.01506436558300      1.18815063381370
  N   1.57013914100832     -0.48689858457373      2.19997232157341
  C   -1.59124723035620      0.75988430503040      0.93462819827005
  N   -2.21519579089898      1.14911153887560      1.85132376351808
  N   -0.86321351174334     -1.27665870579335     -0.24710978181252
  H   -1.73271492541181     -1.58730156768714     -0.65858398139581
  H   -0.75815487201576     -1.70276401715070      0.66641154256279
