14
Coordinates from ORCA-job run
  C   0.51999644656058      0.26272800516364     -0.54843110837602
  C   -0.58505388388622     -0.12845437366464      0.45079169495192
  H   0.39412493429590     -0.26329622124639     -1.49736004085918
  H   -0.39282950788929      0.42590328628767      1.37310626630444
  N   1.85460802619016     -0.17980913536380      0.00595421406137
  O   2.50610323362366     -0.96002555465548     -0.67796788172167
  O   2.14883848128803      0.26871850004005      1.10835008619528
  C   0.53851816040125      1.70583271942067     -0.75018930664081
  N   0.57023429389016      2.86823523040439     -0.91262327862686
  C   -0.48333082000721     -1.57073871982584      0.74592460868754
  N   -0.45783536262909     -2.72936861218731      0.94100493664260
  N   -1.85810334044611      0.28909896578533     -0.09924925870349
  H   -2.54888190441543      0.39692183936245      0.63159153199627
  H   -2.20538875697638     -0.38474592952075     -0.77090246391140
