14
Coordinates from ORCA-job run
  C   0.53767255713527      0.13971111156403     -0.48442710672112
  C   -0.64473013090821     -0.17569529906638      0.47850696596057
  H   0.53120154665041     -0.53081376393073     -1.34643337803536
  H   -0.49412935665184      0.44179871721079      1.36967321463355
  N   1.83860915104259     -0.10784593128018      0.24054545725949
  O   2.55333931463401     -1.00122786211451     -0.19789981851806
  O   2.03840498020124      0.58947726721802      1.22944682715296
  C   0.46681708392431      1.53380914232138     -0.90013222822146
  N   0.34324866877003      2.65604233252419     -1.22409088190645
  C   -0.54279540121979     -1.58730305711182      0.87096602123012
  N   -0.44316055858254     -2.72416839755758      1.14660426099240
  N   -1.95591713274142      0.09644573078257     -0.05669779987450
  H   -2.13575386060394     -0.41791790136727     -0.90949273061818
  H   -2.09080686165013      1.08668791080750     -0.21656880333397
