17

C	0.0	0.0	0.0
C	-0.540732	0.05928	-1.444045
Br	1.959184	0.0	0.0
H	-1.640868	0.045143	-1.337536
C	-0.432085	1.269065	0.731489
H	-0.079941	1.21274	1.764799
H	-0.019193	2.170298	0.274188
H	-1.524298	1.297769	0.721597
N	-0.467589	-1.230992	0.574469
H	-0.223808	-1.242298	1.559134
H	-1.49073	-1.211864	0.505169
N	-0.167305	-1.168686	-2.231823
O	0.884744	-1.13956	-2.867774
O	-0.946295	-2.112146	-2.169142
C	-0.104655	1.242477	-2.171068
N	0.189278	2.210945	-2.766939
Cl	-3.595113	0.0	0.0
