17

C	0.0	0.0	0.0
C	-0.500081	-0.008494	-1.456497
Br	2.029091	0.0	0.0
H	-1.598366	-0.153268	-1.359238
C	-0.433559	1.292095	0.673494
H	-0.126739	1.261215	1.721482
H	-1.525597	1.330533	0.617734
H	0.020435	2.162912	0.203875
N	-0.507912	-1.08993	0.692468
H	-0.394602	-1.055063	1.690639
H	-0.364132	-1.996301	0.281638
N	0.051445	-1.163742	-2.257614
O	0.624014	-0.920814	-3.314934
O	-0.131107	-2.286587	-1.793752
C	-0.20173	1.230923	-2.160359
N	-0.012879	2.249853	-2.712767
Cl	-3.677956	0.0	0.0
