17

C	0.0	0.0	0.0
C	-0.541506	-0.098524	-1.441639
Br	1.959915	0.0	0.0
H	-1.642026	-0.107167	-1.332736
C	-0.430687	1.34041	0.591404
H	-1.523366	1.372701	0.579344
H	-0.014745	2.186367	0.040814
H	-0.078641	1.394025	1.624682
N	-0.463989	-1.163278	0.704774
H	-1.486999	-1.160903	0.631605
H	-0.224848	-1.064839	1.685719
N	-0.160194	-1.399896	-2.09621
O	-0.922498	-2.342673	-1.920119
O	0.883055	-1.424165	-2.747976
C	-0.112284	1.003482	-2.289493
N	0.200786	1.909831	-2.966864
Cl	-3.598948	0.0	0.0
