17

C	0.0	0.0	0.0
C	-0.488989	-0.144928	-1.492011
Br	1.990829	0.0	0.0
H	0.128483	-0.946285	-1.93453
C	-0.286915	1.243304	0.826408
H	0.065325	1.053659	1.851167
H	-1.307544	1.589307	0.871549
H	0.335334	2.065959	0.48359
N	-0.38082	-1.183212	0.627519
H	0.012315	-1.247285	1.567019
H	-0.004952	-2.006055	0.144857
N	0.017656	1.05534	-2.31981
O	-0.153282	2.181853	-1.87746
O	0.534058	0.790421	-3.403335
C	-1.863422	-0.434046	-1.936466
N	-2.529008	-0.906636	-2.809044
Cl	-3.053664	0.0	0.0
