17

C	0.0	0.0	0.0
C	-0.543529	0.07892	-1.44192
Br	1.958197	0.0	0.0
H	-1.643786	0.063265	-1.332607
C	-0.429985	1.259875	0.749248
H	-0.017585	2.166115	0.300649
H	-1.522843	1.290488	0.743245
H	-0.074962	1.191513	1.780458
N	-0.466687	-1.239296	0.557313
H	-1.489988	-1.224704	0.485377
H	-0.228227	-1.259865	1.543299
N	-0.172348	-1.136782	-2.248543
O	0.880908	-1.098467	-2.883274
O	-0.952698	-2.080104	-2.201827
C	-0.110585	1.272219	-2.153343
N	0.187483	2.249921	-2.731529
Cl	-3.598824	0.0	0.0
