17

C	0.0	0.0	0.0
C	-0.49415	-0.159596	-1.471018
Br	1.968529	0.0	0.0
H	-1.590517	-0.268683	-1.370471
C	-0.438007	1.367936	0.505906
H	-1.528277	1.419882	0.449697
H	-0.12462	1.449858	1.547398
H	0.010293	2.17581	-0.072065
N	-0.474317	-1.002229	0.89942
H	-1.487335	-0.863762	0.971851
H	-0.322903	-1.925627	0.510877
N	0.032896	-1.413617	-2.108538
O	0.785201	-1.313509	-3.073494
O	-0.323936	-2.47248	-1.59566
C	-0.169861	0.975689	-2.322152
N	0.036738	1.911034	-3.002146
Cl	-3.56868	0.0	0.0
