17

C	0.0	0.0	0.0
C	-0.256478	0.319314	-1.514931
Br	1.956109	0.0	0.0
H	0.231586	-0.495014	-2.052238
C	-0.46799	1.034986	1.007133
H	-0.019994	2.012205	0.84092
H	-1.557068	1.093443	0.935036
H	-0.19686	0.681934	2.006328
N	-0.523879	-1.325856	0.186433
H	-0.30911	-1.624821	1.133135
H	-1.548371	-1.214437	0.136407
N	0.468407	1.568823	-1.985291
O	1.263077	1.424688	-2.909853
O	0.179393	2.631479	-1.446148
C	-1.591009	0.472662	-2.109731
N	-2.381523	0.657864	-2.963089
Cl	-3.590044	0.0	0.0
