17

C	-0.359695	-0.121006	-1.49024
C	0.0	0.0	0.0
F	-1.640896	-0.55887	-1.643251
H	1.095085	0.0	0.0
N	-0.318414	1.28888	-2.08055
O	0.795596	1.726646	-2.337912
O	-1.384328	1.883524	-2.200764
N	0.505599	-0.930434	-2.274067
H	1.46818	-0.654971	-2.073406
H	0.394692	-1.890235	-1.963844
C	-0.431585	-1.237671	0.644635
N	-0.778495	-2.233023	1.16328
C	-0.552374	1.228786	0.717439
H	-1.63774	1.300257	0.618364
H	-0.289931	1.175132	1.775143
H	-0.091094	2.129251	0.308639
Br	3.439683	0.0	0.0
