17

C	-0.533175	-0.009567	-1.421186
C	0.0	0.0	0.0
F	-0.021986	1.041779	-2.122398
H	1.093191	0.0	0.0
N	-0.008769	-1.241798	-2.208161
O	0.724743	-2.042885	-1.64705
O	-0.424054	-1.317982	-3.36558
N	-1.941997	0.051268	-1.497338
H	-2.366286	-0.635307	-0.886197
H	-2.236839	-0.100679	-2.454336
C	-0.530343	-1.153262	0.718526
N	-1.07097	-2.044335	1.262134
C	-0.411985	1.299859	0.707911
H	0.069629	1.326271	1.686468
H	-0.042895	2.145556	0.127842
H	-1.493293	1.384036	0.824396
Br	3.460156	0.0	0.0
