17

C	-0.516281	-0.005216	-1.433114
C	0.0	0.0	0.0
F	-1.907517	0.223607	-1.409322
H	1.092409	0.0	0.0
N	-0.02447	1.184219	-2.261181
O	-0.386211	1.16791	-3.435959
O	0.651664	2.0525	-1.729096
N	-0.162933	-1.139827	-2.154469
H	-0.295036	-1.998298	-1.641098
H	-0.593075	-1.154074	-3.06778
C	-0.443024	-1.261135	0.598865
N	-0.827508	-2.270221	1.062317
C	-0.507196	1.162586	0.860134
H	-1.596772	1.172841	0.915023
H	-0.098476	1.047351	1.865239
H	-0.144753	2.104801	0.456941
Br	3.457506	0.0	0.0
