17

C	-0.495356	-0.012676	-1.433152
C	0.0	0.0	0.0
F	0.118977	1.028419	-2.108567
H	1.092433	0.0	0.0
N	-0.044961	-1.255187	-2.200285
O	-0.394744	-1.279676	-3.379363
O	0.599882	-2.111087	-1.613774
N	-1.897625	0.014679	-1.563885
H	-2.284574	0.80179	-1.062253
H	-2.147014	0.062866	-2.544338
C	-0.521533	-1.136309	0.751391
N	-0.95922	-1.991442	1.426913
C	-0.398354	1.310142	0.699134
H	0.131162	1.359356	1.651318
H	-1.471684	1.376791	0.900609
H	-0.074713	2.157195	0.093626
Br	3.455348	0.0	0.0
