17

C	-0.249936	0.002677	-1.500529
C	0.0	0.0	0.0
F	-0.125557	-1.300104	-1.987042
H	1.099017	0.0	0.0
N	-1.697411	0.317742	-1.895997
O	-1.88101	0.692611	-3.051178
O	-2.575791	0.11102	-1.064144
N	0.586597	0.924011	-2.124059
H	1.548324	0.796884	-1.803973
H	0.511218	0.873541	-3.130286
C	-0.51386	-1.193377	0.655895
N	-0.913178	-2.13841	1.226656
C	-0.43624	1.284494	0.707775
H	0.025643	1.310796	1.696238
H	-1.519654	1.341762	0.814282
H	-0.07326	2.14318	0.141924
Br	3.439677	0.0	0.0
