17

C	-0.285649	-0.00367	-1.510136
C	0.0	0.0	0.0
F	-0.27571	-1.291682	-1.952973
H	1.09829	0.0	0.0
N	-1.715917	0.501525	-1.742518
O	-2.618143	-0.309825	-1.575658
O	-1.861946	1.695316	-2.000372
N	0.593242	0.771931	-2.294087
H	1.543876	0.658227	-1.939189
H	0.324975	1.745115	-2.279301
C	-0.543455	-1.163588	0.684302
N	-1.003772	-2.061224	1.286202
C	-0.432588	1.29596	0.687513
H	-1.519949	1.391785	0.741572
H	-0.02512	1.307853	1.699285
H	-0.022449	2.154472	0.153514
Br	3.428476	0.0	0.0
