17

C	-0.511048	0.01925	-1.429773
C	0.0	0.0	0.0
F	-0.033733	1.115942	-2.081464
H	1.092415	0.0	0.0
N	0.07452	-1.161286	-2.249145
O	0.764548	-1.997246	-1.682904
O	-0.262531	-1.172444	-3.433677
N	-1.921042	0.023567	-1.532174
H	-2.189834	-0.091811	-2.502366
H	-2.325797	-0.712287	-0.966641
C	-0.524193	-1.177024	0.683321
N	-1.029038	-2.097036	1.211584
C	-0.429593	1.278615	0.732998
H	-0.031969	2.139784	0.196628
H	-1.514435	1.365691	0.807753
H	0.010722	1.270117	1.731134
Br	3.456356	0.0	0.0
