17

C	0.0	0.0	0.0
C	-0.613653	-0.243717	-1.410818
Cl	1.802371	0.0	0.0
H	-1.598898	-0.684815	-1.221852
C	-0.490823	1.312365	0.591537
H	-0.105118	1.418155	1.60668
H	-0.135607	2.148305	-0.01223
H	-1.584129	1.287577	0.608597
C	-0.35733	-1.102031	0.903744
N	-0.568812	-1.951188	1.688063
N	0.219	-1.299397	-2.098452
O	0.961154	-0.950371	-3.010804
O	0.120555	-2.440496	-1.651129
N	-0.78372	0.873865	-2.263188
H	0.000894	1.510297	-2.261935
H	-1.648328	1.337625	-2.011375
Br	-3.781219	0.0	0.0
