17

C	0.0	0.0	0.0
C	-0.611303	-0.025397	-1.426992
Cl	1.788886	0.0	0.0
H	-1.632062	-0.40324	-1.289634
C	-0.490823	1.217553	0.77277
H	-0.112391	1.17206	1.794927
H	-1.58433	1.201642	0.779751
H	-0.122505	2.12871	0.299235
C	-0.371572	-1.217471	0.735493
N	-0.56506	-2.167433	1.399624
N	0.139438	-1.053112	-2.236787
O	0.95581	-0.655571	-3.063129
O	-0.097704	-2.230819	-1.973266
N	-0.66655	1.199463	-2.13727
H	-1.491665	1.70796	-1.846376
H	0.170938	1.75743	-2.045515
Br	-3.791878	0.0	0.0
