18

C	-0.406216	-0.016094	-1.487308
C	0.0	0.0	0.0
Br	0.265898	1.585253	-2.326988
H	1.090577	0.0	0.0
C	0.216463	-1.220845	-2.161479
H	-0.171926	-2.130523	-1.706734
H	1.294941	-1.170201	-2.013003
H	-0.012339	-1.219161	-3.228809
N	-1.925317	-0.103437	-1.672718
O	-2.422376	-1.14555	-1.24008
O	-2.545517	0.786881	-2.226837
N	-0.42542	-1.09273	0.812389
H	-1.288672	-1.515929	0.506079
H	0.321812	-1.764764	0.908308
N	-0.530888	1.255494	0.640896
O	0.248902	2.007613	1.206151
O	-1.753353	1.400854	0.582112
Br	3.482362	0.0	0.0
