18

C	-0.44848	-0.00154	-1.452441
C	0.0	0.0	0.0
Br	-2.401908	0.064436	-1.591714
H	1.090951	0.0	0.0
C	0.144257	1.073381	-2.348358
H	1.229766	1.066106	-2.241427
H	-0.126972	0.876293	-3.388999
H	-0.232041	2.054679	-2.06624
N	0.037122	-1.356229	-2.009916
O	1.25285	-1.483702	-1.971956
O	-0.757505	-2.172966	-2.448748
N	-0.507122	-1.117576	0.692325
H	-1.506488	-1.053011	0.844244
H	-0.035733	-1.237798	1.580348
N	-0.390032	1.343968	0.595373
O	-1.310922	1.369866	1.418321
O	0.326316	2.304893	0.304544
Br	2.749115	0.0	0.0
