18

C	-0.446411	0.00144	-1.462694
C	0.0	0.0	0.0
Br	-2.416879	-0.0465	-1.609732
H	1.088794	0.0	0.0
C	0.098515	1.12853	-2.320849
H	-0.186078	0.961009	-3.361815
H	1.187336	1.142927	-2.213788
H	-0.299201	2.085813	-1.988573
N	0.068916	-1.297831	-2.118447
O	-0.428969	-1.644858	-3.185579
O	0.99873	-1.862111	-1.547343
N	-0.485321	-1.030805	0.845291
H	0.038047	-1.880001	0.684082
H	-1.482232	-1.181542	0.761268
N	-0.367994	1.311479	0.626142
O	0.328723	2.291067	0.315939
O	-1.460473	1.397388	1.192663
Br	2.920412	0.0	0.0
