18

C	-0.440091	-0.001438	-1.469973
C	0.0	0.0	0.0
Br	-2.385734	0.089949	-1.63962
H	1.089761	0.0	0.0
C	0.191982	1.055623	-2.361199
H	-0.072578	0.873716	-3.406402
H	1.276057	1.019121	-2.240992
H	-0.158886	2.045856	-2.075919
N	0.02685	-1.367279	-2.013683
O	-0.769269	-2.155992	-2.504341
O	1.232061	-1.552805	-1.898492
N	-0.487257	-1.042591	0.821963
H	0.064458	-1.883912	0.721031
H	-1.475821	-1.225695	0.711613
N	-0.400382	1.327034	0.574615
O	0.345906	2.278556	0.328332
O	-1.403003	1.375586	1.288098
Br	2.750943	0.0	0.0
