18

C	-0.506922	0.084155	-1.4493
C	0.0	0.0	0.0
Br	-2.398545	0.586651	-1.485213
H	1.090964	0.0	0.0
C	0.302162	0.985011	-2.358874
H	1.360595	0.755627	-2.210287
H	0.127541	2.025672	-2.096907
H	0.013767	0.813784	-3.398736
N	-0.380201	-1.352038	-1.981267
O	-1.37738	-2.037588	-2.151185
O	0.778211	-1.693089	-2.18455
N	-0.4744	-1.154398	0.66527
H	0.16208	-1.395634	1.412842
H	-1.40492	-1.018317	1.037712
N	-0.368153	1.300972	0.718578
O	-1.043984	1.212603	1.742383
O	0.051812	2.349305	0.240597
Br	3.417262	0.0	0.0
