18

C	-0.482861	0.009884	-1.47037
C	0.0	0.0	0.0
Br	0.109548	-1.672973	-2.28267
H	1.089827	0.0	0.0
C	-1.968389	0.161739	-1.689534
H	-2.310135	1.11467	-1.287118
H	-2.201243	0.122834	-2.75289
H	-2.488333	-0.652094	-1.182133
N	0.263162	1.132636	-2.20553
O	1.478616	1.029105	-2.312024
O	-0.42769	2.044176	-2.668607
N	-0.512432	-1.015227	0.854168
H	-1.521609	-1.078585	0.848358
H	-0.080329	-1.903825	0.642495
N	-0.395856	1.307739	0.623548
O	-1.549575	1.400917	1.068005
O	0.31683	2.287098	0.361907
Br	2.923613	0.0	0.0
