19

C	-0.463121	0.032597	-1.47488
C	0.0	0.0	0.0
Cl	-0.063713	1.657597	-2.155388
H	1.094504	0.0	0.0
C	0.374385	-0.989928	-2.231488
H	0.129688	-1.997086	-1.88179
H	1.436616	-0.805606	-2.056772
H	0.159625	-0.931982	-3.301275
C	-1.953011	-0.180647	-1.698342
H	-2.54506	0.576781	-1.188103
H	-2.259394	-1.167753	-1.339675
H	-2.162844	-0.1375	-2.769551
N	-0.398408	-1.163964	0.739357
H	-1.286392	-1.553444	0.464175
H	0.339076	-1.852846	0.721882
N	-0.538459	1.196149	0.735889
O	-1.746313	1.170732	0.993276
O	0.225012	2.105423	1.034619
Cl	3.390312	0.0	0.0
