19

C	-0.469863	0.172148	-1.471936
C	0.0	0.0	0.0
Cl	-0.125236	-1.410375	-2.285409
H	1.091476	0.0	0.0
C	-1.963275	0.426838	-1.614616
H	-2.235759	0.413221	-2.672164
H	-2.223116	1.403509	-1.199856
H	-2.55812	-0.331739	-1.100213
C	0.364896	1.226056	-2.183576
H	0.130229	1.228387	-3.251075
H	0.150191	2.213319	-1.770667
H	1.426696	1.017944	-2.034539
N	-0.452881	-1.140245	0.727642
H	-1.358225	-1.471859	0.425276
H	0.235792	-1.872687	0.627084
N	-0.482791	1.238385	0.725726
O	-1.57072	1.165771	1.299888
O	0.204809	2.255204	0.65555
Cl	3.37891	0.0	0.0
