19

C	-0.520228	0.084808	-1.453928
C	0.0	0.0	0.0
Cl	-0.291749	-1.585777	-2.138885
H	1.099717	0.0	0.0
C	-2.009048	0.380248	-1.50466
H	-2.543123	-0.309929	-0.8497
H	-2.191389	1.408108	-1.18056
H	-2.380405	0.26985	-2.52586
C	0.319753	1.000411	-2.332754
H	0.045945	0.848175	-3.380061
H	0.149423	2.041347	-2.063681
H	1.379234	0.772731	-2.194134
N	-0.577203	-1.125407	0.716221
H	-0.45666	-0.939641	1.70527
H	0.001428	-1.926452	0.495017
N	-0.382345	1.251082	0.754344
O	-0.773653	1.134209	1.916649
O	-0.240372	2.332493	0.188199
Cl	3.339673	0.0	0.0
