14
Coordinates from ORCA-job run
  C   0.71262617399957     -0.28782753988897     -0.41224015926084
  C   -0.74646694035334      0.15198568358111     -0.23404896542043
  Cl  1.15539897567269     -0.08725177223399     -2.13395386544509
  H   -0.80524400947169      1.20921261273336     -0.51319531641143
  H   0.78828374958351     -1.35917709975393     -0.20493541794655
  C   1.66066482762138      0.50403234083438      0.46474859857026
  H   1.39090157076789      0.37187078928845      1.51195410966495
  H   1.60320279927019      1.56676200617627      0.21834709717247
  H   2.68699005205187      0.17002525132870      0.30669445495987
  N   -1.12515539562911      0.02732848445699      1.16924777047285
  H   -1.28026564230440     -0.94843560697850      1.39775902828969
  H   -1.99601409495398      0.51713708506616      1.33578399012953
  C   -1.64146614815827     -0.60232975915079     -1.13515793820990
  N   -2.40145591809631     -1.23333247545923     -1.77100338656540
