14
Coordinates from ORCA-job run
  C   0.69206953268204      0.37383548055981     -0.33414315495634
  C   -0.72927914221786     -0.18586330454913     -0.28493546634645
  Cl  0.72858113540843      1.97185288395059      0.47755333223334
  H   -0.69286094401892     -1.15133860433951     -0.80392268984192
  H   0.91028646261346      0.56833307768693     -1.38599467301758
  C   1.71814854647289     -0.54640994050662      0.29453487737477
  H   2.71826704802762     -0.12351017620527      0.19359354760065
  H   1.51217585495284     -0.69344657101308      1.35617006406946
  H   1.70215778198995     -1.51837581784535     -0.20726148476505
  N   -1.64632059593360      0.66841276158978     -1.02050748519770
  H   -2.56266605075191      0.23877571514114     -1.06262376569735
  H   -1.74219566637166      1.55707283893997     -0.54281284551772
  C   -1.13061082580276     -0.46046592639666      1.11121450749175
  N   -1.47875313705052     -0.69587241701262      2.20813523657013
