14
Coordinates from ORCA-job run
  C   0.73647620543174      0.02392958417963     -0.68051673629126
  C   -0.79196807762634      0.07998578874208     -0.52789111422021
  Cl  1.28457394766160      1.51737024913557     -1.49281251621098
  H   -1.21148719216515      0.35502267339663     -1.49983831722861
  H   0.98063108516059     -0.79347035999655     -1.36293616065427
  C   1.45881518471019     -0.14695101805358      0.64078659680571
  H   1.28528566550595      0.71929110111894      1.27992597256757
  H   1.11454134677373     -1.05374288923553      1.14672934771097
  H   2.53271258594435     -0.23570720351276      0.47492113030050
  N   -1.19659776177401      1.08602943317456      0.43890209211696
  H   -1.11327042033473      0.73106184394269      1.38328647086239
  H   -2.16319624310936      1.34599206997700      0.29139343961374
  C   -1.27185674893001     -1.28018813409047     -0.20187148244099
  N   -1.64365957724854     -2.35062313877822      0.10892127706848
