14
Coordinates from ORCA-job run
  C   0.75641173553761      0.02817947603947     -0.65854246532016
  C   -0.77652043979959      0.06069042415514     -0.55209119201903
  Cl  1.30383855353566      1.52168067486417     -1.47145757650723
  H   -1.17125044083552      0.31679103387093     -1.53953552225439
  H   1.03420698281900     -0.79232377483858     -1.32419741376627
  C   1.44164719865757     -0.11608614756978      0.68540256904069
  H   1.09839313174127     -1.02380637549136      1.19059331548042
  H   1.23349989117823      0.75340986776661      1.30981539636398
  H   2.52157666546362     -0.18704831672363      0.55251104227684
  N   -1.22623177898369      1.07121832716439      0.38999990449646
  H   -2.19069480585903      1.31646216556042      0.20822499935293
  H   -1.16883687811949      0.72748619472738      1.34039809770116
  C   -1.24481262875089     -1.30298892385272     -0.22268627294057
  N   -1.61022718658474     -2.37466462567245      0.09156511809517
