13
Coordinates from ORCA-job run
  C   0.62015307616650      0.17373840034579     -0.32950463421905
  C   -0.74398128817728     -0.49636520651982     -0.48407121094506
  Cl  1.58796230393453     -0.24075944084156     -1.84312307652779
  H   -1.17580419035547     -0.19137329399683     -1.43849541669466
  H   -0.56022714228292     -1.58191073162251     -0.53402536591356
  C   0.49480270282393      1.63317791049141     -0.30775465529944
  N   0.42946948791429      2.80516427059071     -0.30633394189970
  N   1.24478179979808     -0.27186791132289      0.86781286529664
  H   2.10577310851990      0.22639052491071      1.05625815416768
  H   1.44023945333154     -1.26499524318357      0.81360095198379
  N   -1.59704553494415     -0.04548096106698      0.59566082780689
  H   -1.28672777097607     -0.42947416811195      1.47739364227576
  H   -2.55739600575287     -0.31524414967252      0.43258185996849
