13
Coordinates from ORCA-job run
  C   0.62472409678492      0.23971033845111     -0.26696230598068
  C   -0.60472341595561     -0.56649328895076      0.16879822594279
  Cl  0.57311192464747      0.35835663155310     -2.06700826681599
  H   -0.48995899641324     -1.57084593919662     -0.26833800222792
  H   -0.53827636713894     -0.66535776555166      1.25727377043363
  C   0.55290511114563      1.59596580132762      0.28787785931799
  N   0.52755110490682      2.65239843701658      0.79911183210825
  N   1.89460190819424     -0.34133503638651      0.09259765630542
  H   2.03694687471715     -0.27907090706005      1.09415028545986
  H   1.92680178782718     -1.31240139305256     -0.19633347538097
  N   -1.83365892386637      0.12076291310226     -0.16562478132134
  H   -2.59964366921155     -0.21191045756484      0.40298049447093
  H   -2.07038143563772     -0.01877933368768     -1.13852329231198
