13
Coordinates from ORCA-job run
  C   0.62802064474348      0.25608576016967     -0.20617884172813
  C   -0.90179133931681      0.14786243411780     -0.20666774915992
  Cl  1.23564946566704     -0.95509502008195     -1.48943733277301
  H   -1.26642438343133      0.94868444894232      0.44151715316133
  H   -1.26346735746235      0.32683451873284     -1.22456164673214
  C   1.05337521730830      1.56972265851657     -0.69322773517420
  N   1.35448133845950      2.63956468621069     -1.07249052418833
  N   1.12077066385213      0.00667463808017      1.08461868337409
  H   2.12946229445594     -0.03949464719795      1.12564978581360
  H   0.68535338682831     -0.83530218599769      1.44528240139119
  N   -1.27972280840163     -1.13582083849202      0.36282726606898
  H   -1.30044408114149     -1.84919805504464     -0.35376984521334
  H   -2.19526304156108     -1.08051839795581      0.78643838515988
