13
Coordinates from ORCA-job run
  C   0.57637043380399      0.30749850394126     -0.27326661924114
  C   -0.91761441110923      0.18429381686523      0.04905643033591
  Cl  0.82446733191090     -0.53794566189850     -1.91959369746335
  H   -1.48997543535500      0.60927732178082     -0.78204284171124
  H   -1.09037050251371      0.79118424981203      0.94146582148513
  C   0.94206164746079      1.70558983206021     -0.50785450032191
  N   1.20058736475015      2.83925994448676     -0.67226076151860
  N   1.33462342239505     -0.25037640114052      0.76813490658234
  H   0.95272497633396     -1.16017286108329      1.00253079327816
  H   2.32332926827807     -0.29533866289901      0.56357078139679
  N   -1.21646626575992     -1.20603950055247      0.35463711231666
  H   -2.01606103236404     -1.26963825111599      0.96896220108475
  H   -1.42267679783100     -1.71759233025653     -0.49333962622349
