13
Coordinates from ORCA-job run
  C   0.59217154836769      0.21916116731421     -0.10514235534724
  C   -0.65406337387932     -0.62100508124121      0.16939724502134
  Cl  0.63839342276404      0.52188015057509     -1.93209290067727
  H   -0.66595125964537     -0.79355765590149      1.24842501029705
  H   -0.50121119176366     -1.59062148866948     -0.32930378873023
  C   0.48278890490797      1.54027059930388      0.51697208493531
  N   0.43990319589248      2.58477729463704      1.05091597789112
  N   1.75041929231152     -0.44338018947515      0.37272388470951
  H   1.85830686909571     -1.34687941739448     -0.07190817778873
  H   2.58878190044518      0.10448986881250      0.22641778640774
  N   -1.85384989708600      0.08952413022190     -0.21617153538514
  H   -2.02090290207456      0.00803651175104     -1.20971980813220
  H   -2.65678650933567     -0.27369588993387      0.27748657679874
