13
Coordinates from ORCA-job run
  C   0.70317119319432      0.03483817518406     -0.43328464340573
  C   -0.71301846899109     -0.54921919771987     -0.47220451136609
  Cl  1.54132220717946     -0.41093330561234     -1.95709002824393
  H   -1.21201817386167     -0.20184318966139     -1.38394202254345
  H   -0.58947703162814     -1.63234914495428     -0.53259310557130
  C   0.61239165010083      1.50843215243882     -0.40635224315862
  N   0.49977999827805      2.67484675706839     -0.31249434561478
  N   1.40250429612274     -0.52771365721627      0.68232216640946
  H   2.28039783542169     -0.05217425962342      0.85029533334949
  H   0.79464731779378     -0.43871997023107      1.49121364698894
  N   -1.38715056059675     -0.20142761943019      0.77147946022698
  H   -2.08010050401407     -0.89658751573059      1.01158622787405
  H   -1.85244975899915      0.69385077548815      0.69206406505499
