13
Coordinates from ORCA-job run
  C   0.59414339690025      0.34711921360836     -0.16792041726529
  C   -0.90968012130502      0.05123795931631     -0.21979934871518
  Cl  1.37264653233557     -0.67670984599928     -1.52009237600520
  H   -1.38329526713741      0.74640142915534      0.47796869860129
  H   -1.27234128845666      0.26483920153293     -1.23064750534310
  C   0.86131877543024      1.73689855369773     -0.54341597304944
  N   1.03473860149174      2.86177204691984     -0.83286134677648
  N   1.08987276661725      0.06130697227913      1.11425141247693
  H   0.75522870769908     -0.85235808951226      1.40002776004292
  H   2.09563292307039      0.13511321832929      1.17976164440481
  N   -1.13379901513615     -1.31035771586044      0.23959495972505
  H   -2.05974689754406     -1.40398093620344      0.63267102462814
  H   -1.04471911396522     -1.96228200726351     -0.52853853272445
