13
Coordinates from ORCA-job run
  C   0.58509761349982      0.13538138007187     -0.25650603764662
  C   -0.68750526786476     -0.61719232346142      0.12690969492854
  Cl  0.59638076984543      0.37741814850034     -2.03647822288074
  H   -0.63163646448919     -1.58666489482807     -0.38414295689741
  H   -0.63689777178817     -0.79887776746023      1.20610776817791
  C   0.59471719232446      1.47322340556957      0.36198386081146
  N   0.69266258334251      2.49714128716094      0.93014073184150
  N   1.73774172838926     -0.66878389218384      0.07733107892315
  H   1.78264576985841     -0.78503278051590      1.08472605751162
  H   2.58775477646565     -0.20650630249584     -0.22546320659111
  N   -1.85984358163722      0.18609302018155     -0.15558714841234
  H   -2.64504546360866     -0.11764241009442      0.40281482288232
  H   -2.11607188433754      0.11044312955544     -1.13083644264828
