13
Coordinates from ORCA-job run
  C   0.54650089136780      0.38894322022555     -0.22698411957014
  C   -0.93401772109118      0.07546499118174      0.02102672346157
  Cl  0.94859723410265     -0.30157705157517     -1.91389903274879
  H   -1.20652015118036      0.59305472285689      0.94424590647640
  H   -1.52147185441319      0.49291233440531     -0.80336085498033
  C   0.75574717929471      1.83289244338303     -0.34920429961382
  N   0.88656761504504      2.99752999995240     -0.42423242047250
  N   1.32637432930527     -0.15376583623088      0.80650200383817
  H   1.04471917769804     -1.11563577969988      0.96126469547665
  H   2.32029229241445     -0.07013898981020      0.64383657942226
  N   -1.08140023805633     -1.35787067079192      0.21781250934164
  H   -1.88822999199927     -1.55580101795640      0.79255124949991
  H   -1.19815876248763     -1.82700836594047     -0.67055894013101
