13
Coordinates from ORCA-job run
  C   0.60258190653647      0.09416104670252     -0.23514134260013
  C   -0.68620449798169     -0.59532551954689      0.20756877246382
  Cl  0.75378510532915     -0.05976620923834     -2.01899666759579
  H   -0.57591270619751     -1.65131871037644     -0.06988627283151
  H   -0.72131702597922     -0.53381807395978      1.30085385688459
  C   0.54311437153792      1.53497050432789      0.07019182718674
  N   0.57937939914746      2.66118379179732      0.40353040323877
  N   1.73557086253916     -0.58017658762152      0.35407304849397
  H   2.60067107735814     -0.16573678777296      0.02591581205469
  H   1.69768921614752     -0.47666339183045      1.36311643317863
  N   -1.84305353545102      0.08826908266755     -0.33416950684214
  H   -2.01913803104385     -0.20805258073154     -1.28469327705976
  H   -2.66616614194253     -0.10772656441735      0.21763691342812
