13
Coordinates from ORCA-job run
  C   0.71067701731412      0.17196434559453     -0.44370220305251
  C   -0.64326560681773     -0.55824853243889     -0.40754541836721
  Cl  1.53645921991408     -0.27979737829876     -1.96630305764506
  H   -1.20984343160191     -0.31813067543197     -1.31580941938328
  H   -0.42513926036015     -1.62957028945392     -0.41637012699101
  C   0.44704685113399      1.61895856217713     -0.46612849009859
  N   0.14956059376648      2.75488770330249     -0.45831814352268
  N   1.58851034112286     -0.12355128626740      0.66351598583921
  H   1.89902303107996     -1.08629048518551      0.58470555898092
  H   1.02778744373287     -0.03585984559702      1.50761022282575
  N   -1.30451621245301     -0.20576645126008      0.84098375527257
  H   -1.85531609391973      0.63628889835754      0.73087121571266
  H   -1.92098389291182     -0.94588456549812      1.14649012042922
