13
Coordinates from ORCA-job run
  C   0.59784163925401      0.13604464353043     -0.32627973068909
  C   -0.73374601350190     -0.61926627469121     -0.51048970650385
  Cl  1.60726453902030     -0.17760582785286     -1.83194175715042
  H   -0.48802057759055     -1.68627135528362     -0.55065322291360
  H   -1.15643572568161     -0.34827837560595     -1.47922763532063
  C   0.35471277948246      1.58004750284086     -0.28042318756285
  N   0.10638045539301      2.72699729613046     -0.23558903962171
  N   1.23305376733755     -0.27835405125159      0.87552565450410
  H   2.07684895557301      0.24795571686754      1.06487799965980
  H   1.45760231893179     -1.26583467576406      0.83401098691765
  N   -1.70546155752017     -0.37802930366940      0.52837153273616
  H   -1.28223812609820     -0.50224721599836      1.43899974701130
  H   -2.06680245459971      0.56584192074775      0.47281835893313
