13
Coordinates from ORCA-job run
  C   0.61061452814611      0.13595660071281     -0.30181762636734
  C   -0.72246831041685     -0.59828470799544     -0.55004190035604
  Cl  1.66909821170780     -0.15657334953765     -1.77768148470557
  H   -1.10719633800643     -0.30027226995553     -1.52661054798593
  H   -0.48794577219274     -1.66708182112184     -0.60582093595847
  C   0.38259404514312      1.58142772850493     -0.23167579777300
  N   0.14654894464252      2.73015883117062     -0.16907196447207
  N   1.19777598620332     -0.31326294005661      0.91178733282940
  H   2.04114257651398      0.19702664997502      1.14242597238815
  H   1.41098053149779     -1.30256376050357      0.85573552227594
  N   -1.72747831261886     -0.36818564882953      0.45911610629618
  H   -2.07587473137856      0.58098889608621      0.41249371777551
  H   -1.33879135924119     -0.51833420844942      1.38116160605323
