13
Coordinates from ORCA-job run
  C   0.57840733786457      0.13896612968852     -0.05375457763444
  C   -0.69998542816163     -0.68225755576648      0.21701812391274
  Cl  0.96154994343037     -0.03297968515239     -1.85585297719245
  H   -0.87368576361897     -0.61596159147648      1.29453629080982
  H   -0.46133240870547     -1.72394726592459     -0.02187548567224
  C   0.31797691774242      1.56447223059898      0.15914066463399
  N   0.10080952600057      2.69973319491831      0.36726606762553
  N   1.63106798101555     -0.29348991692093      0.78681476575784
  H   2.48745996216518      0.22318532314801      0.63187017849242
  H   1.80606210301185     -1.28371450623636      0.66635788388045
  N   -1.89635140949666     -0.29816662412123     -0.48383185364037
  H   -1.76036238035768     -0.32850986764703     -1.48515842615329
  H   -2.19161638089010      0.63367013489167     -0.22253065481999
