13
Coordinates from ORCA-job run
  C   0.69068531947144      0.05282946481664     -0.45090625142855
  C   -0.71427439416823     -0.55868463951017     -0.45994508250847
  Cl  1.49857721168734     -0.36197566253685     -1.99924817612892
  H   -1.24322624283399     -0.21279785920979     -1.35528888438780
  H   -0.57077007673496     -1.63849600253222     -0.53424147390583
  C   0.57299075333400      1.52388206711405     -0.40605721281174
  N   0.44181121779988      2.68703960509838     -0.29671615893137
  N   1.42898922624048     -0.50686716807349      0.64131584858581
  H   2.30177909232447     -0.01582576342759      0.79067826942862
  H   0.84091217061396     -0.43460241553412      1.46650452562533
  N   -1.36347221565187     -0.23595587273530      0.80377236532989
  H   -2.03495968760152     -0.94806084162866      1.05500749508748
  H   -1.85004237448100      0.64951508815913      0.74412473604555
