13
Coordinates from ORCA-job run
  C   0.68493621802134      0.13621544230299     -0.40481250699716
  C   -0.68418274556210     -0.56763881461749     -0.55929510012252
  Cl  1.63775709653491     -0.24754444393994     -1.88337162166975
  H   -0.48025761383920     -1.64002507760658     -0.64455634470590
  H   -1.14081181089780     -0.24624957110460     -1.49838054228036
  C   0.46561805759852      1.58660321473979     -0.35208589479047
  N   0.20298591275951      2.73018810081048     -0.30081609705660
  N   1.46769591690240     -0.25134858854268      0.74097420157493
  H   1.07148544430994      0.11790637251733      1.59600243855643
  H   1.54024552905377     -1.26082947188979      0.79468550001391
  N   -1.61653890125286     -0.34039728024458      0.51873555533313
  H   -1.89318332668518      0.63052060706569      0.58261080997663
  H   -1.25474977694325     -0.64840048949060      1.41030960216775
