13
Coordinates from ORCA-job run
  C   0.60126565289625      0.18082275145351     -0.12499998429810
  C   -0.67786858387626     -0.56485831505488      0.25173556828744
  Cl  0.69149392147201      0.18267086729559     -1.97504158138551
  H   -0.71496427907827     -0.56089827590015      1.34391742053367
  H   -0.54984011552896     -1.60648424576563     -0.08131522968054
  C   0.52610421917764      1.58776894613215      0.27419015986455
  N   0.50970927824775      2.70541480876856      0.63256794148706
  N   1.72724798162970     -0.43136338584853      0.48054635561768
  H   2.58640956036569      0.05923389516898      0.26688830739320
  H   1.81193187699571     -1.39770802723780      0.18960358956985
  N   -1.84529027510798      0.11107087515198     -0.27095599145504
  H   -2.66905313926139     -0.14210086971999      0.25593008513003
  H   -1.99714609793190     -0.12456902444380     -1.24206664106431
