13
Coordinates from ORCA-job run
  C   0.68621889869346      0.04774792215949     -0.45791455766524
  C   -0.72346083966418     -0.55249101309222     -0.45360719197112
  Cl  1.47436017243748     -0.37125481922432     -2.01582295467609
  H   -1.25901043289990     -0.20094898002668     -1.34274393742649
  H   -0.58984318695960     -1.63338150978234     -0.53097427653447
  C   0.58164900098066      1.51953147622348     -0.40991081465165
  N   0.46865639344450      2.68397614554104     -0.29418945010272
  N   1.43134584443345     -0.51921359438202      0.62567610468016
  H   2.30765509104744     -0.03286540893732      0.76959636533190
  H   0.85052934701010     -0.44711310526075      1.45604849469815
  N   -1.35707122489144     -0.22736589351256      0.81762211795724
  H   -1.83316952965107      0.66436428898632      0.76566852425326
  H   -2.03585953398090     -0.93198550869212      1.07055157610706
