13
Coordinates from ORCA-job run
  C   0.62420499952745      0.06914545470128     -0.29976066368631
  C   -0.68562441723108     -0.62910194612507      0.07940035558279
  Cl  0.80619663244528      0.08246735240505     -2.07553765059505
  H   -0.65449894173896     -0.79250810111520      1.16778090648998
  H   -0.65346154243674     -1.60771535079995     -0.40252396885640
  C   0.56876352726300      1.47488209636029      0.14624174821245
  N   0.53580401706159      2.55922425755193      0.59875212541313
  N   1.73407588498155     -0.67391674461240      0.25228305694694
  H   1.69200452759183     -0.64297343694295      1.26568489396423
  H   2.61328045877389     -0.26492196660852     -0.04274076435838
  N   -1.82930607267891      0.13107895113671     -0.37574541610941
  H   -2.58925649178974     -0.47316020569294     -0.64965488068018
  H   -2.16018258176915      0.76849963974179      0.33482025767620
