13
Coordinates from ORCA-job run
  C   0.57530569015191      0.08394325010494     -0.22636026524667
  C   -0.72575535512932     -0.70587407590473      0.01939910709234
  Cl  0.70105110402609      0.47331385506508     -1.97397387308449
  H   -0.64873687943140     -1.60681801903491     -0.59349238868732
  H   -0.71541739543884     -1.01554043593141      1.07098180832963
  C   0.50725076488879      1.37037401811685      0.49233947146752
  N   0.44353450228924      2.34801348460417      1.14238794212926
  N   1.70674928264602     -0.73446692718530      0.12474779872606
  H   2.57637586659843     -0.23948923189802     -0.03617622922669
  H   1.65332026371100     -0.98821704873875      1.10549212315773
  N   -1.96782394958859     -0.02913352899266     -0.24993106470980
  H   -2.08472340347000      0.78398838782706      0.34087114600541
  H   -2.02213049125330      0.25990627196768     -1.21728557595298
