13
Coordinates from ORCA-job run
  C   0.67551557705720      0.14558043143213     -0.31270462578974
  C   -0.58915895873451     -0.57428144820211      0.18941406482400
  Cl  0.88928903880829     -0.23014678884388     -2.04984900953599
  H   -0.45710861920431     -1.63466433474838     -0.04325354688283
  H   -0.58248531937804     -0.46917572143268      1.28579354133906
  C   0.47374405783268      1.59306392965237     -0.16641788431414
  N   0.25909085502993      2.73102447032812      0.02836985175413
  N   1.89590982460121     -0.22392789750953      0.36862040196448
  H   2.03600209820867     -1.22555080811549      0.29628531194786
  H   1.84047475851644      0.03656289353888      1.34710338590519
  N   -1.78249345726916     -0.07267308453155     -0.45546675302752
  H   -2.17108714329418      0.71220241541008      0.04907256574353
  H   -2.48969271217422     -0.78801405697795     -0.53696730392804
