13
Coordinates from ORCA-job run
  C   0.56234471462628      0.10165684290815     -0.25144643147115
  C   -0.71262101804883     -0.71812801038595      0.03146191705079
  Cl  0.59433258059178      0.55087194304733     -1.98883141156903
  H   -0.65223451940204     -1.59686522402513     -0.61459654964075
  H   -0.64477133944443     -1.06184146166883      1.07026136061804
  C   0.51041168692106      1.36190698731031      0.51328829160964
  N   0.46136021714400      2.31616794473900      1.19839605696647
  N   1.72210860352804     -0.70899927536276      0.01509013298522
  H   2.57520134769546     -0.19448854998952     -0.17112666649993
  H   1.72130257330898     -0.99682887122308      0.98785181637715
  N   -1.97701085615256     -0.05445213651237     -0.15321398420675
  H   -2.07621729628478      0.73766711734210      0.46861319154149
  H   -2.08420669448295      0.26433269382074     -1.10674772376120
