13
Coordinates from ORCA-job run
  C   0.61821179998822      0.02663806689055     -0.44874719737603
  C   -0.79362918639836     -0.58441707513473     -0.52996502806885
  Cl  1.51602957799191     -0.43111487075702     -1.92567556292720
  H   -0.65140059969701     -1.66310191958057     -0.62615875876603
  H   -1.26925061522952     -0.22032199625539     -1.44397991137477
  C   0.51337725008758      1.49835252687671     -0.42707734644152
  N   0.37879581961175      2.66185863778885     -0.32455689355653
  N   1.32669824314316     -0.51204151300557      0.69074708746046
  H   0.87590282288568     -0.18942612624619      1.54004257884513
  H   2.28313720258443     -0.17542710065235      0.70028048476415
  N   -1.65374723567800     -0.31521281384304      0.59703161797302
  H   -1.80270817674423      0.67220686338456      0.75389968624645
  H   -1.34241690254560     -0.76699267946581      1.44415924322172
