13
Coordinates from ORCA-job run
  C   0.56915421520349      0.30751562791623     -0.31529822377518
  C   -0.95669491502858      0.06374602949660     -0.17454187377878
  Cl  1.13516049713360     -0.62427988678282     -1.75108543856926
  H   -1.30573342540243      0.72342121442162      0.62740255584738
  H   -1.44160821179381      0.38405014129819     -1.10001373477701
  C   0.79225895094816      1.73268085084112     -0.57707133799373
  N   0.89622624133893      2.89017514856730     -0.74740620032606
  N   1.38355505669389     -0.09185827481917      0.80602464778962
  H   1.20733375557905     -1.06398006873526      1.02993736898098
  H   1.17930082454301      0.48824239469453      1.61239908458973
  N   -1.36356548749909     -1.28553335417218      0.12781196225924
  H   -1.04861020006716     -1.58813941575693      1.03871756129590
  H   -1.04577730164907     -1.93804040696922     -0.57587637154283
