13
Coordinates from ORCA-job run
  C   0.54372847781150      0.32000662214744     -0.34581078988745
  C   -0.96753498431620      0.08356407330039     -0.08494727867539
  Cl  0.96767354581334     -0.52986462622149     -1.87783052632081
  H   -1.23460612593901      0.69811556904643      0.78166761116548
  H   -1.52672707700120      0.46271187914084     -0.94384341768583
  C   0.76408007754094      1.75618746730506     -0.54276309328355
  N   0.86838128954157      2.92080336340058     -0.65443837959844
  N   1.44705016049030     -0.15278763991491      0.67394544897098
  H   1.27874261140070     -1.13501142697979      0.85512935643250
  H   1.32358713436419      0.38012291436993      1.52772434244801
  N   -1.36675386013034     -1.27717495427464      0.17322522412937
  H   -0.97364193265022     -1.63755038105803      1.03120814243441
  H   -1.12497931692557     -1.88912286026181     -0.59426664012929
