13
Coordinates from ORCA-job run
  C   0.59299671060770      0.14698224055779     -0.32344638219407
  C   -0.73655035701803     -0.60489359092318     -0.53232252103098
  Cl  1.60252333778373     -0.11227095913904     -1.83927527930838
  H   -0.48868389918460     -1.66940855163480     -0.60880640131803
  H   -1.16052117488758     -0.30224262086596     -1.49108710843394
  C   0.35022556276326      1.58881703305039     -0.22670083142369
  N   0.14587920671872      2.74075760762507     -0.12408887285092
  N   1.22975362970473     -0.30638682152207      0.86332656796325
  H   1.45572476623327     -1.29158831696509      0.78820008630261
  H   2.07278833981801      0.21476434837726      1.06986534447130
  N   -1.70756453547738     -0.39986226612801      0.51501449446058
  H   -1.28259234479212     -0.54803510081396      1.42117712888450
  H   -2.07597924226972      0.54236699838162      0.48714377447775
