14

C	-0.560991	-0.000302	-1.427129
C	0.0	0.0	0.0
Cl	0.135703	1.371353	-2.317584
H	1.090307	0.0	0.0
H	-1.637834	0.194835	-1.376751
N	-0.183248	-1.234729	-2.072154
H	-0.758085	-1.992792	-1.721883
H	-0.31228	-1.156965	-3.072191
C	-0.520403	-1.166199	0.703502
N	-0.953403	-2.131973	1.213001
N	-0.517199	1.224698	0.711812
O	-1.7425	1.3525	0.747524
O	0.301047	2.00409	1.180314
Br	3.457538	0.0	0.0
