14

C	-0.52733	-0.028358	-1.443485
C	0.0	0.0	0.0
Cl	0.029874	1.463981	-2.259302
H	1.091907	0.0	0.0
H	-1.618206	0.019558	-1.423764
N	-0.093387	-1.185946	-2.171956
H	0.911061	-1.303671	-2.057082
H	-0.568435	-2.00628	-1.807665
C	-0.52617	-1.161115	0.705705
N	-0.956827	-2.126092	1.218998
N	-0.523876	1.23329	0.692152
O	0.284036	2.021334	1.164154
O	-1.750051	1.370044	0.683229
Br	3.390266	0.0	0.0
