14

C	-0.490844	-0.005249	-1.444016
C	0.0	0.0	0.0
Cl	-2.373066	0.281947	-1.375778
H	1.094345	0.0	0.0
H	-0.450554	-1.027642	-1.816376
N	0.200668	0.859108	-2.277473
H	0.314299	1.786593	-1.898843
H	-0.121697	0.852318	-3.232383
C	-0.501075	-1.159432	0.720895
N	-0.859698	-2.138964	1.259871
N	-0.39313	1.259337	0.71621
O	-0.13044	2.309728	0.134374
O	-0.902108	1.170577	1.827432
Br	3.335916	0.0	0.0
