14

C	-0.523925	0.021402	-1.431002
C	0.0	0.0	0.0
Cl	0.121218	-1.460093	-2.268023
H	1.09167	0.0	0.0
H	-0.065671	0.862916	-1.944076
N	-1.941654	0.130194	-1.451899
H	-2.370385	-0.702283	-1.063397
H	-2.27917	0.257221	-2.396735
C	-0.551163	-1.116302	0.752378
N	-1.011382	-2.052457	1.292407
N	-0.395912	1.300671	0.652071
O	-0.165356	2.312915	0.001153
O	-0.872272	1.266473	1.78205
Br	3.339639	0.0	0.0
