14

C	-0.38401	-0.083263	-1.480779
C	0.0	0.0	0.0
Cl	-0.07455	1.570566	-2.235391
H	1.09223	0.0	0.0
H	-1.455004	-0.232953	-1.616905
N	0.380596	-1.131558	-2.028075
H	1.373118	-0.996493	-1.836732
H	0.223431	-1.244255	-3.019894
C	-0.521089	-1.162802	0.707493
N	-0.966937	-2.083628	1.284377
N	-0.579752	1.22348	0.638938
O	0.184853	2.01627	1.170528
O	-1.804704	1.327136	0.570919
Br	3.397488	0.0	0.0
