14

C	-0.411136	-0.232676	-1.47036
C	0.0	0.0	0.0
Cl	-0.078878	1.270359	-2.382532
H	1.09201	0.0	0.0
H	-1.485812	-0.406831	-1.539982
N	0.318391	-1.319316	-2.053599
H	1.309989	-1.209567	-1.843481
H	-0.006029	-2.197555	-1.663592
C	-0.503149	-1.113362	0.793472
N	-0.917541	-2.04509	1.376815
N	-0.589443	1.264265	0.540973
O	0.169951	2.142337	0.927459
O	-1.820563	1.322221	0.525034
Br	3.390357	0.0	0.0
