14

C	-0.529602	-0.281034	-1.400774
C	0.0	0.0	0.0
Cl	0.119993	-1.9038	-1.909669
H	1.089119	0.0	0.0
H	-0.077796	0.436281	-2.080728
N	-1.947462	-0.18554	-1.440132
H	-2.372047	-0.930353	-0.900058
H	-2.285556	-0.243006	-2.391845
C	-0.562392	-0.919063	0.975975
N	-1.057249	-1.706244	1.693472
N	-0.361776	1.42039	0.359981
O	-0.70622	1.655584	1.513876
O	-0.213465	2.251993	-0.528432
Br	3.33892	0.0	0.0
