15

C	0.0	0.0	0.0
C	-0.516539	0.119479	-1.421149
Br	1.946954	0.0	0.0
H	-1.57559	0.375755	-1.314456
H	0.015426	0.945666	-1.89647
N	-0.376209	1.233861	0.832558
O	-0.488276	1.072122	2.038197
O	-0.447521	2.288901	0.220888
C	-0.421116	-1.204678	0.703973
N	-0.603705	-2.243335	1.223777
C	-0.381339	-1.180278	-2.201257
H	0.645162	-1.556778	-2.218262
H	-0.70003	-1.013738	-3.233013
H	-1.035168	-1.941482	-1.771922
Cl	-3.432993	0.0	0.0
