15

C	0.0	0.0	0.0
C	-0.494784	0.128675	-1.431148
Br	1.947044	0.0	0.0
H	-1.541184	0.431949	-1.345178
H	0.081432	0.923519	-1.907809
N	-0.374559	1.235073	0.831385
O	-0.490043	1.076053	2.036919
O	-0.437844	2.290033	0.218446
C	-0.426073	-1.20546	0.698093
N	-0.586235	-2.244328	1.224812
C	-0.40582	-1.186318	-2.191268
H	-0.664502	-1.015385	-3.239139
H	0.59467	-1.625888	-2.157166
H	-1.125673	-1.895854	-1.782201
Cl	-3.375761	0.0	0.0
