15

C	0.0	0.0	0.0
C	-0.223459	-0.694419	-1.388878
Br	1.940801	0.0	0.0
H	0.21581	-1.688573	-1.245238
H	0.460645	-0.157372	-2.046421
N	-0.425167	1.459713	0.015784
O	-0.456778	2.02008	-1.071361
O	-0.591147	1.971792	1.111484
C	-0.477031	-0.697095	1.180583
N	-0.623028	-1.357008	2.143497
C	-1.5315	-0.837705	-2.151316
H	-2.236619	-1.513428	-1.681986
H	-1.231268	-1.230279	-3.133376
H	-2.034874	0.113689	-2.283289
Cl	-3.400143	0.0	0.0
