15

C	0.0	0.0	0.0
C	-0.479444	0.132487	-1.436172
Br	1.946753	0.0	0.0
H	0.10263	0.930319	-1.901363
H	-1.528997	0.431928	-1.372802
N	-0.377658	1.227893	0.837895
O	-0.472909	1.062804	2.044546
O	-0.463415	2.283216	0.229225
C	-0.427683	-1.212183	0.686118
N	-0.646288	-2.249935	1.193749
C	-0.366043	-1.182228	-2.197786
H	-0.547207	-1.003677	-3.2599
H	-1.123656	-1.879592	-1.837975
H	0.620671	-1.642981	-2.098521
Cl	-3.356325	0.0	0.0
