19

C	-0.012471	-0.026506	-1.467816
C	0.014159	-0.085931	0.067738
Cl	-1.800292	0.084129	-1.991202
H	1.089368	-0.236593	0.241435
N	0.686779	1.093711	-2.023892
H	0.292569	1.94695	-1.641714
H	1.651894	0.96388	-1.600591
C	0.576411	-1.290231	-2.056993
H	1.632289	-1.246869	-1.772722
H	0.482538	-1.260116	-3.143756
H	0.097999	-2.178304	-1.647351
N	-0.74108	-1.240476	0.566346
H	-1.73257	-1.031269	0.501244
H	-0.521206	-1.361131	1.549017
C	-0.374199	1.234506	0.731267
H	0.372412	2.003072	0.524703
H	-1.359802	1.579719	0.400159
H	-0.408159	1.096021	1.817233
F	2.788905	0.354191	-0.654803
