19

C	-0.339597	-0.015669	-1.462584
C	-0.019344	-0.124693	0.025878
Cl	0.239197	-1.725896	-2.185385
H	1.055906	-0.342976	0.095142
N	-1.724059	0.126865	-1.669985
H	-2.219146	-0.549689	-1.100071
H	-1.96927	0.047632	-2.647294
C	0.50595	1.009899	-2.182653
H	0.530766	0.809022	-3.257537
H	1.507487	1.037108	-1.713201
H	0.038556	1.985823	-2.017716
N	-0.913112	-1.139552	0.619659
H	-0.853946	-1.051014	1.627347
H	-0.547664	-2.054947	0.378805
C	-0.182757	1.230845	0.702423
H	0.717586	1.789532	0.426826
H	-0.159455	1.092901	1.79123
H	-1.119277	1.724381	0.430022
F	2.52999	1.190222	-0.209032
