19

C	0.004113	0.037002	-1.484318
C	-0.011582	0.032836	0.056243
Cl	-1.697093	0.37898	-2.112252
H	1.076307	0.031026	0.254168
N	0.904491	1.022028	-2.023679
H	1.825822	0.712136	-1.611633
H	0.676953	1.927245	-1.624201
C	0.441278	-1.312393	-2.019016
H	1.450615	-1.453987	-1.616481
H	0.487349	-1.256989	-3.107821
H	-0.245681	-2.105347	-1.721346
N	-0.67797	-1.1687	0.594762
H	-0.030483	-1.943752	0.493822
H	-0.787772	-1.033139	1.595501
C	-0.666297	1.253786	0.679075
H	-0.413485	1.30677	1.744295
H	-0.322645	2.180854	0.217241
H	-1.752597	1.193587	0.578411
F	2.843504	-0.14556	-0.653556
