19

C	-0.399743	-0.051676	-1.443631
C	-0.012492	-0.146992	0.038292
Cl	0.183413	-1.665079	-2.188945
H	1.06401	-0.343856	0.074334
N	-1.818523	0.010098	-1.662826
H	-2.093578	0.979234	-1.747041
H	-2.272029	-0.407988	-0.855171
C	0.35617	1.048569	-2.158933
H	1.379152	1.113735	-1.744049
H	0.318235	0.89086	-3.239322
H	-0.128536	2.004842	-1.92756
N	-0.863427	-1.172219	0.672653
H	-0.560533	-2.083435	0.343711
H	-0.687981	-1.143814	1.670547
C	-0.187654	1.200793	0.724468
H	-0.133128	1.063104	1.811778
H	-1.150101	1.670962	0.493528
H	0.686821	1.787924	0.419211
F	2.458722	1.341423	-0.286789
