16

C	-0.517727	-0.030961	-1.4413
C	0.0	0.0	0.0
Cl	0.328637	-1.268257	-2.382225
H	1.094479	0.0	0.0
C	-1.95727	-0.276609	-1.503343
N	-3.105359	-0.530063	-1.485515
N	-0.239289	1.324732	-2.124175
O	0.899769	1.743019	-2.020769
O	-1.180958	1.848528	-2.711774
C	-0.427733	-1.242908	0.786757
H	-1.51315	-1.320014	0.885209
H	-0.034936	-2.135912	0.299175
H	0.021239	-1.184195	1.779368
C	-0.505995	1.21079	0.640597
N	-0.951187	2.164987	1.162855
Br	3.409519	0.0	0.0
