16

C	-0.430773	0.007841	-1.471393
C	0.0	0.0	0.0
Cl	-2.203166	0.151668	-1.643486
H	1.095999	0.0	0.0
C	0.196154	1.078561	-2.239045
N	0.70168	1.948149	-2.848947
N	0.022001	-1.351484	-2.06658
O	1.229548	-1.385176	-2.364608
O	-0.819812	-2.262591	-2.128776
C	-0.490034	-1.22747	0.763662
H	-1.576961	-1.328475	0.726532
H	-0.024602	-2.127345	0.358938
H	-0.171625	-1.133039	1.802591
C	-0.459825	1.237742	0.617339
N	-0.835156	2.216168	1.149078
Br	3.230552	0.0	0.0
