16

C	-0.409406	-0.002782	-1.467903
C	0.0	0.0	0.0
Cl	-2.164255	0.125397	-1.713846
H	1.096072	0.0	0.0
C	0.244109	1.067513	-2.220178
N	0.768995	1.941278	-2.806198
N	0.084817	-1.358502	-2.054111
O	-0.738518	-2.217982	-2.335495
O	1.301608	-1.418433	-2.202322
C	-0.507757	-1.220641	0.758271
H	-1.59693	-1.311365	0.715767
H	-0.054297	-2.130436	0.357611
H	-0.201504	-1.13574	1.802879
C	-0.452846	1.234736	0.60813
N	-0.82631	2.219558	1.132608
Br	2.90466	0.0	0.0
