16

C	-0.529065	-0.027908	-1.43697
C	0.0	0.0	0.0
Cl	0.342394	-1.231991	-2.394249
H	1.094532	0.0	0.0
C	-1.958964	-0.317026	-1.49073
N	-3.097458	-0.604949	-1.465171
N	-0.29409	1.334033	-2.113667
O	0.799126	1.833107	-1.919087
O	-1.209923	1.774252	-2.802183
C	-0.410462	-1.257363	0.774338
H	-0.026097	-2.141646	0.263935
H	0.061866	-1.21301	1.756216
H	-1.492645	-1.339615	0.896114
C	-0.516023	1.195655	0.660555
N	-0.973853	2.129382	1.207666
Br	3.405146	0.0	0.0
