16

C	-0.410145	-0.009692	-1.479365
C	0.0	0.0	0.0
Cl	0.216622	1.401581	-2.321124
H	1.096405	0.0	0.0
C	0.035728	-1.22289	-2.156524
N	0.387296	-2.201016	-2.707518
N	-1.954352	-0.00165	-1.56088
O	-2.485483	-1.108414	-1.534581
O	-2.519196	1.081009	-1.557878
C	-0.447535	-1.242713	0.773863
H	-0.074176	-2.141121	0.279669
H	0.00754	-1.195629	1.764539
H	-1.531952	-1.309575	0.879139
C	-0.479264	1.216178	0.647533
N	-0.856404	2.163108	1.232284
Br	3.34325	0.0	0.0
