16

C	-0.471854	-0.026703	-1.459215
C	0.0	0.0	0.0
Cl	-2.250356	-0.041947	-1.587456
H	1.09608	0.0	0.0
C	0.02424	1.115578	-2.217413
N	0.400627	2.049991	-2.822222
N	0.062432	-1.311971	-2.128605
O	-0.546736	-2.344033	-1.891181
O	1.071249	-1.185005	-2.80372
C	-0.434783	-1.204768	0.837242
H	-0.109032	-1.026542	1.863207
H	-1.515294	-1.356375	0.821731
H	0.066785	-2.104187	0.482833
C	-0.469	1.245693	0.597429
N	-0.851603	2.231124	1.110497
Br	3.353242	0.0	0.0
