14

C	-0.488218	-0.116998	-1.44495
C	0.0	0.0	0.0
F	-1.865335	-0.280335	-1.462484
H	1.092865	0.0	0.0
C	-0.178586	1.136077	-2.158451
N	0.013692	2.122699	-2.766519
C	0.120745	-1.230765	-2.193756
N	0.562519	-2.053948	-2.905747
N	-0.41657	-1.202495	0.797593
O	-0.547076	-1.044236	2.005186
O	-0.537504	-2.2593	0.187128
C	-0.527591	1.20162	0.622721
N	-0.94441	2.188036	1.10515
Cl	3.054933	0.0	0.0
