14

C	-0.468803	-0.056328	-1.46607
C	0.0	0.0	0.0
F	-0.168091	1.173469	-2.017033
H	1.094695	0.0	0.0
C	0.214207	-1.091092	-2.257376
N	0.701574	-1.870542	-2.98837
C	-1.930368	-0.244623	-1.564585
N	-3.098436	-0.339739	-1.649329
N	-0.41645	-1.230087	0.740493
O	-0.711573	-2.210418	0.057432
O	-0.374661	-1.183173	1.961906
C	-0.531168	1.177981	0.659456
N	-0.971598	2.141408	1.167632
Cl	3.058592	0.0	0.0
