14

C	-0.483668	-0.092809	-1.448376
C	0.0	0.0	0.0
F	-1.855692	-0.293378	-1.469895
H	1.092986	0.0	0.0
C	-0.209242	1.187203	-2.128237
N	-0.043632	2.193094	-2.711729
C	0.153136	-1.169476	-2.226995
N	0.589267	-1.982485	-2.955217
N	-0.409808	-1.22632	0.76956
O	-0.606634	-1.086951	1.969847
O	-0.457691	-2.278987	0.14371
C	-0.53917	1.183931	0.646287
N	-0.969493	2.150731	1.156487
Cl	3.056272	0.0	0.0
