14

C	-0.484264	-0.318855	-1.413338
C	0.0	0.0	0.0
F	-1.867953	-0.407141	-1.433174
H	1.110087	0.0	0.0
C	-0.093385	0.788838	-2.306037
N	0.159374	1.664666	-3.04716
C	0.065934	-1.568306	-1.967444
N	0.444542	-2.525978	-2.53214
N	-0.423801	-1.058127	0.975265
O	-0.451286	-0.729482	2.154392
O	-0.654833	-2.177257	0.528261
C	-0.511659	1.288264	0.435135
N	-0.925238	2.342324	0.749012
Cl	3.051767	0.0	0.0
