14

C	-0.484471	0.227494	-1.430392
C	0.0	0.0	0.0
F	-1.86834	0.184948	-1.480688
H	1.110775	0.0	0.0
C	-0.060894	1.574082	-1.860351
N	0.217925	2.652604	-2.233635
C	0.047043	-0.750674	-2.396255
N	0.425054	-1.455859	-3.255657
N	-0.429201	-1.339631	0.523016
O	-0.737994	-2.197934	-0.298845
O	-0.387128	-1.481932	1.738134
C	-0.499807	1.039129	0.883996
N	-0.893604	1.899681	1.580572
Cl	3.051038	0.0	0.0
