14

C	-0.470334	-0.03051	-1.466262
C	0.0	0.0	0.0
F	-0.165678	1.206483	-1.997178
H	1.095813	0.0	0.0
C	0.209901	-1.056776	-2.272358
N	0.6937	-1.838994	-3.003256
C	-1.931917	-0.212516	-1.56622
N	-3.100639	-0.306308	-1.64412
N	-0.419977	-1.240022	0.720775
O	-0.36951	-1.215514	1.943348
O	-0.728851	-2.205999	0.022261
C	-0.525672	1.167848	0.681148
N	-0.957988	2.114774	1.226012
Cl	3.059331	0.0	0.0
