14

C	-0.450475	-0.097623	-1.466633
C	0.0	0.0	0.0
F	0.222328	-1.103297	-2.10531
H	1.110055	0.0	0.0
C	-1.904444	-0.338102	-1.589555
N	-3.062753	-0.489533	-1.714119
C	-0.138017	1.176635	-2.144541
N	0.078204	2.178598	-2.718945
N	-0.422871	-1.201949	0.792266
O	-0.794532	-2.193034	0.169131
O	-0.307522	-1.107474	2.006971
C	-0.529406	1.196383	0.627885
N	-0.973274	2.177515	1.099551
Cl	3.058808	0.0	0.0
