18

C	-0.149228	0.020967	-1.489161
C	-0.027222	-0.05935	0.047646
Br	-2.112403	0.281858	-1.964781
H	1.059487	-0.196392	0.151024
N	0.603659	1.095306	-2.048871
H	1.576543	0.946803	-1.64495
H	0.27236	1.976226	-1.666929
C	0.308243	-1.274336	-2.124449
H	-0.262236	-2.133747	-1.768317
H	1.366695	-1.384433	-1.856565
H	0.222078	-1.191835	-3.208147
C	-0.73217	-1.203345	0.612806
N	-1.290604	-2.119139	1.095435
C	-0.382332	1.222998	0.796152
H	0.334097	2.000382	0.526573
H	-1.398017	1.55224	0.565491
H	-0.300411	1.059467	1.873484
H	2.764144	0.439428	-0.622933
