18

C	-0.16187	0.101876	-1.483851
C	-0.030205	-0.05841	0.045122
Br	-2.129872	0.367766	-1.936648
H	1.064754	-0.186111	0.1339
N	0.576947	1.212936	-1.989321
H	1.551925	1.054539	-1.596964
H	0.237039	2.068669	-1.560615
C	0.305349	-1.152659	-2.189853
H	1.36602	-1.266512	-1.932518
H	-0.254821	-2.035645	-1.877827
H	0.213252	-1.01302	-3.267187
C	-0.715973	-1.23992	0.55263
N	-1.257822	-2.188023	0.989782
C	-0.395177	1.177658	0.863145
H	-1.415867	1.507379	0.656201
H	0.310916	1.976625	0.631931
H	-0.304772	0.957534	1.929667
H	2.746494	0.497491	-0.597255
