16

C	-0.422722	-0.005414	-1.456589
C	0.0	0.0	0.0
F	-1.826065	-0.110022	-1.564489
H	1.101746	0.0	0.0
C	-0.071944	1.284781	-2.080083
N	0.157444	2.275687	-2.66611
C	0.220624	-1.151008	-2.206496
H	-0.035894	-1.106848	-3.266956
H	-0.135199	-2.095578	-1.788826
H	1.304792	-1.083353	-2.066192
C	-0.45278	-1.225455	0.653227
N	-0.810321	-2.187743	1.229387
N	-0.409132	1.214097	0.68858
H	0.351886	1.480766	1.307084
H	-1.256045	1.083746	1.22668
H	2.666507	0.0	0.0
