16

C	-0.441281	-0.010118	-1.465617
C	0.0	0.0	0.0
F	-0.213314	-1.28237	-1.989317
H	1.105916	0.0	0.0
C	-1.895205	0.241312	-1.583574
N	-3.04649	0.457136	-1.677554
C	0.362103	0.996381	-2.261975
H	0.117924	0.907206	-3.322898
H	0.134277	2.002348	-1.909714
H	1.420614	0.787765	-2.08074
C	-0.514507	-1.160706	0.71811
N	-0.947536	-2.054297	1.348932
N	-0.36545	1.276544	0.606042
H	0.412918	1.563653	1.191639
H	-1.196868	1.196879	1.176938
H	2.708405	0.0	0.0
