16

C	-0.519439	-0.035226	-1.443131
C	0.0	0.0	0.0
F	0.038786	1.04178	-2.118207
H	1.100916	0.0	0.0
C	-0.077599	-1.265967	-2.1326
N	0.196327	-2.241273	-2.727785
C	-2.028751	0.100716	-1.542622
H	-2.308235	1.010548	-1.01004
H	-2.32433	0.180823	-2.591026
H	-2.523347	-0.76221	-1.092716
C	-0.494048	-1.151963	0.732232
N	-0.901632	-2.066175	1.351761
N	-0.393013	1.27298	0.618304
H	-0.862508	1.114222	1.500348
H	0.484548	1.749483	0.818262
H	2.65665	0.0	0.0
