12

C	0.0	0.0	0.0
C	-0.485486	-0.182704	-1.437744
Cl	1.784101	0.0	0.0
H	0.352247	-0.348502	-2.12359
H	-0.345151	0.95063	0.383195
H	-1.230301	-0.961925	-1.506146
C	-0.45694	-1.087706	0.863784
N	-0.564702	-2.012863	1.582763
N	-1.14941	1.045948	-1.953179
O	-0.796557	2.132498	-1.508272
O	-1.922143	0.891869	-2.892781
F	-2.351945	0.0	0.0
