12

C	0.0	0.0	0.0
C	-0.551626	-0.048338	-1.405806
Cl	1.782753	0.0	0.0
H	-1.679562	-0.122146	-1.143472
H	-0.353481	0.934237	0.430227
H	-0.296415	0.857627	-1.952613
C	-0.44311	-1.086452	0.878934
N	-0.618832	-1.940904	1.665718
N	-0.049361	-1.173631	-2.199284
O	0.11431	-0.985422	-3.409911
O	0.13701	-2.253044	-1.637366
F	-2.617047	0.0	0.0
