12

C	0.0	0.0	0.0
C	-0.486791	-0.477684	-1.364517
Cl	1.789214	0.0	0.0
H	0.316881	-0.942761	-1.944931
H	-0.348708	1.007133	0.183314
H	-1.357194	-1.108262	-1.240047
C	-0.45334	-0.892004	1.063544
N	-0.575381	-1.659637	1.945995
N	-0.95694	0.659746	-2.204439
O	-1.622845	0.355931	-3.191127
O	-0.597097	1.800366	-1.930385
F	-2.390034	0.0	0.0
