12

C	0.0	0.0	0.0
C	-0.48572	-0.231517	-1.427142
Cl	1.784799	0.0	0.0
H	0.30886	-0.613464	-2.074642
H	-0.351449	0.959824	0.356097
H	-1.371123	-0.853187	-1.414573
C	-0.461358	-1.062615	0.892207
N	-0.570977	-1.959476	1.643812
N	-0.920579	1.037512	-2.071657
O	-0.533961	2.10858	-1.616974
O	-1.589776	0.909455	-3.093671
F	-2.393806	0.0	0.0
