12

C	0.0	0.0	0.0
C	-0.479241	0.068573	-1.448217
Cl	1.78223	0.0	0.0
H	-1.600353	0.071811	-1.327106
H	-0.384008	0.855662	0.539007
H	-0.073834	-0.728766	-2.065177
C	-0.45751	-1.239862	0.626166
N	-0.67721	-2.20139	1.265277
N	-0.031382	1.328948	-2.083644
O	-0.038253	2.356957	-1.409144
O	0.273979	1.279595	-3.275025
F	-2.573415	0.0	0.0
