12

C	0.0	0.0	0.0
C	-0.531809	-0.104016	-1.411535
Cl	1.781542	0.0	0.0
H	-0.192194	-1.003725	-1.921266
H	-0.355779	0.925588	0.440404
H	-1.659437	-0.055374	-1.168561
C	-0.452868	-1.147923	0.785388
N	-0.614105	-2.142181	1.388799
N	-0.102458	1.042488	-2.220398
O	0.144009	0.843724	-3.41373
O	-0.061247	2.15085	-1.682552
F	-2.598508	0.0	0.0
