12

C	0.0	0.0	0.0
C	-0.528859	-0.09265	-1.41727
Cl	1.767098	0.0	0.0
H	-1.645843	-0.178978	-1.195826
H	-0.365963	0.939755	0.397011
H	-0.254788	0.797639	-1.978146
C	-0.453328	-1.066388	0.900339
N	-0.615337	-1.900172	1.711099
N	0.029302	-1.234939	-2.155184
O	-0.015913	-2.343905	-1.623329
O	0.491486	-1.025903	-3.28034
F	-2.596966	0.0	0.0
