16

C	-0.386882	-0.015781	-1.47311
C	0.0	0.0	0.0
F	0.112405	1.06652	-2.105313
H	1.097188	0.0	0.0
C	0.030913	-1.242626	-2.161168
N	0.341646	-2.226073	-2.72238
N	-1.920331	0.064986	-1.614221
O	-2.3974	1.157659	-1.88052
O	-2.529077	-0.976846	-1.393153
C	-0.443508	-1.231228	0.791315
H	-0.057966	-2.133763	0.313882
H	-1.527291	-1.305114	0.886772
H	0.005481	-1.164597	1.783398
C	-0.486373	1.2343	0.607124
N	-0.889381	2.201797	1.138281
Br	3.355263	0.0	0.0
