16

C	-0.382446	0.210184	-1.459315
C	0.0	0.0	0.0
F	0.092444	1.390454	-1.909212
H	1.097127	0.0	0.0
C	0.067324	-0.881467	-2.331157
N	0.414887	-1.741137	-3.05293
N	-1.91648	0.275019	-1.596165
O	-2.421144	1.385609	-1.665142
O	-2.498545	-0.805032	-1.569836
C	-0.442823	-1.339882	0.589771
H	-0.059228	-2.156868	-0.023892
H	-1.526758	-1.42698	0.673787
H	0.006804	-1.430515	1.579643
C	-0.492866	1.122712	0.789868
N	-0.931018	1.980086	1.463292
Br	3.354731	0.0	0.0
