16

C	-0.482152	-0.144186	-1.429554
C	0.0	0.0	0.0
F	0.035974	-1.267942	-1.991656
H	1.092996	0.0	0.0
C	-1.951013	-0.206059	-1.534897
N	-3.121757	-0.306509	-1.559852
N	-0.024793	1.013663	-2.333717
O	-0.388038	0.91299	-3.501457
O	0.661737	1.893672	-1.838295
C	-0.430406	-1.219089	0.828926
H	0.007932	-1.122521	1.822916
H	-0.028909	-2.124212	0.372767
H	-1.516812	-1.296148	0.921956
C	-0.541777	1.220436	0.584157
N	-1.047711	2.148142	1.097301
Br	3.396335	0.0	0.0
