16

C	-0.358332	0.019945	-1.480513
C	0.0	0.0	0.0
F	0.161039	1.113697	-2.075061
H	1.10757	0.0	0.0
C	0.06902	-1.189282	-2.194837
N	0.386238	-2.146379	-2.796468
N	-1.890428	0.104546	-1.683209
O	-2.338635	1.129436	-2.169653
O	-2.520985	-0.880243	-1.314193
C	-0.421859	-1.255214	0.765528
H	-1.502354	-1.345886	0.871287
H	0.042585	-1.208549	1.751704
H	-0.028933	-2.139055	0.260479
C	-0.514463	1.216427	0.617633
N	-0.981983	2.171299	1.118092
Br	3.343663	0.0	0.0
