16

C	-0.438428	0.029707	-1.461049
C	0.0	0.0	0.0
F	-0.082749	-1.123587	-2.072298
H	1.108016	0.0	0.0
C	-1.88593	0.230716	-1.636666
N	-3.046955	0.345904	-1.774597
N	0.257378	1.178129	-2.215442
O	-0.038089	2.296713	-1.816518
O	1.003658	0.874611	-3.127883
C	-0.465355	-1.296734	0.66952
H	-0.104055	-1.297946	1.698688
H	-0.02338	-2.149994	0.155845
H	-1.555649	-1.387922	0.676558
C	-0.507944	1.153514	0.732054
N	-0.95225	2.018315	1.391552
Br	3.375895	0.0	0.0
