16

C	-0.388744	0.159908	-1.463013
C	0.0	0.0	0.0
F	0.119218	1.303542	-1.96761
H	1.108702	0.0	0.0
C	0.010247	-0.980175	-2.295959
N	0.297144	-1.87651	-2.999041
N	-1.923056	0.270863	-1.588498
O	-2.389337	1.39073	-1.729869
O	-2.541304	-0.783682	-1.480981
C	-0.440863	-1.316124	0.642381
H	0.010539	-1.366877	1.634672
H	-1.524059	-1.400654	0.731369
H	-0.056107	-2.155564	0.061296
C	-0.486824	1.154225	0.746904
N	-0.916514	2.051245	1.372533
Br	3.354137	0.0	0.0
