16

C	-0.434449	0.069772	-1.460985
C	0.0	0.0	0.0
F	0.023491	-1.018238	-2.123569
H	1.107636	0.0	0.0
C	-1.893307	0.150306	-1.638885
N	-3.058822	0.158558	-1.789237
N	0.160478	1.308305	-2.148488
O	1.042294	1.122643	-2.967464
O	-0.334377	2.372112	-1.794222
C	-0.454677	-1.323621	0.623746
H	-1.54456	-1.417114	0.641567
H	-0.077791	-1.367038	1.646096
H	-0.017801	-2.154113	0.068933
C	-0.522563	1.126555	0.762669
N	-0.985735	1.975254	1.429447
Br	3.378366	0.0	0.0
