16

C	-0.446114	-0.112073	-1.437587
C	0.0	0.0	0.0
F	-1.800167	-0.367256	-1.538499
H	1.086915	0.0	0.0
H	-0.391069	0.897452	0.472774
N	-0.292935	1.311927	-1.993246
O	-1.149635	2.123482	-1.645646
O	0.660782	1.550024	-2.726057
C	0.336541	-1.066125	-2.290438
H	0.084023	-0.92932	-3.343545
H	0.090215	-2.075055	-1.969781
H	1.400758	-0.886091	-2.120433
N	-0.425258	-1.123686	0.823386
O	-0.662452	-0.882924	2.014429
O	-0.433447	-2.259004	0.334945
H	2.626922	0.0	0.0
