16

C	-0.438748	0.025759	-1.4423
C	0.0	0.0	0.0
F	-1.806136	-0.160003	-1.568889
H	1.08757	0.0	0.0
H	-0.394386	0.85042	0.548116
N	-0.231465	1.48932	-1.875283
O	0.629183	1.739719	-2.715106
O	-0.968041	2.31539	-1.340599
C	0.303753	-0.884701	-2.373371
H	1.374885	-0.752961	-2.201816
H	0.049115	-0.655532	-3.409199
H	0.028955	-1.907798	-2.131501
N	-0.427167	-1.1927	0.715986
O	-0.385527	-2.288262	0.143149
O	-0.712422	-1.050988	1.912285
H	2.623504	0.0	0.0
