14
Coordinates from ORCA-job run
  C   0.68852237521050      0.46640920964541     -0.29084305296220
  C   -0.80098145383197      0.13089445038106     -0.17187614619193
  F   0.88224327503119      1.41008424054671     -1.24413758656221
  H   -1.28861605065357      1.07898781588992      0.07432217713040
  N   1.10601310762260      1.08559964639848      1.04692424792264
  O   1.98877461585543      0.53116421121975      1.68348695933586
  O   0.49856981060440      2.10722926092107      1.33465421597125
  C   1.49734416142095     -0.72168025523672     -0.55957627267099
  N   2.06780445306638     -1.71541563032292     -0.81938044604308
  N   -0.95728794299495     -0.78796801219713      0.93386960606771
  H   -1.88964511381346     -0.73550262914332      1.32113086710555
  H   -0.77512367960596     -1.74410592147406      0.65257107470263
  C   -1.29978478201283     -0.33772281235087     -1.47532536163284
  N   -1.71683277589869     -0.76597357427740     -2.48682028217280
