14
Coordinates from ORCA-job run
  C   0.74222519907802      0.45089268980466     -0.14120241056820
  C   -0.77589544482362      0.25154246324601     -0.15355004199138
  F   1.07120730048713      1.58273375131503     -0.81028839658912
  H   -1.18453536312923      1.15086846034569      0.31706417198432
  N   1.14393936132350      0.66076306713784      1.32269887582544
  O   1.93485936445176     -0.12755154064469      1.81752597972240
  O   0.61942723811146      1.63158172822336      1.84952735614891
  C   1.45384168928544     -0.70357338423302     -0.68740911470241
  N   1.95190575970528     -1.64606791311623     -1.18169046428740
  N   -1.07556014883301     -0.89820439189524      0.67109651178243
  H   -0.96709501709934     -1.76400375672492      0.15616610565405
  H   -2.01905615039062     -0.85098815410893      1.03118601062455
  C   -1.24730438578848      0.18569804963364     -1.54657912220369
  N   -1.64795940237829      0.07530893101680     -2.64554546139990
