14
Coordinates from ORCA-job run
  C   0.61507971291020      0.38240217341324      0.29519075836156
  C   -0.58922117619968     -0.24988323080788     -0.41183122514264
  F   0.18718947692747      1.24914846047608      1.23782590432137
  H   -0.19387570827248     -0.93290657083289     -1.16821851418271
  N   1.40405892881875     -0.73564669682885      0.98891137329041
  O   1.49918977969520     -0.68665097474677      2.20241451957043
  O   1.83843978480824     -1.58451725663079      0.22111739804178
  C   1.51094290735166      1.04567684053066     -0.65116086464401
  N   2.24833933696750      1.56547335373158     -1.40328051962784
  N   -1.31841607341973      0.81638104604788     -1.06099151158505
  H   -1.94787051068103      0.44740417113699     -1.76139592795573
  H   -1.85474902768002      1.34931943155441     -0.38771697198118
  C   -1.36438229189571     -1.03484691292198      0.56967587639801
  N   -2.03472513933037     -1.63135383412168      1.32845970513560
