14
Coordinates from ORCA-job run
  C   0.71281884202956      0.45640434813896     -0.23868011074351
  C   -0.78998699572973      0.16575600855993     -0.19343210760259
  F   0.97200454400569      1.44115644479634     -1.13350123366095
  H   -1.25580244011354      1.11647008379874      0.08319024008786
  N   1.09783617976254      0.99238080555882      1.14346348337539
  O   1.93639412474842      0.37633786823919      1.78329459828569
  O   0.51404399497747      2.01903852909233      1.46068277780527
  C   1.49507345685673     -0.74125719608788     -0.54054017772922
  N   2.04909316771484     -1.73536168045495     -0.83285524411495
  N   -1.01971302917936     -0.80267118456951      0.85615511911217
  H   -0.85435781584630     -1.74835600252218      0.53196231298652
  H   -1.96707550998514     -0.74133100883788      1.20447064503268
  C   -1.25099493727247     -0.21814452945919     -1.53790668070567
  N   -1.63833358196873     -0.58042248625271     -2.58630362212868
