14
Coordinates from ORCA-job run
  C   0.74095954294993      0.36131965751395     -0.30781461436105
  C   -0.77681443493647      0.17011823312297     -0.23773373786121
  F   1.06563516745139      1.14240319238698     -1.36720035597824
  H   -1.18634974223536      1.18143096051429     -0.15561228197582
  N   1.14441221181055      1.12716748671376      0.95621598701739
  O   1.93716168780579      0.59583536152622      1.71856943343102
  O   0.61885273578368      2.22608229050720      1.06257891975991
  C   1.45466787502738     -0.91348315698457     -0.36213447109685
  N   1.95393000229226     -1.97363961874379     -0.44855814894250
  N   -1.07220113126455     -0.56571989766421      0.97171820926994
  H   -0.96270519140269     -1.56383535732979      0.83575453054158
  H   -2.01550624309944     -0.38316601080237      1.28633471693180
  C   -1.24979687068173     -0.43574820224585     -1.49320762451744
  N   -1.65224560950075     -0.96676493851478     -2.46091056221853
