14
Coordinates from ORCA-job run
  C   0.80242205278079      0.35353567709632     -0.06958976109651
  C   -0.72105621240156      0.34713198896537     -0.22001924038467
  F   1.33032972798540      1.43272485318330     -0.69742452620167
  H   -1.05547883014375      1.29130736055359      0.22053872939573
  N   1.09488186283377      0.51603721550933      1.42564415470680
  O   1.73651752966294     -0.36190945866238      1.98205350544539
  O   0.65067880224487      1.54652508138360      1.91163285867696
  C   1.40935300562861     -0.88293130765960     -0.55976090035575
  N   1.82767870750748     -1.88257475782254     -1.01407786656192
  N   -1.23608373417242     -0.75406084551690      0.56390123389359
  H   -2.19540303673815     -0.58774835029979      0.83621791605471
  H   -1.19152700760647     -1.62746823970784      0.05204366438178
  C   -1.06972505009981      0.33785667073129     -1.65029728341405
  N   -1.38258781748172      0.27257411224625     -2.78086248454038
