14
Coordinates from ORCA-job run
  C   0.65337609746484      0.43453244588647     -0.20924649971662
  C   -0.85658199430018      0.14588895583371     -0.30778707858019
  F   1.00935325639238      1.42436255106789     -1.06888033693852
  H   -1.35415377144795      1.10005597682061     -0.11087851191440
  N   0.96856302967394      0.97824343270964      1.19180502932942
  O   0.09520190109815      1.66729054829073      1.70694802988186
  O   2.08379658438056      0.73983796296940      1.63678925406523
  C   1.45054539132699     -0.77073812222878     -0.43276805728073
  N   2.00938552940329     -1.78506547989019     -0.63169460077392
  N   -1.34955992582439     -0.83756331301543      0.61802299854220
  H   -1.31829757340895     -0.51170875007772      1.57342894282591
  H   -0.89968552684511     -1.73835205746877      0.52026026757964
  C   -1.14019292312135     -0.25430087630334     -1.69134229296807
  N   -1.35175007479220     -0.59148327459421     -2.79565714405181
