14
Coordinates from ORCA-job run
  C   0.65639410503320      0.32184136348594      0.27877959716745
  C   -0.63810587240227     -0.17230367070824     -0.37818585267882
  F   0.36149087366173      1.05174214650878      1.37563473705725
  H   -0.34925977286696     -0.74233468092370     -1.26497296158667
  N   1.46845923949471     -0.90367685497601      0.71768366451337
  O   1.69312242466988     -1.03202937175109      1.90802338354245
  O   1.78567768770491     -1.64320178666367     -0.20487727742315
  C   1.47350013195509      1.09488117744323     -0.65554720804139
  N   2.13916183343110      1.70454149442048     -1.40690383835390
  N   -1.39087103813836      0.99417610556439     -0.78088323764262
  H   -2.10170608995286      0.74872249720150     -1.45723833835902
  H   -1.83519741652311      1.43118882479015      0.01689761677991
  C   -1.33257774208509     -1.07987639706429      0.55657972731762
  N   -1.93008836398197     -1.77367084732746      1.29300998770753
