14
Coordinates from ORCA-job run
  C   0.62389772694764      0.30749210948789      0.35599196439774
  C   -0.61209947824705     -0.14693167832023     -0.42940183264885
  F   0.24415389106344      0.82259314661096      1.54502398783491
  H   -0.25645415918719     -0.54682371882212     -1.38255295156946
  N   1.50186936069531     -0.92211941597795      0.61991959550570
  O   1.90136966108442     -1.47222543563951     -0.39822115146948
  O   1.69218621104137     -1.23835490047183      1.78083212488094
  C   1.41792057589229      1.27649479767871     -0.39805975500639
  N   2.07102569750098      2.04643368510555     -0.99822004409805
  N   -1.42499022837092      1.02366401560476     -0.67192332264154
  H   -1.92567208133548      1.29574443948766      0.16482226575644
  H   -2.09307131265998      0.85154056207219     -1.41136807834694
  C   -1.27916687389482     -1.23259432548938      0.31657597989018
  N   -1.86096899053002     -2.06491328132672      0.90758121751478
