14
Coordinates from ORCA-job run
  C   0.69767965512066      0.47283271050800     -0.05480823710034
  C   -0.73623905207153      0.13542867606263     -0.55527602508702
  F   0.72716700927302      1.80182901129951      0.21120112816881
  H   -0.84269106224657      0.72532212547969     -1.47428797028087
  N   0.94041615270431     -0.27108768310623      1.25359092668816
  O   0.64941516755360      0.32959380356614      2.27778176897432
  O   1.33390214744304     -1.42479196542027      1.13779392073952
  C   1.74240067630767      0.11769148272815     -1.00907313421456
  N   2.54679416974435     -0.12796277227899     -1.83019316652250
  N   -1.79096660247743      0.50647297979095      0.34981683385218
  H   -1.72957050591854      1.48721914841999      0.59183455901118
  H   -1.78565668753117     -0.04911839506137      1.19581170061822
  C   -0.82780980797015     -1.28389367303210     -0.90833476505200
  N   -0.92384125993125     -2.42053544895610     -1.18585753979510
