14
Coordinates from ORCA-job run
  C   0.81019875552018      0.43275932811030     -0.10014730510858
  C   -0.67461164578539      0.26480395927694     -0.47974449369032
  F   1.10295900899056      1.74674919737732     -0.05075052143343
  H   -0.81452683982287      0.97484436354855     -1.30262541027960
  N   1.01757643707877     -0.14390679287384      1.30578666795071
  O   1.61273404972652      0.54739108123108      2.11063380915201
  O   0.55350455449199     -1.26634914334397      1.46150606406306
  C   1.73007956701400     -0.25981050648808     -1.00460207060992
  N   2.45980655946450     -0.80135113752365     -1.74995400375963
  N   -1.48291891181899      0.68654559636005      0.64438665753572
  H   -1.72049674866661     -0.09965623380857      1.23635515288980
  H   -2.33467102342516      1.13092668126571      0.33174036911705
  C   -0.97071759106357     -1.08110142546553     -0.99466379228560
  N   -1.28891617170394     -2.13384496766629     -1.40792112354128
