14
Coordinates from ORCA-job run
  C   0.79601478782724      0.44710449716531     -0.13564707363953
  C   -0.68695687535973      0.21735500736323     -0.48840934941391
  F   1.05358875635456      1.76908950863486     -0.16963445580524
  H   -0.85380359369510      0.87251602594138     -1.35076444381086
  N   1.03168710089331     -0.03640216159282      1.30048956702816
  O   1.61589764850671      0.71825568012674      2.05486782705959
  O   0.59884185544222     -1.15875613974972      1.52968965840179
  C   1.72714205312098     -0.27446747107687     -1.00524776814723
  N   2.46859467679049     -0.84001597769448     -1.72065840423524
  N   -1.49545215251324      0.68483761352370      0.61765912915296
  H   -2.36189577096617      1.08676866960009      0.28821568635591
  H   -1.70605158468596     -0.07033036192346      1.25814196118675
  C   -0.95001414931976     -1.16489063551155     -0.91791957432995
  N   -1.23659275239554     -2.25106425480641     -1.26178275980319
