14
Coordinates from ORCA-job run
  C   0.72204057148467      0.50168649504719     -0.05706340179809
  C   -0.69740586375421      0.08892903598129     -0.48084554064866
  F   0.72172315196772      1.84784259841326      0.10523057304502
  H   -0.89947867909915      0.68506640079231     -1.38546440794768
  N   1.03046250598609     -0.13746841868120      1.30011702805407
  O   1.15131814109262     -1.35280771842435      1.25994182512441
  O   1.10418116582446      0.60663028306506      2.25952089159172
  C   1.75537167934284      0.10213713032185     -1.00927450873468
  N   2.56528296554446     -0.19530179764420     -1.80709933051920
  N   -1.57857307485488      0.36093939482867      0.64001440528785
  H   -2.46821455231991     -0.10527553853117      0.52045592636104
  H   -1.73743417184128      1.35695016788696      0.72699048308992
  C   -0.76641648674805     -1.32270755903331     -0.86068676481392
  N   -0.90285735262538     -2.43462047402236     -1.21183717809180
