14
Coordinates from ORCA-job run
  C   0.59667466802201      0.40584611976758      0.29951706921764
  C   -0.57577985033699     -0.27457231888046     -0.41701255935312
  F   0.12602422216184      1.24964889956494      1.24279792883651
  H   -0.14766972439803     -0.93865092036184     -1.17238951497344
  N   1.42792925358829     -0.68047766651947      0.99392562262984
  O   1.51326082311302     -0.63279958776252      2.20811891119006
  O   1.90290624249304     -1.50663760023132      0.22544518435920
  C   1.46844318363942      1.11212221690267     -0.63804610165848
  N   2.18333558577980      1.67442342491205     -1.38120795515950
  N   -1.34528992507370      0.76161321605325     -1.06792957742466
  H   -1.95202289883656      0.36923838412540     -1.77551355179244
  H   -1.90968866000064      1.26828131013797     -0.39740729588211
  C   -1.32153308572918     -1.09294642709542      0.56000824102023
  N   -1.96558983442231     -1.71508905061284      1.32069359899025
