14
Coordinates from ORCA-job run
  C   0.62888949433957      0.30601196096548      0.34917094794630
  C   -0.61514725986107     -0.14569169626050     -0.42505057923984
  F   0.25917055646046      0.85430919434298      1.52614340916649
  H   -0.26726956754584     -0.57277119379598     -1.36929752937652
  N   1.48719433618676     -0.93156499036480      0.64077858061612
  O   1.87688676874141     -1.51142434665109     -0.36455978255511
  O   1.67375735596479     -1.22378230045509      1.80856207898785
  C   1.43770548945773      1.24340924956216     -0.42882285904541
  N   2.10024262706911      1.98653705473183     -1.05196039620693
  N   -1.40934766546114      1.03216193047855     -0.69262858414794
  H   -1.90480601260833      1.33043173224553      0.13824309820990
  H   -2.08063674859093      0.85485827715212     -1.42791391308906
  C   -1.29823777237615     -1.20446750400522      0.34483308363203
  N   -1.88940160177639     -2.01801736794597      0.95250244510213
