14
Coordinates from ORCA-job run
  C   0.64647467743694      0.34910954232681      0.26159270856632
  C   -0.62191166748388     -0.22336588624431     -0.38177916745346
  F   0.30952218530666      1.24356821074828      1.21520449582015
  H   -0.30009118085663     -0.93517533896770     -1.14630904135567
  N   1.40796893082997     -0.80448703391873      0.92772812830271
  O   1.55952190467735     -0.75474303289383      2.13531704624626
  O   1.76612074082401     -1.67646499282942      0.14674645237663
  C   1.53093774830292      0.95872376891698     -0.73040193178589
  N   2.25923517964719      1.44352897695469     -1.51423642560365
  N   -1.32168865906925      0.87424700144793     -1.01028188629481
  H   -1.80019867556250      1.44061138504914     -0.32126374592795
  H   -1.99777416984606      0.53445594935034     -1.68074688244110
  C   -1.39013322809928     -0.95245022288999      0.64713841088843
  N   -2.04898378610743     -1.49855832705021      1.45229183866204
