14
Coordinates from ORCA-job run
  C   0.74541485955313      0.42701277269157     -0.19312031355439
  C   -0.76503302535108      0.18484160094949     -0.25964721658541
  F   1.10731883053185      1.37931953114758     -1.08757330858943
  H   -1.21927006914369      1.15601082450949     -0.04068306145271
  N   1.03798627216124      0.98679032745904      1.20270709638049
  O   1.80087460551650      0.36033080542416      1.92201592346309
  O   0.46392989126774      2.03811630059070      1.44856191777127
  C   1.50920241703585     -0.80187774153288     -0.40281278299121
  N   2.05116083858003     -1.82038660101038     -0.62522798545061
  N   -1.10686409549093     -0.74971985904498      0.78984534947521
  H   -2.07441850292861     -0.64862459711046      1.06486798052337
  H   -0.95055773111151     -1.70813718753648      0.50040320623595
  C   -1.13638482148115     -0.21605658273418     -1.62652180315730
  N   -1.46335946913936     -0.58861959380266     -2.69181500206833
