14
Coordinates from ORCA-job run
  C   0.58537762769581      0.36708146534241      0.36240049981955
  C   -0.56763906116881     -0.22112347629627     -0.45966040354377
  F   0.09087300040399      1.05071147152150      1.41638220614040
  H   -0.12062653819986     -0.75777207514132     -1.30047640721341
  N   1.43469806383620     -0.79431844727113      0.89495451584028
  O   1.92825329489197     -1.48967310744574      0.01664522112546
  O   1.51523719550639     -0.92356216024413      2.10353813920037
  C   1.44886793145274      1.22258858752250     -0.45028148625816
  N   2.15483026120823      1.90659241870904     -1.09324174089280
  N   -1.35259260111717      0.88567481011819     -0.95789512756944
  H   -1.94632684737138      0.59145942357138     -1.72195602672508
  H   -1.93148310527882      1.27732932235144     -0.22553091141907
  C   -1.30377991448547     -1.18845843564550      0.37873549023723
  N   -1.93768930737383     -1.92652979709236      1.03738603125845
