14
Coordinates from ORCA-job run
  C   0.54920724842749      0.40000072556207      0.38696735453990
  C   -0.53663468861912     -0.24814761988439     -0.48060664174721
  F   -0.02197529937651      1.04612697835146      1.42549487273783
  H   -0.02797092430811     -0.74783851668975     -1.30915252796381
  N   1.44457310876722     -0.71450288174461      0.94413985404191
  O   1.48256895725610     -0.85276790912313      2.15379475546220
  O   2.01384515634867     -1.36985108801926      0.08088475851642
  C   1.39080645888666      1.30823349826857     -0.39067446642145
  N   2.08252376494458      2.02711721809777     -1.01072674804452
  N   -1.36876681783391      0.81469096093285     -0.99749367309683
  H   -1.91332843568797      0.49484003583024     -1.78735150916199
  H   -1.99831889611751      1.16128475253653     -0.28446756338230
  C   -1.24247997378152     -1.26740060542479      0.32129197697506
  N   -1.85404965890606     -2.05078554869356      0.94789955754479
