14
Coordinates from ORCA-job run
  C   0.51273951189170      0.29940438926993      0.40425622486573
  C   -0.62734466375852     -0.27255772485121     -0.47510249401241
  F   0.00293429361944      0.78708739203529      1.55526785925465
  H   -0.15923310191530     -0.68721663688680     -1.37293137582839
  N   1.48747321008499     -0.83078979302000      0.73835238469180
  O   2.04750303494452     -1.30321282128107     -0.24322470125718
  O   1.58148324078283     -1.16714694150888      1.90538549941236
  C   1.24617844659915      1.34162301299800     -0.31402878502826
  N   1.77795935948959      2.19102438758495     -0.92752138963665
  N   -1.61539644434521      0.70184776126381     -0.85817898613183
  H   -1.24278275351933      1.37478765531844     -1.51554769781610
  H   -2.00424268482176      1.17756544601449     -0.05420334204691
  C   -1.25703404479251     -1.37080444083882      0.27150308943457
  N   -1.75023740425962     -2.24161168609811      0.88497371409862
