14
Coordinates from ORCA-job run
  C   0.64270801714691      0.33719741538473      0.29044833829720
  C   -0.62005439693249     -0.19474311353287     -0.39768878552015
  F   0.29677991560123      1.12622518710830      1.33025707408820
  H   -0.29132654422752     -0.81468048796371     -1.23574984894993
  N   1.43250140519197     -0.86018574351669      0.83411023455006
  O   1.79535723126465     -1.64721748407917     -0.03051808826505
  O   1.59593906412880     -0.92511329414295      2.03946357614774
  C   1.50407465076440      1.06005361285423     -0.64423092468422
  N   2.21121336820590      1.63196571136398     -1.38761870823919
  N   -1.35174651185498      0.94584132574935     -0.90003126423940
  H   -2.02581970778986      0.66355389840218     -1.59891091930582
  H   -1.83682691675315      1.42338282213837     -0.15102868499351
  C   -1.35951418628786     -1.04800090357791      0.55399221422007
  N   -1.99328538845800     -1.69827894618783      1.29950578689399
