14
Coordinates from ORCA-job run
  C   0.65352823924687      0.33223869765528      0.26776083881272
  C   -0.63842475107033     -0.18736405670202     -0.37317279137063
  F   0.35521414542605      1.08967108263111      1.34490763249071
  H   -0.34758779139214     -0.78355374473286     -1.24197810130176
  N   1.47365351549886     -0.87599690546591      0.73840960904201
  O   1.69987276482078     -0.97157337229816      1.93143876247631
  O   1.79469950099026     -1.63747814901602     -0.16461768885777
  C   1.46748512982182      1.08559511990892     -0.68518093112755
  N   2.14154547048978      1.68505720626949     -1.43732680589157
  N   -1.39684510535429      0.96287768073804     -0.81151434368450
  H   -1.83993083252211      1.42340695281075     -0.02623153883478
  H   -2.11066216270769      0.69092582692883     -1.47487725676223
  C   -1.32887170770580     -1.06894836825043      0.58938686913629
  N   -1.92267641554207     -1.74485797047703      1.34499574587275
