14
Coordinates from ORCA-job run
  C   0.69025779250005      0.48203464039235     -0.06670469580085
  C   -0.73675333948950      0.10777742923077     -0.56049426204806
  F   0.69846732088361      1.81845775108559      0.16057928051193
  H   -0.85002139952513      0.66982145821283     -1.49601897739105
  N   0.94089289725864     -0.21950129974215      1.26373487241091
  O   1.35224969799508     -1.36993537395515      1.18283857018120
  O   0.63828168521563      0.40653811804520      2.26919437005044
  C   1.74315353183011      0.11529324560169     -1.00745066033983
  N   2.55262829649174     -0.14224392485191     -1.81984854586051
  N   -1.79966931889649      0.48762991716076      0.33124821054789
  H   -1.78729302042167     -0.04262418515119      1.19331070855204
  H   -1.75472105356973      1.47594532715476      0.54442091716376
  C   -0.80497691354159     -1.32208416520634     -0.87393063996050
  N   -0.88349617673078     -2.46710893797720     -1.12087914801739
