14
Coordinates from ORCA-job run
  C   0.72012060435217      0.34402387452312     -0.14288381351070
  C   -0.79263497504944      0.23062685140491     -0.41100587107421
  F   1.28975309673915      1.24434450747941     -0.98609760974470
  H   -1.18933424053419      1.24462108901877     -0.30521236757442
  N   0.93951058814041      0.91136876851819      1.26696256989089
  O   0.09695899949308      1.71040320251354      1.66011211061113
  O   1.96612060121973      0.57321958900488      1.84142517816788
  C   1.38459248840961     -0.95541974732990     -0.23197934821063
  N   1.83549679074763     -2.03598472075425     -0.33138678942030
  N   -1.50532810458630     -0.64481906548907      0.47944497577033
  H   -1.54270859059026     -0.28218822248981      1.42120808315015
  H   -1.16177986668931     -1.59605295321585      0.46341539394376
  C   -0.96118615004473     -0.19523751629799     -1.80557643846664
  N   -1.07858124160755     -0.54990565688596     -2.91842607353253
