14
Coordinates from ORCA-job run
  C   0.64141485519840      0.35056974426385      0.27668971544236
  C   -0.61985818560428     -0.21360262063039     -0.38813366790281
  F   0.29395349053518      1.16857237000858      1.29300718971871
  H   -0.28923176825835     -0.85951892424078     -1.20565777480022
  N   1.44382247944308     -0.82311602859906      0.85331459655777
  O   1.61469319174415     -0.84850524584059      2.05909737132991
  O   1.80882180657190     -1.63370224077905      0.01155568424187
  C   1.49264118090672      1.05069530662957     -0.68413441782346
  N   2.19055041141255      1.60607084236002     -1.44835984876930
  N   -1.36131531507431      0.90385817234253     -0.92761451548444
  H   -2.03724168561608      0.59144764394652     -1.61184069124330
  H   -1.84611078215902      1.40484335960677     -0.19359715448481
  C   -1.35023225844563     -1.03745323073978      0.59575354935700
  N   -1.97990742065431     -1.66015914832818      1.36791996386071
