14
Coordinates from ORCA-job run
  C   0.72853102065257      0.49321797946453     -0.02657192583394
  C   -0.68481613438022      0.11134917212164     -0.49683328795851
  F   0.74238317868358      1.83475872869909      0.16965464836890
  H   -0.85594532091509      0.73447576290094     -1.38958404811546
  N   0.99278808274093     -0.18363282125244      1.32191862545109
  O   1.09861613319501     -1.39914103330198      1.25474185142073
  O   1.05141757036881      0.53549973051308      2.30120279839772
  C   1.78216492381601      0.10264661625630     -0.96026428540054
  N   2.61503989595334     -0.18592366494458     -1.73743369280935
  N   -1.59081507982228      0.36452626987594      0.60842552206736
  H   -2.48148948602017     -0.08973114101688      0.45600564172516
  H   -1.74198325355022      1.35952849008587      0.71728636409967
  C   -0.76057108348439     -1.28838777154353     -0.91719700315171
  N   -0.89532044723788     -2.38918631785799     -1.30235120826112
