14
Coordinates from ORCA-job run
  C   0.81289104992934      0.42917668764932     -0.08605478490955
  C   -0.66687373233004      0.27122295082689     -0.48812369359078
  F   1.11114705586733      1.74147126729549     -0.02401078139703
  H   -0.79174703913773      0.98665231186236     -1.30865626600994
  N   0.99695318497609     -0.15727303126043      1.31885875973106
  O   0.52746009320291     -1.27945556982991      1.45985998466932
  O   1.58089186043296      0.52722759961816      2.13759273909719
  C   1.74299044130541     -0.26130206862333     -0.98155321088774
  N   2.48393395814645     -0.79942263207633     -1.71831563798821
  N   -1.48838144383960      0.69166889068521      0.62747529299991
  H   -2.33467772573624      1.13956017012045      0.30464953226284
  H   -1.73728209955396     -0.09703056862051      1.21154932273213
  C   -0.96165784235763     -1.07063423607361     -1.01443457804556
  N   -1.27464776090528     -2.12086177157375     -1.43783667866367
