14
Coordinates from ORCA-job run
  C   0.75574284276933      0.52878243693018     -0.02512454694048
  C   -0.67084618506030      0.20976981043503     -0.51433981864877
  F   0.88559068603892      1.86357976892295      0.10295957612202
  H   -0.84203348636167      0.94042155841937     -1.31288603082173
  N   0.94064688052171     -0.09286187934194      1.36432913011762
  O   0.60589768419385     -1.26862293254164      1.43697885148170
  O   1.39747545325638      0.61934280686332      2.23847893153851
  C   1.80906146955924     -0.00366804775264     -0.89175145882092
  N   2.65121388115757     -0.41710280099089     -1.59954675708669
  N   -1.59325280622897      0.47634620467710      0.56915174418103
  H   -1.77114537660675     -0.36193973904002      1.10826536317416
  H   -2.47125521060577      0.83190192423753      0.21759756958944
  C   -0.76985009528702     -1.13319641361546     -1.10707452749566
  N   -0.92824573734651     -2.19375269720289     -1.58703802639024
