14
Coordinates from ORCA-job run
  C   0.83047626786283      0.17576022834994     -0.23402684304547
  C   -0.68957522735354      0.19732183979825     -0.41761596778794
  F   1.44515654010293      0.61019370429344     -1.36111743705275
  H   -0.93318410983677      1.23732608697423     -0.65526622417095
  N   1.15180194222555      1.18662619952299      0.87173504743781
  O   1.71329716916821      0.77710076371884      1.87616150948373
  O   0.80961938375084      2.33216659332053      0.61492137035643
  C   1.31877624129537     -1.14787055254384      0.14979468887510
  N   1.63644333542258     -2.24865012236178      0.41037055564765
  N   -1.29007140692243     -0.15732280573842      0.84945805035864
  H   -1.32819433886512     -1.16202911105782      0.97507887274202
  H   -2.22743070791744      0.21407524024097      0.92363864666456
  C   -1.05419950353056     -0.65172780788326     -1.56383344901099
  N   -1.38291558540244     -1.36297025663409     -2.43929882049784
