14
Coordinates from ORCA-job run
  C   0.62007454546565      0.36207086573693      0.30512206553226
  C   -0.60219234654248     -0.22468890053248     -0.41050022845785
  F   0.21708972843847      1.12531050609681      1.34357340533852
  H   -0.22769787296188     -0.82820538266512     -1.24139498957300
  N   1.45666582872718     -0.80004208043576      0.85496535422786
  O   1.60392012016738     -0.86507142584267      2.06251553117923
  O   1.87472991890787     -1.56070234247506     -0.00849896118154
  C   1.46336891661562      1.13377615460899     -0.60669754063439
  N   2.15650375786059      1.75031613145532     -1.32704780808419
  N   -1.37265486441609      0.88294087176532     -0.92998178518312
  H   -1.89113303794488      1.34091899198791     -0.19080932226925
  H   -2.02236734784444      0.56893407365344     -1.63854203224400
  C   -1.32485297312736     -1.10842527101223      0.52597717633957
  N   -1.95145437334563     -1.77813219234141      1.26031913500991
