14
Coordinates from ORCA-job run
  C   0.61678222640834      0.32362937494536      0.35318530987658
  C   -0.59881183755513     -0.17129633827935     -0.43940877493520
  F   0.20489397420813      0.94468296900704      1.47890148392841
  H   -0.21675362508800     -0.65988545855023     -1.33950938514109
  N   1.45612176150771     -0.89661190380053      0.75371436948634
  O   1.59722176968461     -1.11560323519823      1.94366537331925
  O   1.87884516888442     -1.54019969855654     -0.19796231453309
  C   1.46101612109068      1.20908252420356     -0.44757243219681
  N   2.15322555877979      1.91396357326614     -1.08288186154516
  N   -1.37334882172235      0.99056414906387     -0.81387468496046
  H   -2.01790989366615      0.76798707866894     -1.56079994348667
  H   -1.89809745725867      1.34488774953423     -0.02395101304505
  C   -1.31982517958929     -1.17401970662299      0.36995289685976
  N   -1.94435976568410     -1.93818107768128      1.00754097637319
