14
Coordinates from ORCA-job run
  C   0.74340644933425      0.54259945050639     -0.05334403409408
  C   -0.67961309016265      0.17223916532502     -0.51562649521738
  F   0.84274080724995      1.88400691210970      0.02242316660103
  H   -0.87362347095054      0.86456244466080     -1.34264408215543
  N   0.95539742802569     -0.02002739256543      1.35763099212764
  O   0.63664299447265     -1.19551817691428      1.48356744697689
  O   1.41280935320680      0.73396700164562      2.19550766773392
  C   1.80153568372251      0.00361781606467     -0.90999283224253
  N   2.64767497889829     -0.41011865498512     -1.61309038630381
  N   -1.59830314333318      0.46362963601088      0.56431706362588
  H   -1.75755806785454     -0.35563498006662      1.13720476990507
  H   -2.48460854119576      0.79242027848514      0.20819746289862
  C   -0.75372778903157     -1.19623107790068     -1.05086944783704
  N   -0.89277359238190     -2.28051242237609     -1.48128129201878
