14
Coordinates from ORCA-job run
  C   0.61602804131011      0.37776109160244      0.29912420101026
  C   -0.59823728494064     -0.23752136061840     -0.40708934271704
  F   0.20274273296867      1.16371631194613      1.31575416310837
  H   -0.21486502732572     -0.85340834660401     -1.22473839933416
  N   1.45969551667287     -0.76339748848890      0.88174504199687
  O   1.88338406193423     -1.54488751581096      0.04007385440537
  O   1.60107096462748     -0.79699716720219      2.09123022642094
  C   1.45670323858460      1.13053991171692     -0.63065069360282
  N   2.14799800932957      1.72662724709139     -1.36987070073825
  N   -1.37929847243421      0.85117556418529     -0.94993337422115
  H   -2.01857365374501      0.51783184210612     -1.65908998331978
  H   -1.90941587476908      1.31423296883420     -0.22220591550448
  C   -1.31317526227024     -1.11049630361629      0.54510665778943
  N   -1.93305698994261     -1.77317675514174      1.29154426470644
