14
Coordinates from ORCA-job run
  C   0.78399823923651      0.33872321416681     -0.21306615542963
  C   -0.74092799263289      0.22824523489957     -0.29655858272630
  F   1.24746817732610      1.16526772660115     -1.18238697899208
  H   -1.10729003880270      1.25324793719402     -0.18477495537013
  N   1.10236003017451      1.00003035613926      1.13194866331903
  O   0.62559233163597      2.11843964320121      1.26304169575310
  O   1.79133195056186      0.37844971011399      1.92627970255176
  C   1.43489799983970     -0.96832193217866     -0.28705284069718
  N   1.88318455820227     -2.04868069505846     -0.39872157864054
  N   -1.18651647655123     -0.56416502137982      0.82848374616138
  H   -1.11254351259146     -1.55638070826848      0.63666113329292
  H   -2.14611419210254     -0.35095144261537      1.06495554378915
  C   -1.12070320933998     -0.27210574449458     -1.62783649497328
  N   -1.45373786495611     -0.72179827832064     -2.66097289803820
