14
Coordinates from ORCA-job run
  C   0.66938734036512      0.51708967888930     -0.24487563788960
  C   -0.80339438884624      0.10376257518519     -0.17681216851433
  F   0.82961085519463      1.53485790052456     -1.12558608906818
  H   -1.33906506913485      1.00847661871988      0.12644035222267
  N   1.03599265908964      1.05889912630971      1.14066235177465
  O   0.37765624026160      2.02952020534773      1.48666623346215
  O   1.93077883204387      0.49929977072824      1.75561410057657
  C   1.54138072821567     -0.60684177000534     -0.58211429558267
  N   2.16893731448861     -1.54740849268034     -0.90167126059347
  N   -0.93242115924588     -0.89736182408763      0.85888536536494
  H   -0.69858587212085     -1.82134152961494      0.51487138676846
  H   -1.87310730488504     -0.91808922943530      1.22869933044254
  C   -1.26124909122051     -0.29372972311255     -1.51832075250748
  N   -1.64592108420575     -0.66813330676852     -2.56345891645624
