16

C	-0.476987	0.000185	-1.476899
C	0.0	0.0	0.0
Cl	0.250397	1.380459	-2.350491
H	1.096113	0.0	0.0
C	-0.111986	-1.233391	-2.180631
N	0.177196	-2.220124	-2.749324
C	-1.937559	0.145492	-1.51849
N	-3.109552	0.226661	-1.507602
C	-0.50296	-1.241652	0.71953
H	-0.082657	-1.240116	1.727425
H	-0.172244	-2.158501	0.228063
H	-1.596942	-1.249274	0.792304
N	-0.480959	1.234673	0.605108
H	0.313384	1.779414	0.914935
H	-1.073778	1.041701	1.401125
Cl	3.363365	0.0	0.0
