16

C	-0.443494	-0.001568	-1.475944
C	0.0	0.0	0.0
Cl	-2.260389	0.028891	-1.585359
H	1.096856	0.0	0.0
C	0.038732	1.194149	-2.170954
N	0.413838	2.156984	-2.730581
C	-0.000995	-1.203308	-2.188413
N	0.348905	-2.164376	-2.768276
C	-0.464092	-1.24786	0.73629
H	-0.123004	-2.160369	0.241396
H	-0.019612	-1.229366	1.7337
H	-1.553835	-1.281003	0.834021
N	-0.438083	1.254148	0.586757
H	-1.263825	1.125842	1.160584
H	0.312163	1.627341	1.155538
Cl	3.317424	0.0	0.0
