16

C	-0.446905	0.006371	-1.477661
C	0.0	0.0	0.0
Cl	-2.263148	0.035507	-1.581361
H	1.09675	0.0	0.0
C	0.031446	1.207795	-2.164517
N	0.381901	2.178235	-2.725235
C	-0.004857	-1.190361	-2.198235
N	0.340919	-2.148171	-2.784063
C	-0.467585	-1.247958	0.732523
H	-1.556267	-1.26967	0.844294
H	-0.145417	-2.159937	0.224911
H	-0.009407	-1.244415	1.723708
N	-0.437136	1.251416	0.59586
H	-1.215861	1.109639	1.224083
H	0.335261	1.656463	1.105783
Cl	3.308444	0.0	0.0
