16

C	-0.482023	-0.012266	-1.466312
C	0.0	0.0	0.0
Cl	0.185971	1.405703	-2.34499
H	1.100767	0.0	0.0
C	-0.057857	-1.224493	-2.173056
N	0.277084	-2.192893	-2.747408
C	-1.947913	0.069511	-1.519379
N	-3.121946	0.082703	-1.563238
C	-0.511912	-1.229283	0.731701
H	-0.197217	-2.149758	0.237323
H	-0.074508	-1.237715	1.733311
H	-1.603179	-1.215588	0.820844
N	-0.541904	1.217181	0.608745
H	0.137182	1.959986	0.476678
H	-0.606771	1.067178	1.608758
Cl	3.382622	0.0	0.0
