16

C	-0.447519	-0.024472	-1.4762
C	0.0	0.0	0.0
Cl	-2.264576	-0.015859	-1.583133
H	1.101659	0.0	0.0
C	0.016138	1.171104	-2.18291
N	0.34405	2.128097	-2.779452
C	0.006003	-1.227547	-2.177615
N	0.325201	-2.209356	-2.738114
C	-0.465007	-1.232329	0.759691
H	-1.553103	-1.248692	0.879086
H	-0.148774	-2.154755	0.267186
H	0.000342	-1.210662	1.747537
N	-0.439645	1.262508	0.570826
H	-1.194491	1.128249	1.230854
H	0.343254	1.699183	1.040697
Cl	3.315234	0.0	0.0
