16

C	-0.447101	-0.016386	-1.477642
C	0.0	0.0	0.0
Cl	-2.261762	-0.019663	-1.584227
H	1.10188	0.0	0.0
C	0.011237	1.189038	-2.170798
N	0.341015	2.152381	-2.756365
C	0.019383	-1.210767	-2.187113
N	0.359919	-2.183608	-2.751199
C	-0.464037	-1.236746	0.751813
H	0.004396	-1.223631	1.738012
H	-0.150907	-2.155951	0.251526
H	-1.551332	-1.253106	0.874483
N	-0.444502	1.257189	0.577951
H	-1.19093	1.117276	1.244013
H	0.338558	1.699441	1.039982
Cl	3.314608	0.0	0.0
