17

C	0.0	0.0	0.0
C	-0.380035	-0.413185	-1.452373
Cl	1.858636	0.0	0.0
H	0.409092	-0.029923	-2.108464
N	-0.529003	1.269564	0.251105
H	-0.560852	1.890102	-0.542226
H	-0.200977	1.69969	1.100639
C	-0.443369	-0.976304	1.072304
H	-0.173249	-0.581397	2.055363
H	-1.533726	-1.059931	1.018837
H	0.023162	-1.953216	0.947839
N	-1.625771	0.203998	-1.859203
H	-2.38503	0.074548	-1.179223
H	-1.937148	-0.19103	-2.737825
C	-0.31794	-1.886723	-1.587322
N	-0.281438	-3.044759	-1.783942
Br	-4.446168	0.0	0.0
