17

C	0.0	0.0	0.0
C	-0.481371	0.136582	-1.449476
Cl	1.855809	0.0	0.0
H	-1.578115	0.083622	-1.346103
N	-0.484826	1.102021	0.731738
H	-0.500225	0.945036	1.727667
H	-0.036771	1.976643	0.499715
C	-0.478697	-1.301965	0.596596
H	-0.127028	-2.140496	-0.000999
H	-0.102285	-1.401513	1.618745
H	-1.573836	-1.270444	0.602618
N	-0.012754	-0.948784	-2.294914
H	-0.595318	-1.002136	-3.12055
H	0.943538	-0.778819	-2.581475
C	-0.139399	1.472525	-1.975439
N	0.155015	2.509837	-2.443179
Br	-3.978807	0.0	0.0
