17

C	0.0	0.0	0.0
C	-0.310501	-0.006233	-1.547367
Cl	1.792831	0.0	0.0
H	0.318256	0.790737	-1.965349
N	-0.492278	1.174032	0.661536
H	-0.296944	2.004303	0.112453
H	-1.502536	1.079948	0.765138
C	-0.52261	-1.229881	0.710456
H	-1.614485	-1.245553	0.632312
H	-0.247974	-1.174414	1.764599
H	-0.11065	-2.140645	0.275163
N	-1.662225	0.240221	-1.977242
H	-2.348348	-0.332806	-1.490955
H	-1.926758	1.190906	-1.752386
C	0.164287	-1.262828	-2.152906
N	0.521174	-2.264683	-2.65016
Br	-4.254488	0.0	0.0
