17

C	0.0	0.0	0.0
C	-0.47756	-0.159333	-1.458067
Cl	1.805605	0.0	0.0
H	-1.574067	-0.198231	-1.365716
N	-0.467983	1.210492	0.615724
H	-1.482709	1.11642	0.70685
H	-0.278799	2.007019	0.015805
C	-0.450206	-1.190645	0.826929
H	-0.047137	-2.113263	0.414455
H	-0.099171	-1.047842	1.84999
H	-1.542834	-1.229313	0.818838
N	-0.009443	-1.389435	-2.07935
H	-0.572354	-1.583498	-2.899315
H	0.955034	-1.281352	-2.37101
C	-0.13684	1.046647	-2.241388
N	0.151285	1.968929	-2.912317
Br	-3.839559	0.0	0.0
