16
Coordinates from ORCA-job run
  C   0.60440179328894      0.30546140262637     -0.08683965834886
  C   -0.74725991429538      0.16726495617348      0.64215209858640
  Cl  1.86947098901035      0.32757370757796      1.28061924806274
  H   -0.87199973465899      1.07709778526123      1.25266477437646
  N   0.60474290523049      1.51281374148011     -0.82109138190982
  H   0.50256367015772      2.32615625296026     -0.22666597281406
  H   1.44268073092392      1.61247565122898     -1.37943936696977
  C   0.92257138796958     -0.87952712539083     -0.97038592864260
  H   1.92779514428449     -0.77620463775408     -1.38450605464527
  H   0.86407386804313     -1.80268205085811     -0.39863155376340
  H   0.20134425072735     -0.91337275545965     -1.79009652669423
  N   -0.81601070486312     -1.06928057616039      1.40943202205695
  H   -1.76231185098908     -1.21759943497313      1.73767683761816
  H   -0.20611465133515     -0.99598096469352      2.21453682381650
  C   -1.82326992569496      0.16296201510263     -0.35690116532435
  N   -2.71367795779927      0.16384203287868     -1.12152419540486
