16
Coordinates from ORCA-job run
  C   0.56388949534196      0.28839074763317     -0.24854224067940
  C   -0.81916799870898     -0.18539274072982      0.25994589777291
  Cl  0.95032263289260      1.79649044796694      0.69305236852971
  H   -1.03520507912841     -1.10200412268098     -0.30237610863518
  N   0.53311813495831      0.62060692239419     -1.63790299145935
  H   0.70252743028583     -0.20019567485262     -2.20544345367356
  H   -0.36443357125236      1.03019597037652     -1.87193675698173
  C   1.64981609947479     -0.72839297716726      0.03669606426636
  H   1.40555782846637     -1.67778977960480     -0.45200280206981
  H   2.59611946245363     -0.35853949753882     -0.35986443639417
  H   1.75967257470155     -0.90267948280790      1.10665843266914
  N   -1.83978327584692      0.78941276428018     -0.09032521353430
  H   -2.76261984322092      0.39595573142521      0.04527533400269
  H   -1.75359919444411      1.60462790935836      0.50576249476854
  C   -0.78604501875920     -0.54392615234966      1.68934124443316
  N   -0.80116967721413     -0.82676006570272      2.82966216698499
