16
Coordinates from ORCA-job run
  C   0.49862691812150      0.19863053841688     -0.31388211824924
  C   -0.83111858667833     -0.27440595115831      0.29618520681870
  Cl  0.82526588536829      1.87827536818803      0.42908561666193
  H   -1.01068377182401     -1.26222394720028     -0.14247867858677
  N   0.32925488314646      0.24251396376804     -1.71301933231931
  H   -0.50477148464029      0.76558893924716     -1.95217192283515
  H   1.14038462049375      0.62357000379007     -2.18170654006724
  C   1.67017384096170     -0.67498674511347      0.08094729927636
  H   1.49028026886602     -1.69186269699935     -0.27691769328624
  H   2.58434666114147     -0.29912051918385     -0.38291987368497
  H   1.81432943876865     -0.68304722934089      1.16096635548691
  N   -1.91485212345640      0.59952064740155     -0.12706479582363
  H   -2.80854083867176      0.16027819290444      0.05517453242732
  H   -1.87566558006879      1.46848729550921      0.39315490318163
  C   -0.72262755471599     -0.44561752705267      1.75587804853288
  N   -0.68440257681226     -0.60660033317656      2.91876899246680
