16
Coordinates from ORCA-job run
  C   0.41703012110970      0.26118763741069     -0.21527972531493
  C   -0.93465858818117     -0.24468040102298      0.35542842019762
  Cl  0.79787193834812      1.83669782028626      0.54973752343037
  H   -1.13874387847803     -1.18113888379437     -0.18401123984774
  N   0.18233019249740      0.51770109668340     -1.63002344360223
  H   0.90643034637585      1.12528058687849     -1.99539187016200
  H   0.23501404355300     -0.36190690314442     -2.13539184212254
  C   1.56001570829419     -0.69819774612266      0.07258967337486
  H   2.47772304255622     -0.33185183423324     -0.39162061433833
  H   1.32443205614002     -1.68063668484978     -0.35078988956387
  H   1.73187405267757     -0.81284316144771      1.14346466512902
  N   -2.07211198803291      0.63015027778332      0.15992751239155
  H   -1.96538216172460      1.45263513764122      0.74282255544904
  H   -2.04494237173085      0.93716377475640     -0.80745998115848
  C   -0.80117410747154     -0.59056031436073      1.77435545640200
  N   -0.67670840593297     -0.86100040246388      2.90964279973566
