15
Coordinates from ORCA-job run
  C   0.53912327286771      0.26607438326572      0.67533192988087
  C   -0.71269347898211      0.15582442227299     -0.19467693719198
  Cl  0.42025203839029      1.92237035972663      1.45336459310004
  H   -1.61034800014949      0.28112707000646      0.40834268673220
  C   1.80326481269466      0.21593597584021     -0.06083016929782
  N   2.87454780541070      0.12304697602364     -0.53420506207297
  N   0.50747289905961     -0.81262516798286      1.59351528237161
  H   -0.29651082439731     -0.77335755578693      2.20871085733519
  H   1.35953001459047     -0.87591932928367      2.13589634281034
  N   -0.77955690077861     -1.21032938755591     -0.81758651908014
  O   0.01588574979683     -1.42508150759779     -1.72459757091569
  O   -1.60995491067395     -1.97610182300758     -0.34589627339558
  N   -0.80197887647179      1.14436018251561     -1.31879098191072
  O   -1.93452832135273      1.27874480423120     -1.77252353753103
  O   0.22449471999573      1.68693059733226     -1.70405464083433
