15
Coordinates from ORCA-job run
  C   0.49286079282641      0.31426642479627      0.69004492294320
  C   -0.73233043167613      0.03228073413330     -0.17923759887160
  Cl  0.08057140060363      1.86023653560328      1.58680323099689
  H   -1.62602203687969     -0.05558103052537      0.43617800728869
  C   1.73004073398217      0.55503441525708     -0.05414918026025
  N   2.79024693904657      0.69902853341512     -0.53953419124581
  N   0.68059252148214     -0.81271498007455      1.52772961766999
  H   1.53912537197977     -0.75304812011544      2.06016677626215
  H   -0.10544360971207     -0.96953248292698      2.14732838227834
  N   -0.55434342223901     -1.27482613785794     -0.89898431539233
  O   0.25018387246202     -1.27234376879463     -1.82324463788074
  O   -1.21847857032946     -2.21391302642196     -0.47997447194337
  N   -1.02615128744771      1.06280333961933     -1.22809923727781
  O   -0.12702808665163      1.81475588196783     -1.57825970174964
  O   -2.17182418744702      1.01255368192467     -1.66576760281772
