15
Coordinates from ORCA-job run
  C   0.72242168118165      0.36632025903388      0.43907399480086
  C   -0.28439084560306      0.18480055743220     -0.70639420772754
  Cl  0.80112953553546      2.19632736019888      0.69179280149199
  H   0.08203979499885      0.62858598228492     -1.62970397485547
  C   2.06106917836252     -0.00735510438186     -0.02599331883650
  N   3.15263923145689     -0.29026332759019     -0.35597027356957
  N   0.38012643481942     -0.39932470136060      1.56531768738547
  H   1.09438838022609     -0.37775944197320      2.28082773395681
  H   -0.52877794874634     -0.15065586821090      1.93398557424085
  N   -1.62632488623352      0.78831498909060     -0.43249418925252
  O   -2.21421320111158      1.20758145058492     -1.42359233460904
  O   -2.04273619936884      0.77862522293025      0.72044307574232
  N   -0.49563868437481     -1.29118328353217     -0.95873768769910
  O   0.42779655319731     -1.83313909239416     -1.55079784913345
  O   -1.52752902434005     -1.79987500211258     -0.54675703193511
