17

C	0.0	0.0	0.0
C	-0.222941	0.093129	-1.567535
Br	1.934825	0.0	0.0
H	0.449262	-0.660746	-1.972384
C	-0.514541	1.038275	0.870841
N	-0.622605	1.914719	1.650748
N	-0.421348	-1.369526	0.495066
O	-0.563393	-1.498771	1.699825
O	-0.454785	-2.265344	-0.340377
N	0.366206	1.390559	-2.054848
O	0.00336	2.430438	-1.512235
O	1.114128	1.326952	-3.031667
C	-1.552898	-0.037084	-2.285457
H	-2.243129	0.736782	-1.975529
H	-1.321636	0.018545	-3.358524
H	-2.00043	-0.993707	-2.041285
F	-2.271057	0.0	0.0
