17

C	0.0	0.0	0.0
C	-0.51382	-0.053452	-1.458539
Br	1.972729	0.0	0.0
H	-1.605424	-0.16442	-1.270497
C	-0.453411	1.209447	0.668926
N	-0.600616	2.250499	1.195412
N	-0.427161	-1.219495	0.797162
O	-0.519037	-2.262398	0.167637
O	-0.539974	-1.078034	2.003815
N	-0.06791	-1.231601	-2.272759
O	1.129499	-1.416804	-2.485005
O	-0.971069	-1.892364	-2.784921
C	-0.16963	1.197806	-2.241188
H	-0.58354	1.103412	-3.247838
H	-0.63913	2.058031	-1.764544
H	0.907594	1.35965	-2.316754
F	-2.507456	0.0	0.0
