16

C	-0.533085	0.083262	-1.407316
C	0.0	0.0	0.0
F	-0.032584	-0.922686	-2.170729
H	1.091443	0.0	0.0
H	-0.318615	-0.989286	0.343238
N	-1.953233	0.017103	-1.492328
H	-2.229053	0.016394	-2.468154
H	-2.351532	0.832842	-1.048293
N	-0.024184	1.384897	-2.087048
O	-0.658137	2.403471	-1.794236
O	0.930834	1.328376	-2.845281
C	-0.507061	1.074269	0.956086
H	-1.59699	1.072207	1.058359
H	-0.079983	0.884737	1.942533
H	-0.186519	2.068594	0.64648
Br	3.661183	0.0	0.0
