16

C	-0.388116	0.118985	-1.456592
C	0.0	0.0	0.0
F	-1.733051	0.377542	-1.584606
H	1.093014	0.0	0.0
H	-0.377013	-0.942958	0.402664
N	0.316619	1.071935	-2.246413
H	0.138501	1.986738	-1.84923
H	1.312751	0.885049	-2.152237
N	-0.172846	-1.249742	-2.109817
O	0.842303	-1.410693	-2.775648
O	-1.032689	-2.094156	-1.883484
C	-0.498848	1.179099	0.827244
H	-0.09789	2.124018	0.451236
H	-0.142723	1.074873	1.853846
H	-1.589303	1.24058	0.837803
Br	3.588468	0.0	0.0
