16

C	-0.510606	0.036836	-1.411525
C	0.0	0.0	0.0
F	0.081939	-0.974514	-2.151844
H	1.090575	0.0	0.0
H	-0.336422	0.904184	0.508656
N	-1.92248	0.00588	-1.528844
H	-2.171818	-0.052494	-2.509364
H	-2.286169	-0.798357	-1.03642
N	-0.102278	1.315344	-2.147547
O	-0.392825	1.339383	-3.343318
O	0.430887	2.217987	-1.516346
C	-0.475084	-1.252916	0.73498
H	-1.543658	-1.234012	0.973418
H	-0.253608	-2.147983	0.150175
H	0.072943	-1.337741	1.67437
Br	3.689135	0.0	0.0
