16

C	-0.538579	-0.034564	-1.411478
C	0.0	0.0	0.0
F	-0.09473	-1.139803	-2.059647
H	1.094854	0.0	0.0
H	-0.327961	0.93955	0.453218
N	-1.967421	0.015253	-1.59784
H	-2.32676	0.827797	-1.111939
H	-2.366223	-0.816919	-1.181431
N	-0.024554	1.183624	-2.174602
O	0.705179	1.014078	-3.136523
O	-0.4397	2.260615	-1.74795
C	-0.482195	-1.196997	0.813991
H	-0.204366	-2.129897	0.320205
H	-1.563808	-1.192792	0.98424
H	0.010911	-1.186582	1.787145
Br	3.635797	0.0	0.0
