16

C	-0.32668	0.084574	-1.466039
C	0.0	0.0	0.0
F	-1.65784	0.409403	-1.711776
H	1.091193	0.0	0.0
H	-0.37492	-0.932536	0.416963
N	0.505957	0.979786	-2.135818
H	1.462211	0.901835	-1.792124
H	0.469938	0.84024	-3.13623
N	-0.290619	-1.340494	-2.137178
O	-0.523781	-2.330072	-1.450311
O	-0.100751	-1.352661	-3.353874
C	-0.51741	1.216912	0.7579
H	-0.145122	2.13658	0.304444
H	-0.158216	1.180937	1.788749
H	-1.609396	1.252471	0.769036
Br	3.58159	0.0	0.0
