16

C	-0.279897	0.116964	-1.475143
C	0.0	0.0	0.0
F	-0.140718	1.460667	-1.864132
H	1.096335	0.0	0.0
H	-0.379939	0.88573	0.50799
N	0.508178	-0.7606	-2.216238
H	1.47809	-0.694422	-1.909704
H	0.414978	-0.613005	-3.210989
N	-1.753034	-0.110277	-1.846119
O	-2.595395	0.246137	-1.025949
O	-1.998771	-0.550778	-2.967728
C	-0.495117	-1.296712	0.62684
H	-0.080929	-1.390959	1.633006
H	-1.584276	-1.328854	0.695513
H	-0.149195	-2.153552	0.046765
Br	3.600294	0.0	0.0
