16

C	-0.304905	-0.076197	-1.474736
C	0.0	0.0	0.0
F	-0.318548	1.211416	-2.036599
H	1.0964	0.0	0.0
H	-0.32222	-0.939505	0.454006
N	0.560501	-0.954059	-2.124817
H	1.518813	-0.809656	-1.810406
H	0.470995	-0.891334	-3.129305
N	-1.737768	-0.532531	-1.805499
O	-1.958914	-0.820637	-2.97862
O	-2.576887	-0.539499	-0.908483
C	-0.543286	1.208453	0.7418
H	-0.196685	2.130619	0.275803
H	-0.162619	1.193518	1.765471
H	-1.633786	1.213238	0.774687
Br	3.613799	0.0	0.0
