15

C	-0.510344	0.000731	-1.447141
C	0.0	0.0	0.0
Br	0.244765	1.48435	-2.429002
H	1.08975	0.0	0.0
N	-0.037124	-1.302149	-2.150835
O	-0.475388	-1.472425	-3.278525
O	0.723421	-2.017771	-1.524427
C	-1.961358	0.027903	-1.569445
N	-3.130944	0.039132	-1.69484
C	-0.555529	-1.127488	0.733975
N	-1.025604	-2.025669	1.328234
N	-0.481062	1.273777	0.667896
O	-1.655769	1.288584	1.041529
O	0.329148	2.185971	0.769052
Br	3.31536	0.0	0.0
