16

C	0.0	0.0	0.0
C	-0.453393	-0.02616	-1.457429
Br	1.963863	0.0	0.0
H	-0.025136	-0.90519	-1.95026
H	-1.542229	-0.12629	-1.357274
N	-0.557445	1.188245	0.598963
H	-1.583978	0.976243	0.49194
H	-0.336431	1.18521	1.590846
C	-0.446234	-1.279505	0.696306
H	-1.541608	-1.2328	0.649244
H	-0.057478	-2.170636	0.194525
H	-0.100575	-1.28716	1.734895
N	-0.03477	1.193003	-2.171767
H	-0.741656	1.385932	-2.876651
H	-0.114382	1.937959	-1.482424
F	-2.937279	0.0	0.0
