16

C	0.0	0.0	0.0
C	-0.424511	0.034629	-1.468132
Br	1.996527	0.0	0.0
H	-0.047652	-0.858252	-1.990163
H	-1.518779	-0.009584	-1.369313
N	-0.526444	1.102341	0.744646
H	-1.548477	0.878061	0.68809
H	-0.391415	1.923626	0.158308
C	-0.447222	-1.298655	0.642373
H	-0.119769	-1.325431	1.683812
H	-1.542561	-1.257428	0.579833
H	-0.046502	-2.16638	0.111722
N	-0.036095	1.293385	-2.107264
H	0.918056	1.228235	-2.440165
H	-0.640018	1.4623	-2.900735
F	-2.922579	0.0	0.0
