16

C	0.0	0.0	0.0
C	-0.535894	0.187226	-1.400548
Br	2.050861	0.0	0.0
H	-1.629352	0.165007	-1.172228
H	-0.253207	1.19048	-1.760361
N	-0.367445	1.126979	0.774937
H	0.103389	1.967497	0.471169
H	-0.210076	0.973805	1.760578
C	-0.522745	-1.265604	0.623216
H	-0.237802	-2.128165	0.022563
H	-0.152745	-1.384636	1.646927
H	-1.619874	-1.088177	0.590001
N	-0.148533	-0.89457	-2.300172
H	-0.847654	-0.977385	-3.026314
H	0.742052	-0.68627	-2.7354
F	-3.033626	0.0	0.0
