16

C	0.0	0.0	0.0
C	-0.435479	0.147681	-1.456552
Br	1.991869	0.0	0.0
H	-1.529001	0.092476	-1.351458
H	-0.154527	1.163416	-1.786905
N	-0.544291	1.041641	0.821898
H	-0.386398	1.931235	0.353595
H	-1.56898	0.825056	0.72391
C	-0.433261	-1.341409	0.56367
H	-0.086927	-1.434363	1.595253
H	-1.528111	-1.30355	0.52276
H	-0.046989	-2.158244	-0.044944
N	0.053605	-0.909893	-2.339586
H	-0.507675	-0.912268	-3.182469
H	1.013047	-0.714659	-2.60124
F	-2.922458	0.0	0.0
