16

C	0.0	0.0	0.0
C	-0.456706	-0.080336	-1.452401
Br	1.98239	0.0	0.0
H	-1.550485	-0.121178	-1.336997
H	-0.173154	0.867329	-1.933865
N	-0.548739	1.216732	0.535213
H	-1.57473	1.012066	0.415017
H	-0.369923	1.227576	1.537203
C	-0.428246	-1.242135	0.768891
H	-0.082234	-1.183634	1.806231
H	-1.523734	-1.191905	0.722107
H	-0.052906	-2.153954	0.303965
N	0.024196	-1.276644	-2.144991
H	-0.539442	-1.409407	-2.975728
H	0.982539	-1.12908	-2.44173
F	-2.92754	0.0	0.0
