16

C	0.0	0.0	0.0
C	-0.289991	-0.114057	-1.523483
Br	2.042503	0.0	0.0
H	0.382564	-0.874105	-1.934818
H	0.028805	0.84483	-1.960359
N	-0.470699	1.223031	0.489902
H	-0.024248	2.029378	0.080634
H	-0.526919	1.282547	1.494704
C	-0.582646	-1.139029	0.794229
H	-0.281103	-2.102592	0.378764
H	-1.673686	-0.984581	0.7077
H	-0.267535	-1.093382	1.841363
N	-1.653007	-0.407812	-1.887732
H	-2.348904	-0.032063	-1.176517
H	-1.786545	-1.410361	-1.814411
F	-3.337333	0.0	0.0
