16

C	0.0	0.0	0.0
C	-0.436932	0.169041	-1.464712
Br	1.973461	0.0	0.0
H	-0.019361	-0.646927	-2.062036
H	-1.527512	0.071634	-1.398824
N	-0.552184	1.10105	0.742789
H	-1.580509	0.904846	0.599491
H	-0.353062	0.955086	1.728511
C	-0.432847	-1.361548	0.524851
H	-0.08374	-1.508121	1.552024
H	-0.046583	-2.176618	-0.094373
H	-1.528979	-1.312168	0.486531
N	-0.091222	1.442208	-2.086156
H	-0.462578	2.160927	-1.47322
H	0.919315	1.542614	-2.042185
F	-2.909223	0.0	0.0
