10
Coordinates from ORCA-job run
  C   1.13122100987215      0.24019277953376     -0.05899842262530
  C   -0.14274061023252     -0.42300342716704      0.42493483687652
  H   1.98203476322754     -0.14794824123631      0.50401923324632
  H   -0.34839265957986     -0.18554234039109      1.47028341697591
  H   1.29666616167370      0.03197174494370     -1.11745838295772
  H   1.07856571387777      1.31832055573315      0.08316296834510
  H   -0.14511860918804     -1.50165879046536      0.28380435521339
  N   -1.32204170801639      0.09088578070009     -0.34100308204153
  O   -1.46761395914406      1.31007078263221     -0.37836139655495
  O   -2.06358010249031     -0.73428884428311     -0.86938352647772
