17

C	0.0	0.0	0.0
C	-0.414575	0.172426	-1.497821
Cl	1.775747	0.0	0.0
H	0.467718	-0.126725	-2.06866
N	-0.549341	0.930483	0.86913
H	-1.57677	0.838369	0.764687
H	-0.293975	0.703016	1.823577
N	-0.269721	-1.487774	0.441665
O	-0.55472	-1.656583	1.619219
O	-0.090771	-2.36237	-0.394382
C	-0.710562	1.640124	-1.808353
H	-1.636149	1.944144	-1.319337
H	-0.821383	1.760164	-2.888357
H	0.107587	2.271066	-1.456504
C	-1.454566	-0.698707	-2.059154
N	-2.08352	-1.364971	-2.795683
Cl	-3.434698	0.0	0.0
