17

C	0.0	0.0	0.0
C	-0.391833	0.092793	-1.528405
Cl	1.773207	0.0	0.0
H	0.503982	-0.199387	-2.080342
N	-0.511446	0.918573	0.925509
H	-0.259381	1.860058	0.651633
H	-1.537259	0.806562	0.903576
N	-0.334557	-1.425133	0.508673
O	-0.092373	-2.330305	-0.282604
O	-0.726318	-1.547872	1.655765
C	-0.735743	1.536164	-1.890267
H	-1.663165	1.820678	-1.393927
H	-0.877991	1.61596	-2.970179
H	0.075274	2.211187	-1.602159
C	-1.410001	-0.817368	-2.064686
N	-2.047029	-1.525044	-2.754874
Cl	-3.371639	0.0	0.0
