17

C	0.0	0.0	0.0
C	-0.323718	-0.438318	-1.454058
Cl	1.819028	0.0	0.0
H	0.137056	0.368296	-2.042428
N	-0.552832	1.238456	0.359373
H	-1.253115	1.146103	1.084048
H	-0.962254	1.707115	-0.4369
N	-0.398324	-1.046725	1.034532
O	-0.583502	-2.187553	0.633435
O	-0.466295	-0.660357	2.194953
C	-1.795114	-0.543635	-1.846887
H	-1.845192	-0.710845	-2.926363
H	-2.364814	0.348563	-1.594007
H	-2.299158	-1.361081	-1.33687
C	0.387654	-1.656846	-1.855988
N	0.91926	-2.615747	-2.275526
Cl	-4.39893	0.0	0.0
