17

C	0.0	0.0	0.0
C	-0.62734	-0.17595	-1.389786
Cl	1.755092	0.0	0.0
H	-1.716331	-0.189571	-1.182742
N	-0.551387	1.042559	0.795703
H	-1.573918	0.942874	0.768169
H	-0.298648	1.942088	0.402589
N	-0.355861	-1.33255	0.782821
O	0.533939	-1.997164	1.297695
O	-1.547711	-1.593151	0.804011
C	-0.214549	-1.445443	-2.131006
H	0.862517	-1.473874	-2.305659
H	-0.730974	-1.48939	-3.091859
H	-0.511467	-2.322312	-1.553417
C	-0.321167	1.019828	-2.170014
N	-0.048881	1.974192	-2.798638
Cl	-3.937212	0.0	0.0
