17

C	0.0	0.0	0.0
C	-0.41522	0.010651	-1.508609
Cl	1.789061	0.0	0.0
H	0.48458	-0.289857	-2.049796
N	-0.536444	1.027137	0.762147
H	-0.300651	0.881102	1.736943
H	-1.562817	0.94743	0.657489
N	-0.272895	-1.424147	0.614434
O	-0.094089	-2.393708	-0.11
O	-0.560155	-1.449579	1.803526
C	-0.79456	1.422018	-1.964816
H	-1.752566	1.69882	-1.529678
H	-0.02942	2.137129	-1.659598
H	-0.88501	1.428827	-3.053854
C	-1.404462	-0.964942	-1.98503
N	-2.012797	-1.730109	-2.638105
Cl	-3.404409	0.0	0.0
