11
Coordinates from ORCA-job run
  C   0.20448334014728     -0.00534223689614     -0.01414170893378
  C   1.08333441802477      1.00703531564103      0.09242240140666
  H   2.12279022436317      0.89374361507093     -0.19812678217201
  H   0.77937443719873      1.96272049392425      0.49775969510892
  N   0.56151287225223     -1.30325204979563     -0.40844633699023
  H   -0.14847988522883     -1.76240667948504     -0.96049212664595
  H   1.46004999352940     -1.34941999193121     -0.86716702756133
  C   -1.23560189719830      0.12121155467084      0.38999875896913
  H   -1.45828838628943      1.12611198172586      0.74758042384808
  H   -1.89658398479645     -0.09300188490393     -0.45704861362681
  H   -1.47059113200255     -0.59740011802097      1.17966131659732
