11
Coordinates from ORCA-job run
  C   0.18436018077756     -0.00330197579502     -0.08962220361212
  C   1.09019064536729      0.98604880294419     -0.18564880674621
  H   0.81436158880022      2.01112496875049      0.02196429449379
  H   2.11046447988240      0.79611330031675     -0.50312254383295
  N   0.44057983784623     -1.32855131797570     -0.46950521370489
  H   1.42455482509925     -1.53597998824029     -0.56223201376278
  H   -0.01805927778337     -2.00963122723751      0.11811270420743
  C   -1.23600904519418      0.23264654515101      0.33472176283499
  H   -1.40958993305516      1.28347861168246      0.56474550718436
  H   -1.92334385537005     -0.07637577541573     -0.45731982935996
  H   -1.47750944637018     -0.35557194418064      1.22690634229835
