11
Coordinates from ORCA-job run
  C   0.20267804133042     -0.01757129124736      0.02432580138390
  C   1.12691198913387      0.95577852829942      0.10772454246039
  H   2.18831063559611      0.74211658963767      0.03285924503517
  H   0.83537157770517      1.98213340729067      0.28539364864822
  N   0.51855941314130     -1.38027900261768     -0.07311909034678
  H   -0.12182747679643     -1.89933446875271     -0.65621420225708
  H   1.47550328698860     -1.55148836222405     -0.34657223350616
  C   -1.27047091602830      0.24772311428068      0.13679717535241
  H   -1.79526977934228     -0.08734732879642     -0.76466224998050
  H   -1.47084840006158      1.31045746921540      0.26996277606796
  H   -1.68991837166689     -0.30218865508562      0.98350458714247
