11
Coordinates from ORCA-job run
  C   0.18908849358936      0.01730303101154     -0.07631429348978
  C   1.09401828755490      0.99163791559137      0.12419816086878
  H   2.13092153280392      0.87556232068210     -0.17447331747510
  H   0.80355995187730      1.93448338595273      0.56756494475293
  N   0.47128269682137     -1.17344791538183     -0.76158801620612
  H   -0.01512289862694     -1.97525389720649     -0.38721072775178
  H   1.45994229896761     -1.36027175888503     -0.84887580322193
  C   -1.25375209587551      0.15336122178501      0.31477263676975
  H   -1.44395526426941      1.11340833531456      0.79375312249676
  H   -1.89390479881844      0.06218511118252     -0.56675563803174
  H   -1.54307820402415     -0.63896775004649      1.01392893128824
