11
Coordinates from ORCA-job run
  C   0.20391837551334     -0.01495334546566     -0.00961716838693
  C   1.13023818166279      0.93541959506593      0.20753087055770
  H   2.17049131451665      0.78902494485368     -0.06503132899683
  H   0.86525591435374      1.86755767036161      0.68794178414493
  N   0.50489751536383     -1.29122856885486     -0.50724606441863
  H   -0.20979445817212     -1.66161026669762     -1.11689317637707
  H   1.41430803667471     -1.34663499322438     -0.94298476162827
  C   -1.23922946303511      0.15369276742611      0.36737540309758
  H   -1.88545553602681      0.04352547503904     -0.51044500017940
  H   -1.42163698498235      1.13669378700120      0.80064690508337
  H   -1.53299289586866     -0.61348706550505      1.08872253710356
