11
Coordinates from ORCA-job run
  C   0.18545313449644     -0.00589987335746     -0.08763843885333
  C   1.09964968538339      0.97537195102973     -0.18860901260714
  H   0.82988129578227      2.00514660320414      0.00297950194937
  H   2.12101457134997      0.77313823350693     -0.49479847766780
  N   0.43404350713364     -1.33763024216701     -0.44889725862743
  H   1.41671867472352     -1.55485098851528     -0.53193780374151
  H   -0.03524900546530     -2.00759112468307      0.14303257417999
  C   -1.23666619903021      0.24645624700540      0.32154556278411
  H   -1.49046743469246     -0.32866285460779      1.21883033622955
  H   -1.91957621649157     -0.06686579077622     -0.47259435681002
  H   -1.40380201318970      1.30138783936063      0.53708737316421
