18

C	-0.241505	-0.078132	-1.494376
C	0.0	0.0	0.0
Br	-2.178289	-0.285596	-1.968679
H	1.096298	0.0	0.0
C	0.220706	1.101709	-2.229531
N	0.640793	1.936807	-2.942329
C	0.539143	-1.27513	-2.044578
H	0.09447	-2.212831	-1.712344
H	1.550176	-1.160756	-1.634062
H	0.549168	-1.255131	-3.135205
C	-0.433536	-1.214402	0.794223
H	-1.504349	-1.42184	0.702393
H	0.141046	-2.079985	0.46594
H	-0.190674	-1.042517	1.840655
N	-0.525877	1.236162	0.610824
O	-0.605973	1.276094	1.841722
O	-0.828461	2.182228	-0.12041
F	2.53784	0.0	0.0
