18

C	-0.463372	-0.030678	-1.462143
C	0.0	0.0	0.0
Br	0.279374	1.525092	-2.430552
H	1.09102	0.0	0.0
C	0.128769	-1.2125	-2.088682
N	0.485902	-2.206177	-2.606825
C	-1.970115	-0.03976	-1.713246
H	-2.423356	0.86296	-1.306848
H	-2.413921	-0.908564	-1.221005
H	-2.172749	-0.09775	-2.784393
C	-0.459209	-1.220327	0.781308
H	-0.033264	-1.142575	1.784702
H	-1.545944	-1.324131	0.864717
H	-0.026561	-2.113909	0.320058
N	-0.534995	1.225016	0.65631
O	0.231581	2.170718	0.833721
O	-1.729165	1.225744	1.007609
F	2.546696	0.0	0.0
