18

C	-0.278773	0.05241	-1.518497
C	0.0	0.0	0.0
Br	0.219756	-1.708014	-2.273536
H	1.090891	0.0	0.0
C	-1.693564	0.222667	-1.847365
N	-2.830453	0.359257	-2.115287
C	0.632726	1.08473	-2.177402
H	1.626275	0.908934	-1.746517
H	0.624677	0.975102	-3.263949
H	0.30117	2.089585	-1.913566
C	-0.645652	-1.135951	0.757399
H	-0.544225	-0.952652	1.829589
H	-0.115748	-2.05896	0.525118
H	-1.709534	-1.250686	0.531304
N	-0.484286	1.303921	0.558361
O	0.263809	2.278979	0.494071
O	-1.614023	1.33807	1.060584
F	2.601425	0.0	0.0
