18

C	-0.246772	-0.017095	-1.494756
C	0.0	0.0	0.0
Br	-2.185634	-0.199695	-1.97361
H	1.094712	0.0	0.0
C	0.21943	1.191128	-2.178733
N	0.640693	2.057368	-2.852879
C	0.528981	-1.192957	-2.096209
H	0.082167	-2.142456	-1.801648
H	1.542865	-1.100237	-1.686492
H	0.535581	-1.128202	-3.184911
C	-0.437502	-1.240501	0.750349
H	0.118417	-2.100248	0.377717
H	-0.174375	-1.114832	1.798669
H	-1.512703	-1.429122	0.666986
N	-0.516226	1.214165	0.662583
O	-0.54694	1.218984	1.895878
O	-0.861582	2.173998	-0.030326
F	2.536801	0.0	0.0
