11

C	-0.55193	0.00165	-1.410414
C	0.0	0.0	0.0
Cl	-0.087152	1.444613	-2.357307
H	1.092357	0.0	0.0
H	-1.643929	-0.019453	-1.399906
H	-0.177773	-0.866904	-1.954204
H	-0.298342	-0.969545	0.43538
N	-0.48758	1.139246	0.774826
H	-1.317442	0.893424	1.298406
H	0.228851	1.415474	1.431321
Br	3.785574	0.0	0.0
