11

C	-0.50836	0.047056	-1.434934
C	0.0	0.0	0.0
Cl	-0.173363	-1.471052	-2.329095
H	1.092961	0.0	0.0
H	-1.592169	0.185701	-1.472838
H	-0.017286	0.851664	-1.983686
H	-0.31602	0.945936	0.460119
N	-0.482341	-1.10679	0.814463
H	0.040235	-1.93793	0.569158
H	-1.461135	-1.292252	0.618833
Br	3.764126	0.0	0.0
