11

C	-0.373316	0.010398	-1.469259
C	0.0	0.0	0.0
Cl	-2.165094	0.087797	-1.724871
H	1.095702	0.0	0.0
H	-0.033902	-0.900697	-1.961948
H	0.050087	0.87797	-1.974751
H	-0.351586	0.922623	0.471025
N	-0.469004	-1.147668	0.766109
H	-1.425572	-1.370911	0.516662
H	0.114761	-1.946818	0.551183
Br	3.686667	0.0	0.0
