14

C	-0.515546	-0.011591	-1.418353
C	0.0	0.0	0.0
Br	-0.042429	1.699322	-2.222427
H	1.089724	0.0	0.0
H	-0.363225	0.874566	0.534529
C	-0.000685	-1.077645	-2.263679
N	0.417119	-1.919507	-2.96994
N	-2.056353	-0.063115	-1.447586
O	-2.579874	-0.566696	-2.430454
O	-2.62706	0.454282	-0.497431
N	-0.490513	-1.186644	0.74359
O	-0.999184	-2.104898	0.095514
O	-0.348789	-1.165529	1.959229
Cl	3.201173	0.0	0.0
