14

C	-0.625683	0.059773	-1.380352
C	0.0	0.0	0.0
Br	-2.573235	0.083818	-1.254888
H	1.091203	0.0	0.0
H	-0.338633	0.862271	0.57402
C	-0.215126	1.280589	-2.060346
N	0.111713	2.259397	-2.62333
N	-0.169035	-1.119041	-2.293451
O	-1.003806	-1.894986	-2.718784
O	1.03209	-1.108215	-2.503898
N	-0.448391	-1.201063	0.741662
O	-0.715487	-1.058214	1.931699
O	-0.479518	-2.262513	0.121938
Cl	3.203307	0.0	0.0
