14

C	-0.533986	0.004084	-1.368725
C	0.0	0.0	0.0
Br	0.381513	-1.448951	-2.343442
H	1.10033	0.0	0.0
H	-0.327407	-0.912601	0.498607
C	-1.96801	-0.23148	-1.615078
N	-2.783175	-0.481735	-2.440746
N	-0.096831	1.221367	-2.21588
O	1.000589	1.683727	-1.882654
O	-0.668227	1.419127	-3.286351
N	-0.536098	1.034083	0.913449
O	0.262178	1.51218	1.739545
O	-1.7856	1.132757	1.016413
Cl	2.814531	0.0	0.0
