14
Coordinates from ORCA-job run
  C   -0.29073956220159      0.05962336445392     -0.33294503925094
  C   1.15447408909943      0.44927361019024     -0.05197449916396
  F   -0.39069163662921     -0.33556940420830     -1.64328664113773
  H   1.47363920384232      1.18079162630172     -0.79513351941065
  H   1.22807414795940      0.92151193698450      0.93130309490201
  C   -0.85845141842921     -1.00129365491200      0.56470865320558
  H   -0.84561677162564     -0.67314403335265      1.60533578047533
  H   -1.88446864143593     -1.21590923669037      0.27460107069218
  H   -0.25631460474031     -1.90491722992674      0.46463342555660
  N   -1.14242646473324      1.33424931616501     -0.25691518827514
  O   -0.58510379296008      2.39331015831305     -0.53360362767132
  O   -2.33099388907586      1.19379703719529      0.00940224612010
  C   2.02006962331726     -0.72501208699215     -0.10205080274247
  N   2.70654971761265     -1.67571140352153     -0.13507495329959
