14
Coordinates from ORCA-job run
  C   -0.37829603962927     -0.09148270280900     -0.43768569100394
  C   1.12872612258678     -0.18491048604775     -0.61830069916677
  F   -0.95287068315684     -0.42198795146706     -1.64171863826925
  H   1.36724451073946     -1.21995657528976     -0.87699061191791
  H   1.42934601556054      0.45815599987110     -1.44582694395975
  C   -0.94664535892781     -0.94722545559386      0.65662000175474
  H   -2.03129747790131     -0.86331089532549      0.66196503712936
  H   -0.56160413893654     -0.63857758150748      1.62901741678953
  H   -0.66434896986529     -1.98503761368555      0.46992700488538
  N   -0.76450108592494      1.37715361142648     -0.22593107636138
  O   -0.04237028718750      2.21924811118269     -0.75131059927946
  O   -1.80100331223305      1.59572223155254      0.39160779978368
  C   1.83630473310196      0.20000883075236      0.59751176242552
  N   2.38331597177382      0.50320047694077      1.59011523719024
