14
Coordinates from ORCA-job run
  C   -0.37730326648026     -0.07781147769085     -0.44069701114142
  C   1.12962002845255     -0.16887172298732     -0.62170589909007
  F   -0.95070549688246     -0.37929232544940     -1.65302031790297
  H   1.43411090653242      0.49956490058798     -1.42729539846884
  H   1.36467419947027     -1.19590590680645     -0.91368154992974
  C   -0.94830207839520     -0.95811377470146      0.63269447007423
  H   -2.03312557217255     -0.87676284606748      0.63461004143159
  H   -0.56837755062408     -0.66901061800199      1.61301836340016
  H   -0.66258246583680     -1.99109955511760      0.42607070706037
  N   -0.76437080667651      1.38525009205850     -0.19484425685920
  O   -0.03071124468018      2.24147277327817     -0.68030598338626
  O   -1.81371451918778      1.58720221580388      0.40657261983018
  C   1.83692090074617      0.17138817354137      0.60744681086307
  N   2.38386696573441      0.43199007155263      1.61213740411890
