14
Coordinates from ORCA-job run
  C   -0.30580452064239      0.02825834415604     -0.32211637395066
  C   1.18167763437524      0.32445879574457     -0.18690664319211
  F   -0.52372799353878     -0.57572595334832     -1.53494546769591
  H   1.35850006712974      0.94568104357995      0.69509391396609
  H   1.51071466589667      0.88864994218557     -1.06024139465852
  C   -0.89929251468424     -0.80510336105000      0.77656389995389
  H   -0.38294371757635     -1.76532055674818      0.80653372340183
  H   -1.95686555918178     -0.96853821576898      0.58152059212345
  H   -0.78925323721437     -0.30639920775603      1.74110320600711
  N   -1.04336363843878      1.36984991331942     -0.43090089946695
  O   -0.41652274335675      2.31373139974236     -0.90536954654233
  O   -2.22323728040484      1.38327718021988     -0.09764602421031
  C   1.94288755249721     -0.91630929977245     -0.07846465398186
  N   2.54723128513942     -1.91751002450383      0.01477566824628
