14
Coordinates from ORCA-job run
  C   -0.26708718241355      0.02942326727171     -0.37689330037485
  C   1.18581331642124      0.35440176033746     -0.04270361516809
  F   -0.32039995690977     -0.51756191616893     -1.61955946174844
  H   1.23181664828233      0.90398091932872      0.89885014339375
  H   1.59103065114279      0.99223987157349     -0.83416153139754
  C   -0.98338237576020     -0.85660921341626      0.60858989069640
  H   -0.48843075480718     -1.82814220579800      0.64079937983718
  H   -2.01387731092503     -0.99767437871563      0.27767912695236
  H   -0.97927876546791     -0.40828256763417      1.60148489202849
  N   -1.00124636877169      1.36654964788542     -0.44239654040839
  O   -0.95545377425246      2.03328761096303      0.58768834489220
  O   -1.57536816860026      1.65642900021887     -1.48129242249402
  C   1.97743874636075     -0.86817064733258      0.04857598690813
  N   2.59842529570093     -1.85987114851312      0.13333910688284
