14
Coordinates from ORCA-job run
  C   -0.38853567235610     -0.09087380556208     -0.44420589325418
  C   1.12505427848791     -0.13050744974597     -0.61612531552383
  F   -0.93605463591829     -0.38533062887109     -1.66469235959837
  H   1.40673015665671     -1.14185373567351     -0.92169254129114
  H   1.39503087608845      0.55927863227726     -1.41910786720260
  C   -0.95045119106075     -1.00411105467155      0.60593701725074
  H   -0.70081940583158     -2.03168490792697      0.33463031717179
  H   -2.03429964072601     -0.89890527324336      0.64364527884073
  H   -0.54045072613478     -0.77583078938077      1.58810762763372
  N   -0.76766306860376      1.36632261624418     -0.17271292098926
  O   -1.27553605611966      1.63604964434042      0.91084806442598
  O   -0.50983825081786      2.15305975717223     -1.07692804363916
  C   1.81768764146494      0.22943479779544      0.61612237913043
  N   2.35914569487076      0.51495219724576      1.61717425704515
