14
Coordinates from ORCA-job run
  C   -0.35386820188809     -0.08309249805726     -0.48712465653276
  C   1.17328693046598     -0.10104866611834     -0.53990177902561
  F   -0.79651520047820     -0.51640929690004     -1.70114687455759
  H   1.52128449548782      0.66901525824221     -1.23403653522307
  H   1.45544083525623     -1.07087394262412     -0.96029348907908
  C   -0.98040679177643     -0.89601273959307      0.61479632238688
  H   -0.65839613558430     -1.93489160321486      0.52262484340116
  H   -0.68751938038014     -0.51190903385474      1.59121124241523
  H   -2.06620089348047     -0.85313245363714      0.51233794830414
  N   -0.82179996935474      1.35915973868000     -0.33882899159023
  O   -1.64789449213551      1.77911472624278     -1.13594615302301
  O   -0.32873498484204      1.96594543572449      0.60673657862472
  C   1.82192070395055      0.05821897546805      0.75658163534155
  N   2.36740308475936      0.13691609964205      1.79198990855766
