16

C	-0.420736	-0.076463	-1.468973
C	0.0	0.0	0.0
Cl	-0.074991	1.487969	-2.306704
H	1.094673	0.0	0.0
H	-0.312105	-0.95411	0.444925
C	0.367903	-1.170062	-2.181242
H	0.135441	-2.136455	-1.725091
H	0.120903	-1.204402	-3.243898
H	1.431844	-0.964076	-2.041451
C	-1.865892	-0.298319	-1.593568
N	-3.018709	-0.516471	-1.66451
C	-0.581923	1.156841	0.794243
H	-1.676492	1.166923	0.764208
H	-0.268679	1.069866	1.836959
H	-0.212893	2.11139	0.418696
Cl	3.511236	0.0	0.0
