16

C	-0.362713	0.117468	-1.481776
C	0.0	0.0	0.0
Cl	-2.146213	0.453424	-1.707602
H	1.096	0.0	0.0
H	-0.361109	-0.955	0.3903
C	0.431536	1.214511	-2.177436
H	1.494478	1.024692	-2.000652
H	0.219058	1.228736	-3.247548
H	0.169445	2.184618	-1.752821
C	-0.131767	-1.166237	-2.151254
N	0.027463	-2.197019	-2.691458
C	-0.477922	1.152434	0.874048
H	-0.106653	2.112009	0.508927
H	-1.567304	1.201953	0.944276
H	-0.069701	1.016293	1.87872
Cl	3.474046	0.0	0.0
