16

C	-0.407791	-0.055808	-1.476526
C	0.0	0.0	0.0
Cl	-0.109569	1.566893	-2.216857
H	1.094574	0.0	0.0
H	-0.364173	0.933548	0.436024
C	0.424666	-1.077853	-2.244071
H	1.479863	-0.853381	-2.068702
H	0.211043	-2.082281	-1.871058
H	0.197764	-1.041372	-3.311097
C	-1.841998	-0.321722	-1.635178
N	-2.984431	-0.576992	-1.743437
C	-0.498727	-1.195076	0.807296
H	-1.590751	-1.256	0.83732
H	-0.106948	-2.136089	0.41536
H	-0.130868	-1.102702	1.831592
Cl	3.514252	0.0	0.0
