14
Coordinates from ORCA-job run
  C   -0.55114493329934     -0.07980737383695     -0.26013017099823
  C   0.63964575038209      0.86020684519327     -0.15009206630116
  Cl  -1.69195882088730      0.94643872360036     -1.47314391431007
  H   0.33707954745276      1.81586505871784      0.27234007328442
  H   1.10707084387960      1.00018322454970     -1.12223881922319
  N   -0.19905340044615     -1.30300613970469     -0.84533004045279
  H   0.21447093300774     -1.18559694908343     -1.75939958887413
  H   -0.97772466476052     -1.94600898350870     -0.90332503423013
  N   -1.19178981838406     -0.26269402873661      0.97139625676354
  H   -1.44155974882485      0.61261722981437      1.40897899743078
  H   -2.00977414553517     -0.85352089835228      0.90021830283672
  N   1.66790805652641      0.27652472800632      0.76052233136157
  O   1.56828828525548      0.55027230937310      1.95400336275340
  O   2.52854211563332     -0.43247374603230      0.24620030995927
