14
Coordinates from ORCA-job run
  C   -0.55561292607552      0.03145157508100     -0.41025371311094
  C   0.66954197715918      0.90315342554873     -0.14402886309432
  Cl  -1.65861038177421      1.10602958587635     -1.42913063318102
  H   0.39001567953976      1.86694095644378      0.27469972150826
  H   1.24062100178591      1.01663189796760     -1.06379927053674
  N   -0.22168962356921     -1.07940304665713     -1.24857580249809
  H   0.43654643868969     -1.67471706065984     -0.75857491634538
  H   -1.05072009556813     -1.60662406857518     -1.49384524928813
  N   -1.14941294476582     -0.32707208614109      0.83208287212836
  H   -1.42218429796708      0.47910055896787      1.38201368435967
  H   -1.95408130119002     -0.92586017401943      0.69693524182383
  N   1.54378007128398      0.24021942710002      0.86680558433479
  O   2.09300492037887     -0.80654947090021      0.52900219821799
  O   1.63980148207262      0.77669847996753      1.96666914568173
