14
Coordinates from ORCA-job run
  C   -0.61105122025044      0.10207336738144     -0.30762639198232
  C   0.69843212343500      0.87573406549371     -0.17176240734127
  Cl  -1.54801878571617      1.02873622516442     -1.60095626060571
  H   0.50726404703973      1.82902840257395      0.31779849285289
  H   1.18354655084252      1.01116761122639     -1.13544044031397
  N   -0.32241592100769     -1.23376157358329     -0.70361061718414
  H   -1.16712075388609     -1.78564460012708     -0.78237129376750
  H   0.18925570037140     -1.28064833162815     -1.57696199389489
  N   -1.39547955241215      0.20903992594790      0.88464999262921
  H   -2.29888915645024     -0.23146499882848      0.76128070538747
  H   -0.89498807078207     -0.23212351350905      1.64796576257812
  N   1.65057227062230      0.10080109035355      0.67590190607673
  O   2.64845704669579     -0.35733357159853      0.12719284096536
  O   1.35743572149812     -0.03660409886678      1.86193970460001
