14
Coordinates from ORCA-job run
  C   -0.53577268635295      0.00838601386818     -0.20450620782745
  C   0.59200538477070      0.49155781885880      0.71097328135650
  Cl  -0.90811753656403      1.32232245364547     -1.41852715773194
  H   0.69663930539377     -0.21898574547976      1.52937851451350
  H   0.38962420736986      1.49615817069334      1.07974420775976
  N   -0.09938016627864     -1.11924068071393     -0.97033890457263
  H   0.04495500624715     -1.91242449698571     -0.35592222929137
  H   -0.77250364447484     -1.35655146474846     -1.68747723743167
  N   -1.66431772072666     -0.26321711073754      0.63969881822944
  H   -2.43514864357710     -0.60915232899366      0.07951818329905
  H   -1.97811903492707      0.57563115692213      1.11625460390582
  N   1.89759490593025      0.52436457082272      0.00314830613973
  O   2.59513149479862     -0.48296688966595      0.09631712343979
  O   2.17740912839096      1.54411853251438     -0.62026130178853
