14
Coordinates from ORCA-job run
  C   -0.63513407122158     -0.00473470653184     -0.34466336036321
  C   0.62376710314126      0.85744876876667     -0.15865090092329
  Cl  -1.67949008688207      1.05829589353258     -1.45458205349314
  H   0.38505854355815      1.83575126261950      0.25372535630699
  H   1.15981128637159      0.95212339229372     -1.10156613333744
  N   -0.48987809024850     -1.25034153410086     -1.03387199348130
  H   -0.18055722885022     -1.10643723938229     -1.98593470866774
  H   0.19105479321353     -1.81827884859975     -0.54207762885993
  N   -1.20425914744351     -0.27401715241164      0.91197736551599
  H   -2.03142841054758     -0.84726379586306      0.81284249352180
  H   -1.39565757670639      0.55417227967700      1.45892080908959
  N   1.53100832385379      0.19024034767152      0.81533587472161
  O   2.09580011868986     -0.83431147694359      0.43369960902867
  O   1.62790444307169      0.68935280927204      1.93284527094139
