14
Coordinates from ORCA-job run
  C   -0.63254258700215     -0.01377539876864     -0.34918437592892
  C   0.61277589305149      0.86611785448292     -0.15481059218129
  Cl  -1.62772749927770      0.97553377111620     -1.56623266807130
  H   1.12114355472044      1.05850737231125     -1.09754076020764
  H   0.34441772289623      1.79792839400792      0.34028534875477
  N   -0.23832406836226     -1.28219550587187     -0.80997515555127
  H   0.33050465586530     -1.25339707220548     -1.64507877641083
  H   -1.04392076397508     -1.88036649058275     -0.93645103512563
  N   -1.49033777299346     -0.20727235995170      0.77973325067535
  H   -0.95032427373080     -0.61771265804048      1.53343017844585
  H   -1.88647517988072      0.66958911985752      1.09125993019309
  N   1.58329179269885      0.15035423240240      0.71844485548403
  O   2.59533545713188     -0.30097255948476      0.18994457340899
  O   1.28118306885799      0.03866130072745      1.90617522651482
