14
Coordinates from ORCA-job run
  C   -0.55913152682687     -0.08743560933953     -0.11260966324270
  C   0.62053790281343      0.47822465324892      0.66872463173185
  Cl  -0.55245016040112      0.88071839175741     -1.76002071969316
  H   0.43529139473600      1.51501429837176      0.93593000278282
  H   0.75872980359451     -0.13834831951717      1.55857073568328
  N   -0.45576283890670     -1.47303366826640     -0.32642814241509
  H   0.46453834345320     -1.71868552353987     -0.66718059618416
  H   -1.15860883683282     -1.79839963190724     -0.97818668147641
  N   -1.73781127081548      0.22205465706199      0.61781191999442
  H   -2.02742341265871      1.17937475294868      0.47080365165163
  H   -2.49587202116872     -0.40314013925687      0.37890873859069
  N   1.90701728097511      0.45855532934403     -0.08143974173223
  O   2.26828272120338     -0.62360309745498     -0.54442227979604
  O   2.53266262083481      1.50970390654922     -0.15946185589495
