14
Coordinates from ORCA-job run
  C   -0.56052952029215     -0.09100020622220     -0.10092768785465
  C   0.63034298258946      0.51744694899084      0.62970600190398
  Cl  -0.56590742168320      0.76687736838903     -1.80842637962689
  H   0.45359987584568      1.57051960361881      0.83079729615964
  H   0.77447732759089     -0.04118226881885      1.55610612284887
  N   -0.46681746794527     -1.48801817377014     -0.22410592487175
  H   0.44814442663398     -1.76197000428420     -0.55743314244035
  H   -1.17922592545425     -1.85195591852772     -0.84425620627053
  N   -1.72988490495756      0.27305481379004      0.61946846598119
  H   -2.49376982614281     -0.36186227395973      0.42970917464333
  H   -2.01593584805839      1.22022974355755      0.41202845959124
  N   1.90840590933163      0.44061538147770     -0.13101801309433
  O   2.53733937051869      1.48084232332270     -0.28802732989963
  O   2.25976102202335     -0.67259733756386     -0.52262083707008
