14
Coordinates from ORCA-job run
  C   -0.49421511679279     -0.09787365373283     -0.43339091090937
  C   0.99261148798551      0.04552555394376     -0.06378479818129
  Cl  -0.94291225372933      1.37430033473559     -1.35884964854565
  H   1.30531858006776     -0.82179499717397      0.52359115312236
  H   1.58938058490355      0.14967735907390     -0.96540786223610
  N   -0.55761950241341     -1.22216459621222     -1.33210337484612
  H   -1.52150540356313     -1.33165668177977     -1.62949922156341
  H   -0.28420823805533     -2.06654576546629     -0.83872758930320
  N   -1.44070360654899     -0.20537283266845      0.64697649806554
  H   -1.23075030407263     -1.03478123982937      1.19216796919752
  H   -1.38311748539468      0.59420034611526      1.26654191103696
  N   1.25753795706372      1.23903872775239      0.78129530850501
  O   0.75500993440003      1.24691092419725      1.90601318367775
  O   1.95417336614969      2.12953652104475      0.30417738197999
