14
Coordinates from ORCA-job run
  C   -0.68658081112218      0.14099519220088     -0.37437432556198
  C   0.56201710080307      0.93842755985430      0.03248268285182
  Cl  -1.52870758095013      1.23514948764564     -1.54616466692277
  H   1.07677174343646      1.33866773270012     -0.83696602763203
  H   0.28808173857104      1.73841122505169      0.72229177075935
  N   -0.43130166013558     -1.08609184461798     -1.08715254441121
  H   0.13906792166118     -0.94884457881595     -1.91263524350353
  H   0.00044820157606     -1.76427040570893     -0.47085579717926
  N   -1.54214049332989     -0.04426649619443      0.75387631867713
  H   -2.30610250027542     -0.65415227549043      0.48664623872115
  H   -1.01819210896447     -0.46669200108049      1.51091365526095
  N   1.56274023452356      0.07530830075083      0.72855302799620
  O   2.73393925614639      0.16712273315783      0.37507689504245
  O   1.14895895805992     -0.67076462945307      1.61830801590177
