14
Coordinates from ORCA-job run
  C   -0.52426177377134     -0.18951762179804     -0.30074874946747
  C   0.97645465522878      0.01789876985025     -0.04041912651565
  Cl  -1.07834362707155      1.30666577481193     -1.21885229807749
  H   1.54075848159458      0.03601493037152     -0.97097064146592
  H   1.32493229355755     -0.78365209082560      0.61302208832734
  N   -0.64598925549073     -1.38907459853730     -1.05097623648115
  H   -1.62937687430447     -1.59086493768389     -1.18836619528687
  H   -0.18691052240972     -1.32428664318054     -1.95017898664663
  N   -1.38733760692112     -0.30931455296359      0.83369762277839
  H   -1.30160873556173      0.49860251674864      1.43614567890060
  H   -1.12287333592127     -1.13873226502176      1.35375766730780
  N   1.27036630753526      1.30157065723276      0.64977004859556
  O   0.74589430958979      1.47287736605597      1.74998005558000
  O   2.01829568394602      2.09281269493967      0.08413907245150
