14
Coordinates from ORCA-job run
  C   -0.61156981840133      0.09112924600924     -0.30897903666098
  C   0.67560630448411      0.89745537628454     -0.15136957393977
  Cl  -1.56619344571408      1.01570299128655     -1.59105056640663
  H   1.16181698553514      1.06404742785674     -1.10959573933062
  H   0.45561311157930      1.83615932565834      0.35407881704947
  N   -0.28466710550539     -1.22896304482461     -0.72721066964887
  H   -1.11350058383946     -1.80221129830865     -0.82042647518871
  H   0.23281037975841     -1.24636940176656     -1.59820988929021
  N   -1.40532298298594      0.15502934041835      0.88022793191699
  H   -0.89764758585201     -0.28719918001475      1.63815230227145
  H   -2.29618071349443     -0.30642396822367      0.74304007735655
  N   1.64396748932688      0.13375873540038      0.68811177505479
  O   2.65624836517647     -0.28853177928329      0.13702514273837
  O   1.34701959993236     -0.03458377049263      1.86920590407817
