14
Coordinates from ORCA-job run
  C   -0.63831490539956     -0.00532142480485     -0.33835252501816
  C   0.62767639598329      0.85113148351392     -0.17620352333406
  Cl  -1.68631191966750      1.04930105118948     -1.45307568920923
  H   1.15565520724776      0.92870485576252     -1.12516500833612
  H   0.39911796551900      1.83666767004968      0.22458850678177
  N   -0.50725819494080     -1.26099043296444     -1.01223881091178
  H   0.17555311842133     -1.82633907972760     -0.52001688554387
  H   -0.20692848963514     -1.13154942158295     -1.96926185458434
  N   -1.19709074164045     -0.25434040377947      0.92679289514299
  H   -2.02855969593701     -0.82382378343301      0.84374609553615
  H   -1.37678547312950      0.58153560152478      1.46589444415905
  N   1.53933351163038      0.19169488953510      0.79898934711536
  O   1.64681982719784      0.70364247073399      1.90969049747693
  O   2.09609339435036     -0.84031347601712      0.42561251072538
