14
Coordinates from ORCA-job run
  C   -0.52535151705114      0.03587031502299     -0.32680345558741
  C   0.62437104814682      0.78051929212078      0.35221414080221
  Cl  -0.64288695095783      0.54551180257709     -2.04497419134309
  H   0.53395322627565      0.67362236413404      1.43382441291504
  H   0.60790664347658      1.82696952867795      0.06092065916893
  N   -0.25742379938161     -1.37244042487273     -0.32507181892013
  H   -1.04322548254512     -1.89923759907846     -0.68281071195735
  H   0.01209088589594     -1.70565691165766      0.59245326286051
  N   -1.73292105738440      0.53537719588369      0.31604930623910
  H   -2.54303321591035      0.34661042006995     -0.26220942476463
  H   -1.85265720733127      0.05605252286510      1.20256708789969
  N   1.94681759738731      0.20948784686390     -0.01329165917874
  O   2.49627893429815      0.65243145985464     -1.01665596903816
  O   2.37808089508125     -0.68511781246131      0.71378836090406
