14
Coordinates from ORCA-job run
  C   -0.42596290166483     -0.28920848173231     -0.26006044721647
  C   0.90927737513851      0.44260165936208     -0.19800030137908
  Cl  -1.73569458773094      1.08078846499232     -0.02955093833844
  H   1.01839127897177      1.10365975695453     -1.05338582951540
  H   1.70086268362991     -0.30841053351329     -0.17799626138874
  N   -0.54261242242224     -0.84702773490375     -1.56206114674922
  H   -0.84408618190771     -0.15969224509536     -2.23904380984295
  H   -1.17398360665444     -1.63665974801812     -1.57087818588497
  N   -0.54372982296551     -1.28946095805003      0.72078697271487
  H   -1.48973487738719     -1.64612837006718      0.77035326820215
  H   -0.26187961727557     -0.94298348744189      1.62845829373938
  N   1.07724772613769      1.28945971829173      1.01545593544430
  O   1.38890730585823      2.46307056066538      0.84848178005729
  O   0.92199764827232      0.73999139855587      2.10644067015725
