14
Coordinates from ORCA-job run
  C   -0.61283118458141     -0.00483547036086     -0.26060738745363
  C   0.61664465639231      0.71576153338461      0.31978684773961
  Cl  -0.65959768990585      0.37241059984159     -2.01528579234680
  H   0.54259894777706      1.78355981959084      0.13482720053484
  H   0.69027762035169      0.49920728477851      1.38861495790105
  N   -0.65219061095499     -1.44124711132557     -0.15193499306883
  H   -0.61775420156411     -1.70257633664887      0.82779482393474
  H   0.14377258945402     -1.86729168504190     -0.61163873611547
  N   -1.75154994472984      0.62350832468215      0.35857166178628
  H   -2.58959091810040      0.19312543804051     -0.01831790707724
  H   -1.73288667320082      0.44852835469266      1.35866245648585
  N   1.88891451020569      0.24841048059874     -0.28947747739441
  O   2.51604497876661      1.04744298637799     -0.97846188146253
  O   2.21814792009001     -0.91700421861041     -0.06353377346348
