14
Coordinates from ORCA-job run
  C   -0.60474816168398     -0.10914265499391     -0.15418097949415
  C   0.61569185784645      0.65262265885715      0.38799278090054
  Cl  -0.68960730990522      0.30397858645001     -1.94537570407324
  H   0.46892020322350      1.72939457016985      0.32721485668869
  H   0.78561129108445      0.33838145935433      1.41906009760110
  N   -0.59072758261606     -1.53698848901258     -0.06915372385699
  H   -0.56590142938648     -1.80117325633195      0.90957312976485
  H   0.22411867879151     -1.91582124626716     -0.53328366998005
  N   -1.72918353876709      0.34490010758939      0.58355331451059
  H   -2.54428246413807     -0.18394731192265      0.29586994288563
  H   -1.90211118405993      1.33212600595278      0.44568069577866
  N   1.86175123880653      0.35937033334628     -0.36831302897733
  O   2.22749535065551     -0.81538825932857     -0.40119718436039
  O   2.44097305014879      1.30268749613697     -0.89744052738793
