14
Coordinates from ORCA-job run
  C   -0.51190193262172     -0.21685262907406     -0.30369084221618
  C   0.96547785281649      0.13478696827302     -0.06504701025945
  Cl  -1.26582492037120      1.29310645446286     -1.03870447222012
  H   1.48610949534868      0.31329568224824     -1.00404633139899
  H   1.42780489725460     -0.68375149861756      0.48911483107907
  N   -0.52883433066840     -1.33684642907782     -1.17562052289899
  H   -1.48849533985685     -1.63494147748942     -1.30632184903628
  H   -0.11640710722213     -1.12555700182088     -2.07496562433676
  N   -1.30954942061023     -0.55357083646157      0.83456194126580
  H   -1.28739438697051      0.18928587040059      1.52046951508831
  H   -0.93678437249316     -1.39979626965831      1.25067394745168
  N   1.14237651265500      1.36661180969205      0.74875702998656
  O   1.78084086890796      2.28896114397319      0.25180628850500
  O   0.64158218383147      1.36626821314970      1.87301309899040
