14
Coordinates from ORCA-job run
  C   -0.69055339734318      0.16792669492082     -0.35913488386262
  C   0.65436077301136      0.88325364469419     -0.14465988482690
  Cl  -1.50897279719960      1.17029226712003     -1.63495466804561
  H   1.14684084322649      1.07466020886582     -1.09382431756663
  H   0.51138998489348      1.80011211328372      0.42686760971187
  N   -0.59853190153303     -1.16295333645580     -0.90216748468366
  H   -0.06880390418902     -1.19848507966442     -1.76442790146212
  H   -0.19675103149938     -1.79608604909791     -0.22080730590289
  N   -1.46415572825441      0.21681157859644      0.83364780919034
  H   -0.89815218845902     -0.00272493346908      1.64370477853461
  H   -2.24776877448914     -0.41949715373478      0.75800906447514
  N   1.56910304322159     -0.00315307915698      0.62662843723398
  O   1.27074957196563     -0.23280126008096      1.80060501000476
  O   2.52224550664821     -0.49635561582107      0.02851373719971
