13

C	-0.373888	-0.12604	-1.465707
C	0.0	0.0	0.0
Br	-0.224093	1.612082	-2.347815
H	1.090676	0.0	0.0
H	-0.338893	-0.906798	0.514307
H	-0.422753	0.883533	0.475943
N	0.403231	-1.066117	-2.212641
H	0.238081	-1.990773	-1.828924
H	1.379636	-0.835273	-2.039809
N	-1.846504	-0.551864	-1.538913
O	-2.056426	-1.740339	-1.774123
O	-2.703272	0.27437	-1.248108
Cl	3.441867	0.0	0.0
