13

C	-0.365403	-0.143276	-1.46644
C	0.0	0.0	0.0
Br	-0.239955	1.591065	-2.36038
H	1.090655	0.0	0.0
H	-0.425448	0.887334	0.464498
H	-0.338222	-0.901461	0.523856
N	0.431123	-1.073094	-2.203616
H	0.273783	-1.99867	-1.819561
H	1.403893	-0.827317	-2.023195
N	-1.828302	-0.593076	-1.541914
O	-2.021301	-1.786455	-1.766015
O	-2.696624	0.221915	-1.258424
Cl	3.440476	0.0	0.0
