16
Coordinates from ORCA-job run
  C   0.57177505177835     -0.17612712280347     -0.21815714854793
  C   -0.76869764354553      0.56699972302231     -0.08429463397223
  Br  1.03836626974705      0.00757164554232     -2.20000894673631
  H   -0.63880078330077      1.60813415921738     -0.38306649698245
  N   0.48467566534825     -1.50008520922330      0.22851763221669
  H   1.37552489441702     -1.97668548660660      0.19532292714296
  H   -0.23788553456769     -2.03965084024344     -0.22856561987322
  C   1.65048421522150      0.58201674585044      0.53672526201699
  H   2.61667832152891      0.09991589647005      0.37602616894197
  H   1.72681419257361      1.61312587361236      0.19135184745443
  H   1.42165871145116      0.56032344841988      1.60536930317021
  C   -1.27198566326237      0.48609499818988      1.28495728271265
  N   -1.66407937487953      0.46142261719649      2.39180969202801
  N   -1.83862527803814      0.03027051959199     -1.01115499900390
  O   -2.07754085087818     -1.17157545109807     -0.94700568160153
  O   -2.38736219359364      0.84724848286176     -1.73782658896635
