16
Coordinates from ORCA-job run
  C   0.54760218081120     -0.17376106535416     -0.20079983255953
  C   -0.96898571348242      0.04670772187117      0.00693760508395
  Br  1.21898562891759      1.33532424190398     -1.35217855351959
  H   -1.29746474441963     -0.70346539886769      0.73196036968440
  N   0.68107446036940     -1.44408619654593     -0.81763845660722
  H   0.28858063637775     -1.46994398014705     -1.75192725664090
  H   1.65162165613063     -1.72845532177582     -0.86029932958800
  C   1.33635788615276     -0.13565895568068      1.09535258487545
  H   1.27511129946947      0.83395860342453      1.58219318063016
  H   2.38548459907786     -0.34436983090230      0.87592337596623
  H   0.95307877077721     -0.90432350505707      1.77124666274495
  C   -1.71226397266889     -0.10647635664616     -1.23675672968897
  N   -2.28339437686854     -0.30722917106787     -2.24314903977077
  N   -1.28623379649685      1.38160656948965      0.63687928124231
  O   -1.06121006688522      1.45012529451040      1.84203016872250
  O   -1.72934444726231      2.27004735084500     -0.07877403057498
