15

C	0.0	0.0	0.0
C	-0.20756	0.082245	-1.537077
F	1.358915	0.0	0.0
H	0.36467	0.973518	-1.809435
H	0.362895	-0.777693	-1.911234
N	-0.508726	1.179698	0.736066
O	-0.515612	1.093789	1.980146
O	-0.504702	2.264369	0.115444
C	-0.510147	-1.220116	0.621827
N	-0.595235	-2.321168	1.044672
C	-1.553045	0.129888	-2.232345
H	-1.368203	0.209021	-3.315647
H	-2.129053	0.990776	-1.900951
H	-2.145756	-0.762388	-2.041074
H	-2.05785	0.0	0.0
