15

C	0.0	0.0	0.0
C	-0.369388	0.250004	-1.485756
F	1.355549	0.0	0.0
H	-0.632062	-0.727839	-1.901768
H	-1.271871	0.846648	-1.522976
N	-0.336274	1.216741	0.859765
O	-0.350088	2.314832	0.300417
O	-0.35866	1.049835	2.077582
C	-0.691777	-1.155499	0.562041
N	-0.645231	-2.260104	1.012107
C	0.749513	0.89454	-2.3035
H	0.378595	1.101549	-3.311503
H	1.059773	1.838715	-1.858212
H	1.625458	0.251282	-2.391934
H	-2.20479	0.0	0.0
