15

C	0.0	0.0	0.0
C	-0.325247	0.069252	-1.493413
F	1.355784	0.0	0.0
H	0.393688	0.780338	-1.910683
H	-1.32646	0.447994	-1.629508
N	-0.353368	1.29014	0.721822
O	-0.351987	2.324853	0.050079
O	-0.359866	1.246476	1.952143
C	-0.581736	-1.114926	0.734927
N	-0.518289	-2.130911	1.348714
C	-0.160492	-1.304143	-2.135646
H	-0.917305	-1.992342	-1.753682
H	0.828222	-1.726604	-1.933643
H	-0.281455	-1.228047	-3.221442
H	-2.280885	0.0	0.0
