15

C	0.0	0.0	0.0
C	-0.297527	-0.004982	-1.51706
F	1.355674	0.0	0.0
H	-1.366041	-0.105512	-1.665815
H	0.181938	-0.9435	-1.829414
N	-0.3316	1.282796	0.758416
O	-0.323056	2.348152	0.143071
O	-0.390397	1.186125	1.981747
C	-0.760552	-1.082048	0.64138
N	-0.68541	-2.163718	1.147679
C	0.275017	1.139078	-2.349224
H	0.310586	0.830386	-3.399195
H	1.289548	1.400605	-2.042925
H	-0.342014	2.03194	-2.27187
H	-2.216117	0.0	0.0
