15

C	0.0	0.0	0.0
C	-0.345583	-0.157466	-1.496226
F	1.355196	0.0	0.0
H	-1.299538	-0.667289	-1.562802
H	0.44991	-0.823225	-1.858934
N	-0.33946	1.287191	0.727014
O	-0.285541	2.341056	0.092765
O	-0.402592	1.215799	1.953587
C	-0.59013	-1.107844	0.760096
N	-0.585078	-2.155378	1.317554
C	-0.386913	1.088511	-2.371499
H	-0.470985	0.770907	-3.416957
H	0.506682	1.70395	-2.268514
H	-1.253352	1.696807	-2.118124
H	-2.254159	0.0	0.0
