15

C	0.0	0.0	0.0
C	-0.206695	-0.130821	-1.539319
F	1.358855	0.0	0.0
H	0.458154	0.632048	-1.951328
H	0.264621	-1.098317	-1.754651
N	-0.35178	1.384895	0.516603
O	-0.416397	1.521598	1.737433
O	-0.339844	2.315341	-0.292421
C	-0.775074	-0.982463	0.75141
N	-0.764961	-1.990049	1.39559
C	-1.542247	-0.049512	-2.258007
H	-2.041676	0.893865	-2.041574
H	-2.213008	-0.855734	-1.973337
H	-1.345159	-0.111654	-3.340958
H	-2.068509	0.0	0.0
