15

C	0.0	0.0	0.0
C	-0.205764	-0.034997	-1.549259
F	1.358985	0.0	0.0
H	0.361364	0.834761	-1.900197
H	0.361195	-0.916131	-1.874743
N	-0.267207	1.333846	0.720138
O	-0.710117	1.344058	1.869852
O	0.158839	2.316701	0.118124
C	-0.47023	-1.152412	0.746779
N	-0.748388	-2.199637	1.227565
C	-1.573148	-0.048683	-2.183281
H	-2.133862	0.843806	-1.895826
H	-2.167392	-0.897782	-1.841069
H	-1.493404	-0.084792	-3.271607
H	-1.847735	0.0	0.0
