15

C	0.0	0.0	0.0
C	-0.208027	-0.101008	-1.538503
F	1.358978	0.0	0.0
H	0.24004	-1.074531	-1.776773
H	0.479385	0.653725	-1.928863
N	-0.371874	1.360945	0.55446
O	-0.332691	2.315735	-0.229471
O	-0.455689	1.467079	1.778869
C	-0.694831	-1.024799	0.764275
N	-0.678861	-2.029178	1.409288
C	-1.53204	0.040274	-2.266941
H	-2.007496	0.988676	-2.023751
H	-2.229864	-0.754344	-2.020703
H	-1.318045	0.012497	-3.347681
H	-2.09364	0.0	0.0
