15

C	0.0	0.0	0.0
C	-0.200539	0.064118	-1.542901
F	1.359077	0.0	0.0
H	0.383473	-0.801122	-1.880665
H	0.364489	0.950319	-1.844103
N	-0.357413	1.289846	0.71073
O	-0.342281	2.331913	0.049309
O	-0.420616	1.24288	1.939323
C	-0.756215	-1.089066	0.61049
N	-0.7569	-2.183164	1.094054
C	-1.538579	0.056409	-2.258479
H	-2.118759	-0.833601	-2.021563
H	-2.138423	0.922847	-1.989852
H	-1.336136	0.077064	-3.341279
H	-2.069626	0.0	0.0
