15

C	-0.156833	0.027329	0.039471
C	-0.512323	0.295921	-1.414604
F	1.001619	-0.751084	0.135138
H	-1.467688	0.817803	-1.394279
H	-1.085572	-0.550433	0.371052
C	0.062495	1.256813	0.802417
N	0.220119	2.225229	1.449403
C	-0.627632	-0.999201	-2.189246
H	-1.404372	-1.547571	-1.646299
H	-0.93347	-0.804642	-3.220908
H	0.320828	-1.534378	-2.187858
N	0.466535	1.236632	-2.046678
O	1.562796	0.788267	-2.382784
O	0.125478	2.415966	-2.171834
F	-2.460086	-1.181371	0.030364
