14

C	0.0	0.0	0.0
C	-0.542877	0.091196	-1.416234
Cl	1.826704	0.0	0.0
H	-1.632313	0.24798	-1.310671
H	-0.338536	-0.834255	-1.952846
C	-0.37944	1.134248	0.852303
N	-0.602475	2.031384	1.575737
N	-0.508337	-1.196971	0.551752
H	-0.53182	-1.21598	1.558715
H	-0.082465	-2.023036	0.159442
N	0.04702	1.187346	-2.218136
O	0.362569	0.926764	-3.379387
O	0.153601	2.289005	-1.685901
Br	-3.790612	0.0	0.0
