14

C	0.0	0.0	0.0
C	-0.478553	0.211205	-1.449832
Cl	1.779824	0.0	0.0
H	-0.180657	1.185235	-1.832821
H	-1.571933	0.095577	-1.439108
C	-0.384069	1.219171	0.738581
N	-0.582034	2.223573	1.314012
N	-0.489422	-1.148998	0.700168
H	-0.334788	-1.960477	0.112003
H	-1.503826	-1.017239	0.784175
N	0.096774	-0.788776	-2.382386
O	0.028655	-1.977663	-2.069659
O	0.590892	-0.368973	-3.428157
Br	-3.636766	0.0	0.0
