14

C	0.0	0.0	0.0
C	-0.466621	-0.245427	-1.447122
Cl	1.802046	0.0	0.0
H	-1.559367	-0.359725	-1.404062
H	-0.170943	0.566923	-2.107599
C	-0.373589	1.387442	0.330371
N	-0.599005	2.504288	0.613765
N	-0.487758	-0.876309	1.016476
H	-0.345348	-1.829715	0.701292
H	-1.500598	-0.715725	1.066548
N	0.12085	-1.478752	-2.023642
O	0.039138	-2.517964	-1.368393
O	0.641613	-1.392407	-3.135419
Br	-3.626585	0.0	0.0
