13

C	0.0	0.0	0.0
C	-0.494503	-0.345688	-1.423031
Br	1.943038	0.0	0.0
H	0.369243	-0.421028	-2.100711
H	-0.30556	-0.79461	0.671928
C	-0.441774	1.264072	0.580065
N	-0.552121	2.272254	1.176267
N	-1.327325	0.718387	-2.086196
O	-2.222108	0.352159	-2.833405
O	-0.922671	1.866882	-1.951469
C	-1.194465	-1.624762	-1.424972
N	-1.558904	-2.73862	-1.502307
F	-2.288565	0.0	0.0
