13

C	0.0	0.0	0.0
C	-0.273106	-0.102676	-1.530911
Br	1.942225	0.0	0.0
H	0.232674	0.742184	-2.005009
H	-0.355288	-0.877476	0.52414
C	-0.493047	1.219567	0.620211
N	-0.61344	2.243609	1.1882
N	-1.689324	-0.011399	-2.088863
O	-2.247112	-1.054905	-2.395351
O	-2.046946	1.121354	-2.379123
C	0.304564	-1.336296	-2.076821
N	0.782234	-2.296079	-2.556216
F	-2.26882	0.0	0.0
