13

C	0.0	0.0	0.0
C	-0.26633	-0.11961	-1.531295
Br	1.943664	0.0	0.0
H	0.267902	0.704202	-2.018
H	-0.346734	-0.881039	0.524322
C	-0.523013	1.208475	0.619644
N	-0.64148	2.204855	1.232435
N	-1.675944	0.005041	-2.092327
O	-2.26715	-1.02247	-2.389319
O	-1.998304	1.145194	-2.403743
C	0.279315	-1.382654	-2.043767
N	0.722224	-2.382344	-2.472748
F	-2.279192	0.0	0.0
