15

C	-0.164282	-0.011043	-1.535947
C	0.0	0.0	0.0
Cl	-0.108851	1.818116	-2.050907
H	1.109461	0.0	0.0
N	0.896299	-0.747759	-2.054927
H	1.767592	-0.531383	-1.534507
H	0.973975	-0.700701	-3.060502
C	-1.472018	-0.436834	-2.045785
N	-2.515176	-0.756004	-2.482974
N	-0.410963	-1.294173	0.626919
O	-0.69864	-2.24116	-0.099988
O	-0.380679	-1.323916	1.854772
C	-0.622386	1.085057	0.718699
N	-1.122347	1.952496	1.334919
F	2.525482	0.0	0.0
