15

C	-0.468398	0.043164	-1.457296
C	0.0	0.0	0.0
Cl	0.527191	-1.14761	-2.441543
H	1.090958	0.0	0.0
N	-1.873998	-0.148299	-1.611979
H	-2.128572	-0.073377	-2.589331
H	-2.105778	-1.07538	-1.274499
C	-0.110155	1.35601	-2.01185
N	0.124074	2.39385	-2.50888
N	-0.420561	-1.220587	0.723098
O	-0.874337	-2.174516	0.082956
O	-0.234754	-1.225933	1.934801
C	-0.48281	1.1541	0.729542
N	-0.848826	2.110197	1.308001
F	2.421577	0.0	0.0
