15

C	-0.472339	0.018249	-1.467039
C	0.0	0.0	0.0
Cl	0.390634	-1.260027	-2.383449
H	1.091608	0.0	0.0
N	-1.892325	-0.119595	-1.730519
H	-2.375636	0.641283	-1.261848
H	-2.186528	-0.998222	-1.319008
C	-0.032873	1.304087	-2.033625
N	0.254584	2.341003	-2.504797
N	-0.442285	-1.192285	0.757858
O	-0.987664	-2.124261	0.157241
O	-0.200738	-1.187859	1.961807
C	-0.504187	1.169113	0.688155
N	-0.934456	2.138962	1.198061
F	2.419214	0.0	0.0
