15

C	-0.112699	-0.003661	-1.531619
C	0.0	0.0	0.0
Cl	-1.813371	0.230374	-2.091438
H	1.094316	0.0	0.0
N	0.719177	1.059985	-2.063466
H	0.341505	1.946588	-1.740925
H	1.627576	0.916767	-1.596583
C	0.381735	-1.258932	-2.118036
N	0.790773	-2.197202	-2.693047
N	-0.558208	-1.153258	0.729101
O	-0.789406	-2.180493	0.094299
O	-0.706482	-1.022282	1.943192
C	-0.486003	1.240025	0.560601
N	-0.842986	2.280698	0.975834
F	2.477697	0.0	0.0
