15

C	-0.456709	0.003855	-1.459851
C	0.0	0.0	0.0
Cl	0.482469	-1.287586	-2.373766
H	1.09061	0.0	0.0
N	-1.868994	-0.114334	-1.622637
H	-2.159952	-1.006561	-1.24006
H	-2.114321	-0.072098	-2.604503
C	-0.017337	1.268396	-2.067303
N	0.270742	2.272035	-2.605091
N	-0.438966	-1.189531	0.763229
O	-0.176231	-1.189555	1.962061
O	-0.991925	-2.121664	0.16946
C	-0.470205	1.183381	0.69014
N	-0.819206	2.162788	1.239226
F	2.422769	0.0	0.0
