15

C	-0.480101	-0.006352	-1.454661
C	0.0	0.0	0.0
Cl	0.356179	-1.224583	-2.46561
H	1.091648	0.0	0.0
N	-1.90321	-0.264674	-1.528024
H	-2.389713	0.445614	-0.98841
H	-2.213424	-0.208913	-2.491887
C	-0.110799	1.29571	-2.051949
N	0.067213	2.330709	-2.581084
N	-0.441299	-1.204409	0.747604
O	-0.2816	-2.294118	0.210191
O	-0.870692	-1.039756	1.891499
C	-0.518245	1.185145	0.653416
N	-0.924211	2.185472	1.12216
F	2.42622	0.0	0.0
