15

C	-0.16908	-0.110861	-1.512995
C	0.0	0.0	0.0
Cl	-1.866794	0.209511	-2.072159
H	1.10878	0.0	0.0
N	0.712397	0.90413	-2.030491
H	1.615588	0.761444	-1.550562
H	0.821946	0.791406	-3.031287
C	0.174784	-1.450054	-2.029599
N	0.52286	-2.421222	-2.593908
N	-0.543274	-1.109121	0.809481
O	-0.50264	-0.960532	2.028635
O	-0.961732	-2.112145	0.232767
C	-0.476461	1.265428	0.512183
N	-0.849634	2.290173	0.950144
F	2.492906	0.0	0.0
