16
Coordinates from ORCA-job run
  C   -0.60127066440571      0.25257474842517     -0.27359160438585
  C   0.88292209649762      0.54508534569527     -0.02733292501000
  H   -0.85034910229165      0.63914626882482     -1.26651665322161
  H   1.08348213343274      1.60914387708170     -0.15645241177424
  N   -1.40016104814767      1.11538645374161      0.68310834307550
  O   -0.91316918948035      2.20145526335785      0.98801007108101
  O   -2.49398383236350      0.69358812957468      1.03739811384458
  C   -0.96631687069474     -1.20812865615451     -0.13073918004950
  H   -0.38761460486886     -1.80621757626699     -0.83739183733650
  H   -2.02369519249440     -1.35378633684565     -0.34249489999099
  H   -0.76189551392262     -1.56372912521069      0.88047495000798
  N   1.65349767849706     -0.15823090648555     -1.12665341631095
  O   2.37251303847998     -1.10239255013641     -0.82699603297808
  O   1.45178844782931      0.28913589566492     -2.25047688883240
  C   1.32289597361732      0.09549423419916      1.28577956705888
  N   1.63235665031548     -0.24952506546536      2.36487480482218
