16
Coordinates from ORCA-job run
  C   -0.51860320726979      0.29288152713229     -0.09955631677386
  C   0.88479914505407     -0.27697348018555      0.01169623380512
  H   -0.47992337699590      1.31771027554667     -0.46837984389846
  H   0.88225676934176     -1.24448369712580      0.51586847189943
  N   -1.10000114131479      0.39922684989593      1.28523494830621
  O   -0.61662021114194     -0.30802532622064      2.16683182960939
  O   -2.05141273181545      1.16070029940454      1.40621963146232
  C   -1.44056118100578     -0.57778612454050     -0.93761379239221
  H   -1.08258622174674     -0.62614147207728     -1.96716735192605
  H   -2.44143640286487     -0.14504051040726     -0.93916080044204
  H   -1.49216416070817     -1.59084378421513     -0.53131667289281
  N   1.76986989766397      0.60816434947396      0.87688787506580
  O   1.45460411764722      1.78781489569946      0.97305971875526
  O   2.73564009012762      0.05385163003734      1.38096046008365
  C   1.50946847635600     -0.38308825621904     -1.30164852122814
  N   1.98667013867281     -0.46796717619899     -2.37191586943359
