16
Coordinates from ORCA-job run
  C   -0.59383392411485      0.26770201329501     -0.27866525529520
  C   0.89139722509265      0.52987536065147     -0.00440978783013
  H   -0.82059780447659      0.67993871130751     -1.26649829162919
  H   1.11031430173231      1.59296295580876     -0.11049759078617
  N   -1.38820050015681      1.12607108147517      0.68566973993935
  O   -0.90825166366131      2.22001796701481      0.97275649852809
  O   -2.46928279908180      0.69387323088791      1.06533252444511
  C   -0.98480368885759     -1.18911299287343     -0.17276532519778
  H   -0.79746601066844     -1.57164280919371      0.83184552798279
  H   -0.40874550016871     -1.78022482674286     -0.88756911945852
  H   -2.04217397958093     -1.31245150243473     -0.39842849728203
  N   1.66814921064466     -0.16653591006061     -1.10280774737354
  O   1.49047903466257      0.30207846691820     -2.22198459612684
  O   2.36836292457016     -1.12617743029118     -0.80797252041774
  C   1.30166871598184      0.05042578822174      1.30795474341299
  N   1.58398445808284     -0.31680010398405      2.38703969708882
