16
Coordinates from ORCA-job run
  C   -0.67108294815759      0.24132199949311     -0.08655232239137
  C   0.79855573535078      0.39378698600211     -0.48429696795985
  H   -1.16626814309407      1.18432262404093     -0.34501504754665
  H   0.89041467958404      0.17736649009086     -1.55509196857912
  N   -0.78033953804539      0.18601808525063      1.42236695915579
  O   -1.83503638888697     -0.23400330291361      1.88054988458785
  O   0.16999349460554      0.61699114363458      2.06798299979954
  C   -1.41183307100784     -0.91047395983543     -0.74038415515229
  H   -0.99644108254175     -1.86791941313375     -0.43507635082728
  H   -1.33984133605964     -0.81363149832290     -1.82630356416997
  H   -2.46363090690370     -0.87516653845612     -0.46308286283107
  N   1.70959770094331     -0.63608910656553      0.17311643625830
  O   2.89974114552462     -0.36260320981567      0.19704261142947
  O   1.18390260648625     -1.67273262807116      0.55424787398354
  C   1.32367280708141      1.73286682807680     -0.24107393112425
  N   1.68859524512101      2.84194550052514     -0.11742959463265
