16
Coordinates from ORCA-job run
  C   -0.65319823907927      0.34091866361183     -0.18882582597086
  C   0.86426577930476      0.41590675761921     -0.41952531310719
  H   -1.07108610179900      1.28594264273827     -0.54249631547266
  H   1.04708603951238      0.39698693367342     -1.49694236947992
  N   -0.90906819684011      0.34878788021180      1.29661913164515
  O   -1.08828181301381      1.44773731621951      1.81536754898484
  O   -0.90085854177830     -0.73767410397031      1.86908521727003
  C   -1.32362817177283     -0.84919778479079     -0.84178757634909
  H   -1.13704399552195     -0.83429275200573     -1.91746111718501
  H   -2.40076119580248     -0.79363383599846     -0.67525937345701
  H   -0.95711826646881     -1.78820958616312     -0.43363640930955
  N   1.54178749747916     -0.82839962679605      0.12055300059057
  O   1.56686178554409     -1.78323382942014     -0.64879056793660
  O   1.96984775656033     -0.78566125156872      1.26641326500552
  C   1.47021894781625      1.60248980975599      0.17284751053963
  N   1.98097671585959      2.55953276688330      0.62283919423216
