16
Coordinates from ORCA-job run
  C   -0.52150435050124      0.25066655857012      0.18007669259988
  C   0.86416852687905     -0.14745023819792     -0.29601736601560
  H   -0.53414289373366      1.29980461199826      0.47479828467352
  H   0.93439315933889     -1.22602310939901     -0.44697253438731
  N   -0.82872445677045     -0.51331689238764      1.44003941430672
  O   -0.25363783539254     -1.58600118407233      1.61156985974314
  O   -1.67564180585270     -0.01814438816568      2.17265010866284
  C   -1.60314145267933     -0.06631296924472     -0.84045214101587
  H   -1.59986058881940     -1.13016192601681     -1.08899816979796
  H   -1.44563469988037      0.51213705771217     -1.75185375624303
  H   -2.57708691761286      0.19790597308355     -0.42701317552683
  N   1.92279664284236      0.16295502477297      0.75328951224159
  O   2.99541397360258     -0.40197981805451      0.59530407232962
  O   1.62139090569927      0.95116431836311      1.64061228138124
  C   1.22396660598413      0.56549339818265     -1.51591337388036
  N   1.47724518689626      1.15126358285579     -2.50211970907157
