11
Coordinates from ORCA-job run
  C   0.45690721262104     -0.29190205394087      0.33864378470995
  C   -0.75546043964457      0.14044046974198     -0.47072913584484
  Cl  0.01381302305553     -0.77437820136515      1.97233421121319
  H   -1.28701074442648      0.92390607231991      0.07227556291453
  H   1.01379745359790     -1.10386098782697     -0.12421735881188
  H   -0.41836181417354      0.55901434930516     -1.42472572832942
  N   1.41733949925192      0.87000780831550      0.41688108178758
  O   0.93993572163216      1.96348029239071      0.69711008304143
  O   2.59568650864646      0.61572248361040      0.19018957674200
  C   -1.63821248143879     -0.99285307671492     -0.72741181550519
  N   -2.33843393912161     -1.90957715583576     -0.94035026191737
