11
Coordinates from ORCA-job run
  C   0.31532352355251     -0.35137809246988      0.43108051288469
  C   -0.63021183000805      0.27030058442709     -0.58446527786007
  Cl  -0.40784415238374     -0.43241142330872      2.03365945876038
  H   -0.09324085702459      0.42326525621684     -1.52637682944254
  H   0.65081824272536     -1.34755851600545      0.15058558961928
  H   -0.95595674013004      1.24581268486055     -0.21909716168466
  N   1.56320192695611      0.49520779821335      0.50120464708951
  O   1.40453425174653      1.70792728794138      0.58110543615977
  O   2.63042640837595     -0.10864201252100      0.46946182254893
  C   -1.78003089548966     -0.59656043067041     -0.82109247355486
  N   -2.69601987832037     -1.30296313668374     -1.01606572452044
