11
Coordinates from ORCA-job run
  C   0.44236108171629     -0.45378457209387      0.48960352567245
  C   -0.97174729934089     -0.36471968447563     -0.05457972418543
  Cl  0.42337444642065     -0.88556995250136      2.19842444813420
  H   -1.52069888619165      0.39895554728133      0.49913185374440
  H   1.06580833615742     -1.16753459745974     -0.04465372374355
  H   -1.46931980065520     -1.32629082050817      0.09260585294818
  N   1.13220806955537      0.88260927221651      0.33919246302720
  O   2.29343901969350      0.84844281208591     -0.05282475537538
  O   0.47920339871620      1.87668296026721      0.63282167329971
  C   -0.95621319684380     -0.03273390964251     -1.47773721217670
  N   -0.91941516922790      0.22394294483033     -2.62198440134508
