11
Coordinates from ORCA-job run
  C   0.53917150167222     -0.50708776142211      0.30709192473855
  C   -0.89929324843683     -0.49068503580109     -0.17696682449119
  Cl  0.69031878997009     -1.48057743003450      1.76866382886144
  H   -1.22225241506658     -1.51721787884340     -0.36539952919082
  H   1.24089628108729     -0.88036870672518     -0.43560623529707
  H   -1.53316954130151     -0.06477842631464      0.60270825331310
  N   0.98827724779406      0.90206535538928      0.61976576656998
  O   0.19672008984073      1.61082527354668      1.22942345748377
  O   2.11497832212191      1.20449912519259      0.24279814975593
  C   -1.02164884676776      0.29686556944811     -1.40202667958282
  N   -1.09399818091362      0.92645991556426     -2.38945211216086
