11
Coordinates from ORCA-job run
  C   0.35316834608267     -0.37563574254439      0.67850433709246
  C   -0.59238111323553     -0.70339456805830     -0.47096962156942
  Cl  -0.50200101256884      0.03646540689792      2.14600853758816
  H   0.00320068736945     -1.01049711789408     -1.33413483647695
  H   1.01885339749922     -1.21513466245983      0.87445557049257
  H   -1.23012380508273     -1.53924715568962     -0.17440267312946
  N   1.26882355751775      0.74952501982721      0.21684109034343
  O   1.14984528816595      1.86524261094691      0.69454053344046
  O   2.04883412890111      0.39592488367305     -0.66268200836341
  C   -1.42607663303984      0.44008930193970     -0.83339851234400
  N   -2.09214284160920      1.35766202336143     -1.13476241707384
