11
Coordinates from ORCA-job run
  C   0.36781642763712     -0.38184625288704      0.66747780550417
  C   -0.58735524787849     -0.70483989035728     -0.47495607962469
  Cl  -0.47391928275827     -0.00888934185020      2.15292423158379
  H   -1.20891320894167     -1.55512286144517     -0.18464223615654
  H   1.04969349447891     -1.21346209979614      0.83985511753982
  H   0.00116845189192     -0.98855007038251     -1.35094208042773
  N   1.25921280702820      0.76613628111674      0.21358663946794
  O   1.13066486356984      1.87079859234015      0.71392030796342
  O   2.03149258334062      0.44082469611512     -0.68353830240024
  C   -1.44313033699552      0.43147497556847     -0.80793471675827
  N   -2.12673055137267      1.34347597157788     -1.08575068669168
