11
Coordinates from ORCA-job run
  C   0.14122264042549      0.27321919229848      0.56032439876113
  C   -0.47097530751842     -0.34050337505063     -0.68894752278579
  Cl  -0.23130614759396      1.98794874067645      0.69625251752544
  H   -0.10139944780554     -1.36498263965348     -0.80211370330024
  H   -0.16844313625058     -0.22359217710730      1.47736455423622
  H   -0.15147188499632      0.23172565882819     -1.56166717205129
  N   1.63959907813912      0.10371763407883      0.48967588629832
  O   2.18736970618158     -0.30768938577234      1.50711810628890
  O   2.17820830359450      0.38856089254177     -0.57377558735505
  C   -1.92707615071108     -0.36171036894629     -0.59577713627823
  N   -3.09672765346480     -0.38669417189368     -0.51045434133942
