11
Coordinates from ORCA-job run
  C   0.41721815884983     -0.43182325904008      0.53061612370016
  C   -0.98891324191914     -0.32079298803762     -0.03014330843336
  Cl  0.37154359402724     -0.71234112212121      2.26987017262959
  H   -1.53393391701045     -1.24088294897796      0.19403644170991
  H   1.00673073435798     -1.21821617536677      0.06417825026411
  H   -1.50141994248663      0.51315202285662      0.45257126945294
  N   1.17281053579887      0.85146608482464      0.27050283206530
  O   0.56878151510430      1.89791544708632      0.47222973710561
  O   2.33165649894132      0.72628477798908     -0.10944226023667
  C   -0.95073838774651     -0.11169356585833     -1.47612001461675
  N   -0.89473554791681      0.04693172664531     -2.63729924364083
