11
Coordinates from ORCA-job run
  C   0.35376172908219     -0.37665840733164      0.67736260606609
  C   -0.54502033324186     -0.71816237235260     -0.50482835409624
  Cl  -0.55717411192530     -0.04707678344430      2.13191291218933
  H   0.08625355898805     -0.97236470428631     -1.35989276523811
  H   1.05517989805206     -1.18768789984406      0.86847578970033
  H   -1.14807555697587     -1.59196809998558     -0.24725028313529
  N   1.22468793799137      0.80397620284559      0.27015826878792
  O   1.03972284182525      1.89889731502334      0.77430083236828
  O   2.04303986044479      0.51274523075246     -0.59733206273638
  C   -1.42505209122398      0.39284243151425     -0.85924573821850
  N   -2.12832373301668      1.28445708710884     -1.15366120568745
