11
Coordinates from ORCA-job run
  C   0.30949361084122     -0.34475995053557      0.65344605770547
  C   -0.94047672852243     -0.39248554948436     -0.20651401322074
  Cl  -0.10852899513167     -0.45359160126440      2.36222252235167
  H   -1.47681632695420     -1.32203539593179     -0.00120531499469
  H   1.02510618038716     -1.12949907394257      0.41768425435496
  H   -1.58691575939031      0.44688792173059      0.05551192341895
  N   1.04050681507791      0.95728539472843      0.41937738483776
  O   0.35623631382485      1.97193291408435      0.36478736780597
  O   2.25968127340205      0.87963881487878      0.31697915128956
  C   -0.59217809535981     -0.32859099226749     -1.62446373709409
  N   -0.28810828817477     -0.28478248199598     -2.75682559645482
