11
Coordinates from ORCA-job run
  C   0.45053363289057     -0.47878840018625      0.50830054759893
  C   -0.67937459974723     -0.62091113465536     -0.50094403259729
  Cl  -0.14738256940849     -0.38243494531566      2.15065133749953
  H   -0.25724573844242     -0.75765669723416     -1.49729286054448
  H   1.13779663846466     -1.32385285382523      0.43883576886236
  H   -1.26196192999498     -1.50856850099030     -0.24372379130802
  N   1.30352051685988      0.73908779184120      0.15175889310352
  O   1.75246669751305      1.43258075157638      1.04829831989110
  O   1.51057498555749      0.86348939662825     -1.05126134036186
  C   -1.55416973360004      0.54900002920501     -0.50184891939561
  N   -2.25575790009250      1.48905456295614     -0.50177392274820
