15

C	0.0	0.0	0.0
C	-0.227703	-0.006365	-1.547885
Cl	1.769883	0.0	0.0
H	0.27399	0.90306	-1.8965
H	0.374809	-0.845246	-1.899982
C	-0.540633	1.167711	0.672079
N	-0.621959	2.232378	1.183668
N	-0.512881	-1.233434	0.653461
O	-0.565629	-1.230026	1.893669
O	-0.509978	-2.264778	-0.045164
C	-1.596149	-0.103986	-2.203723
H	-1.427435	-0.159111	-3.292051
H	-2.229395	0.755957	-1.99352
H	-2.117884	-1.004133	-1.883961
H	-1.989239	0.0	0.0
