15

C	0.0	0.0	0.0
C	-0.282481	-0.015287	-1.536853
Cl	1.770142	0.0	0.0
H	0.211793	0.888948	-1.911946
H	0.293954	-0.866415	-1.912161
C	-0.475872	1.219521	0.661303
N	-0.77578	2.25813	1.142701
N	-0.569891	-1.165728	0.686435
O	-0.555209	-1.110617	1.94058
O	-0.548393	-2.233331	0.028023
C	-1.706503	-0.086827	-2.077268
H	-2.312504	0.762306	-1.762079
H	-2.192765	-0.997642	-1.727713
H	-1.666937	-0.099069	-3.183045
H	-1.928825	0.0	0.0
