15

C	0.0	0.0	0.0
C	-0.340567	0.083787	-1.518102
Cl	1.761172	0.0	0.0
H	-1.315126	0.557048	-1.592092
H	0.415323	0.756889	-1.938949
C	-0.596194	1.150744	0.676842
N	-0.62149	2.229732	1.170637
N	-0.381355	-1.23956	0.782006
O	-0.33199	-2.324039	0.202318
O	-0.481864	-1.099335	1.999087
C	-0.369149	-1.208813	-2.322111
H	0.534942	-1.804619	-2.198271
H	-1.223749	-1.815964	-2.028399
H	-0.471504	-0.947005	-3.382374
H	-2.149948	0.0	0.0
