15

C	0.0	0.0	0.0
C	-0.234766	0.140747	-1.539047
Cl	1.761286	0.0	0.0
H	-1.17145	0.667619	-1.688692
H	0.583531	0.704448	-1.99495
C	-0.389669	1.160907	0.758305
N	-0.642546	2.15947	1.344181
N	-0.20944	-1.469892	0.878397
O	0.565036	-2.388995	0.637277
O	-1.140281	-1.525554	1.666927
C	-0.314513	-1.234336	-2.182763
H	0.608246	-1.780113	-2.015723
H	-0.460719	-1.14172	-3.259446
H	-1.139973	-1.798071	-1.761325
H	-1.641266	0.0	0.0
