15

C	0.0	0.0	0.0
C	-0.226047	-0.002105	-1.548232
Cl	1.770189	0.0	0.0
H	0.286819	0.902253	-1.893667
H	0.366877	-0.847301	-1.901898
C	-0.560402	1.157729	0.672149
N	-0.633112	2.223435	1.184722
N	-0.496952	-1.244083	0.650845
O	-0.554115	-1.24461	1.889133
O	-0.495613	-2.270268	-0.051962
C	-1.594374	-0.078359	-2.207513
H	-2.128252	-0.97504	-1.899693
H	-1.42227	-0.123459	-3.295252
H	-2.217779	0.786931	-1.989516
H	-1.989872	0.0	0.0
