15

C	0.0	0.0	0.0
C	-0.303503	0.100283	-1.525429
Cl	1.761259	0.0	0.0
H	-1.378113	0.232912	-1.616584
H	0.184528	1.040523	-1.809116
C	-0.731914	1.073796	0.683459
N	-0.708097	2.142556	1.212884
N	-0.383314	-1.306997	0.677005
O	-0.419553	-2.329238	-0.004613
O	-0.447262	-1.277878	1.902234
C	0.161183	-1.010253	-2.463694
H	0.076977	-0.641816	-3.492193
H	-0.463316	-1.895463	-2.360938
H	1.199914	-1.301488	-2.298163
H	-2.158277	0.0	0.0
