15

C	0.0	0.0	0.0
C	-0.226585	0.042501	-1.547707
Cl	1.770369	0.0	0.0
H	0.27204	0.9654	-1.863638
H	0.380317	-0.780878	-1.927767
C	-0.562334	1.13477	0.707815
N	-0.634299	2.183012	1.255858
N	-0.491334	-1.266125	0.613783
O	-0.551633	-1.303553	1.850908
O	-0.487638	-2.270026	-0.119813
C	-1.592918	-0.038638	-2.210149
H	-2.112921	-0.950388	-1.9216
H	-2.230306	0.810904	-1.973153
H	-1.421122	-0.057397	-3.299459
H	-1.994084	0.0	0.0
