18

C	0.0	0.0	0.0
C	-0.373222	0.204871	-1.492927
F	1.403002	0.0	0.0
H	-0.16419	-0.761473	-1.986375
C	-0.469687	1.156645	0.853778
H	-0.128471	2.105131	0.432669
H	-1.561601	1.151053	0.904405
H	-0.053641	1.044251	1.860124
C	-0.506995	-1.326909	0.509842
H	-1.601831	-1.320591	0.46302
H	-0.10437	-2.146574	-0.092368
H	-0.193144	-1.46809	1.548492
C	0.574799	1.170165	-2.101236
N	1.279008	1.958161	-2.614353
N	-1.718946	0.706123	-1.678783
H	-2.421945	0.367028	-0.957874
H	-2.070203	0.405918	-2.581295
H	-3.573364	0.0	0.0
