18

C	0.0	0.0	0.0
C	-0.38575	-0.15126	-1.493129
F	1.397556	0.0	0.0
H	0.416141	-0.771763	-1.917939
C	-0.499923	1.277541	0.630831
H	-0.098685	2.152186	0.114967
H	-0.184569	1.309846	1.677735
H	-1.594332	1.279469	0.582546
C	-0.450413	-1.216025	0.784142
H	-1.539524	-1.212729	0.871976
H	0.005088	-1.171542	1.779198
H	-0.134866	-2.134177	0.283288
C	-0.283369	1.151341	-2.197892
N	-0.267887	2.13636	-2.842865
N	-1.658801	-0.822587	-1.673884
H	-1.978048	-0.685957	-2.627424
H	-2.410555	-0.435113	-1.03596
H	-3.528781	0.0	0.0
