18

C	0.0	0.0	0.0
C	-0.508165	-0.053476	-1.43821
F	1.407293	0.0	0.0
H	-1.615292	-0.008253	-1.318141
C	-0.470247	1.278329	0.6587
H	-0.089771	1.314982	1.684524
H	-1.56799	1.252973	0.662805
H	-0.116667	2.147559	0.103385
C	-0.47541	-1.21225	0.768937
H	-1.574243	-1.208105	0.732619
H	-0.141539	-1.137579	1.808329
H	-0.075579	-2.134139	0.335941
C	-0.14545	-1.327791	-2.087503
N	0.156822	-2.304199	-2.669038
N	-0.020149	1.097052	-2.206592
H	0.987759	1.005304	-2.305088
H	-0.425387	1.072783	-3.137799
H	-3.283975	0.0	0.0
