18

C	0.0	0.0	0.0
C	-0.364224	-0.047575	-1.510951
F	1.402712	0.0	0.0
H	0.30934	-0.811408	-1.919364
C	-0.505709	1.234823	0.705897
H	-0.112871	2.14008	0.238029
H	-1.60146	1.229979	0.664355
H	-0.186648	1.212229	1.752816
C	-0.485731	-1.262478	0.67731
H	-1.579251	-1.239524	0.71909
H	-0.079986	-1.306102	1.692628
H	-0.149032	-2.149829	0.130674
C	0.053362	1.217788	-2.151168
N	0.383529	2.220922	-2.666291
N	-1.72455	-0.369441	-1.886719
H	-1.829761	-1.374835	-1.839457
H	-2.42964	-0.030227	-1.18571
H	-3.557374	0.0	0.0
