18

C	0.0	0.0	0.0
C	-0.519837	-0.01686	-1.43216
F	1.40739	0.0	0.0
H	-1.626951	0.017205	-1.293259
C	-0.468798	1.259427	0.69353
H	-0.095351	1.263638	1.721958
H	-1.566664	1.237601	0.692162
H	-0.107642	2.142595	0.16653
C	-0.475222	-1.230588	0.738233
H	-1.57413	-1.219422	0.70931
H	-0.131612	-1.188436	1.77572
H	-0.086075	-2.141796	0.276281
C	-0.158499	-1.271248	-2.1196
N	0.145481	-2.220296	-2.744397
N	-0.058941	1.15344	-2.179538
H	-0.526745	1.179356	-3.07817
H	0.936593	1.057195	-2.349032
H	-3.25869	0.0	0.0
