14
Coordinates from ORCA-job run
  C   -0.06940704552105      0.59211208464686      0.52418650535894
  C   1.31176153817786     -0.06085192370053      0.37183135388032
  Cl  0.23280845054665      2.28281713960301      1.06267817247417
  H   1.84223107143641     -0.04682895110523      1.32688502221826
  H   1.88730817238295      0.51626081867474     -0.35503147802238
  C   -0.90886658226166     -0.09130076342278      1.59479665115944
  H   -1.11075549494412     -1.12404305176129      1.29681034522320
  H   -0.40168066899211     -0.09463155841680      2.56191693742163
  H   -1.86086272208864      0.43102448699598      1.70745558330973
  N   -0.68025675589680      0.66802502286180     -0.78558659989173
  H   -1.55773529413949      1.17268007558942     -0.72755383062895
  H   -0.87824170953846     -0.27056893927401     -1.11966253614778
  C   1.17828221320039     -1.43883514831457     -0.09595476378770
  N   1.01541482763808     -2.53685929237658     -0.47777136256715
