14
Coordinates from ORCA-job run
  C   -0.17372415851422      0.58738608807239      0.58557257939557
  C   1.24869592125375      0.01679750398228      0.38455965065163
  Cl  0.08291622848529      2.27553777038962      1.16575501399179
  H   1.79487871957897      0.64696543561089     -0.32307883308534
  H   1.80337281728001      0.02044897018692      1.32668242165425
  C   -0.93941115552841     -0.18087847790485      1.64561422070915
  H   -1.91041755879315      0.29041224556897      1.79546786980603
  H   -0.39413482970604     -0.18789999674874      2.59020071008999
  H   -1.09293359971306     -1.21425024226057      1.32117810523937
  N   -0.96182797288445      0.66023067033056     -0.61568732540217
  H   -1.21943680723847     -0.27087284757370     -0.92276132451146
  H   -0.46080975710217      1.12999286757535     -1.36056132703404
  C   1.17288246508540     -1.34411633728958     -0.14142487101738
  N   1.05194968779654     -2.43075364993955     -0.56851689048738
