18

C	-0.390606	-0.045565	-1.489009
C	0.0	0.0	0.0
Br	0.000898	1.738302	-2.262697
H	1.09476	0.0	0.0
C	0.543702	-1.040675	-2.163668
H	0.273176	-2.044102	-1.822657
H	1.561074	-0.819556	-1.825631
H	0.461873	-0.992978	-3.252547
C	-1.863018	-0.326043	-1.726398
H	-2.09976	-1.294966	-1.27584
H	-2.087573	-0.36514	-2.795625
H	-2.488126	0.445585	-1.267865
N	-0.353917	-1.296066	0.617988
H	-1.111612	-1.196816	1.281258
H	0.474097	-1.597936	1.117462
C	-0.591461	1.112532	0.726029
N	-1.111381	1.946125	1.37453
F	2.60724	0.0	0.0
