18

C	-0.368373	-0.030829	-1.496219
C	0.0	0.0	0.0
Br	0.26838	1.667053	-2.298418
H	1.095869	0.0	0.0
C	0.436658	-1.148195	-2.146267
H	1.470244	-1.042135	-1.798422
H	0.040003	-2.116279	-1.821107
H	0.377417	-1.100664	-3.236385
C	-1.862847	-0.096853	-1.773967
H	-2.285209	-1.014482	-1.345839
H	-2.374086	0.760683	-1.329488
H	-2.061988	-0.104866	-2.848814
N	-0.345828	-1.2315	0.717527
H	-1.162402	-1.699468	0.345754
H	0.45887	-1.841004	0.657082
C	-0.599831	1.142435	0.681864
N	-1.107951	2.049996	1.231599
F	2.593594	0.0	0.0
