18

C	-0.200191	-0.005791	-1.508893
C	0.0	0.0	0.0
Br	-2.150627	-0.068418	-1.981983
H	1.098371	0.0	0.0
C	0.408648	1.257503	-2.090657
H	1.443031	1.268596	-1.725293
H	-0.109429	2.154302	-1.744463
H	0.387901	1.235684	-3.183558
C	0.479402	-1.24162	-2.0696
H	1.510383	-1.188214	-1.699106
H	0.009756	-2.146806	-1.688066
H	0.455075	-1.238449	-3.162679
N	-0.457586	-1.220245	0.651993
H	0.167398	-1.41129	1.425382
H	-1.398791	-1.111084	1.009908
C	-0.504374	1.216322	0.633255
N	-0.910563	2.16814	1.19403
F	2.620123	0.0	0.0
