14
Coordinates from ORCA-job run
  C   -0.40560541845052      0.19678051357141      0.38415049725445
  C   0.93416259393399      0.22319736465016     -0.34455967988255
  Br  -1.61828199017540      1.57554333132039     -0.38361586905318
  H   1.50941644351907     -0.60726591007476      0.08567672595142
  H   1.41676429042445      1.15470454264281     -0.03357155877328
  N   -1.13080039965718     -1.12707689105740      0.15959307617117
  O   -2.11104073048772     -1.33496408814829      0.86215421535433
  O   -0.67119755350852     -1.89298754602128     -0.68123238597477
  N   -0.23045636100627      0.29078345843246      1.77874341908581
  H   -1.11730367002112      0.21630756885793      2.26244999208711
  H   0.22660526943208      1.15785785808127      2.02905019167735
  N   0.82222619740097      0.21168634260924     -1.78461699858921
  H   1.61689304400391      0.66879741349244     -2.20662383209062
  H   0.75861828459226     -0.73536395835638     -2.12659779321804
