14
Coordinates from ORCA-job run
  C   -0.45807447121801      0.25452772131047      0.39058360602902
  C   0.37023794102156      0.63374142454302     -0.82238997978775
  Br  -1.86978787904219      1.66385447392847      0.65225779115524
  H   0.87619255444786      1.58273495812910     -0.58889493350306
  H   -0.29907725555032      0.80771414780973     -1.66292422778246
  N   -1.25622511459478     -1.01055180714476      0.08261417760002
  O   -1.74536953902191     -1.09120478449330     -1.03198910265196
  O   -1.37116690636501     -1.82462773275044      0.99160553239523
  N   0.33721226140049      0.01937033303296      1.51826310583942
  H   0.75087864431312      0.87716385410132      1.85842237628593
  H   -0.17365160464330     -0.45259823281083      2.25310367871242
  N   1.23664652750630     -0.49208474159125     -1.11616231202864
  H   2.00753380951223     -0.53373712470312     -0.46486029634661
  H   1.59365103223398     -0.43630248936137     -2.05962941591680
