14
Coordinates from ORCA-job run
  C   -0.50059452838641      0.29544839284836      0.29932343190708
  C   0.47916425762907      0.54007703619628     -0.83278036338531
  Br  -1.91626264300784      1.72211418855453      0.22290451440444
  H   -0.07699828572609      0.61713686118988     -1.76528621790896
  H   0.96107002097324      1.51120969753557     -0.64355080607741
  N   -1.26876738144695     -0.99719536439600      0.03319515979233
  O   -1.61167068676302     -1.20337358511641     -1.11935505461518
  O   -1.50970144815465     -1.70550859326107      1.00412670098414
  N   0.14248353229918      0.18692468076316      1.53802835009504
  H   -0.46292706098523     -0.20326206708223      2.24863488750657
  H   0.51940326034277      1.07781459969221      1.83280368458945
  N   1.36346863232459     -0.60800510867413     -0.88871633755802
  H   2.04792092692981     -0.57482133426416     -0.14678926628063
  H   1.83341140397153     -0.65855940398599     -1.78153868345354
