14
Coordinates from ORCA-job run
  C   -0.43299784132309     -0.02560716373767      0.34374381010769
  C   0.40086293837015     -0.01704132811461     -0.92904659030617
  Br  -1.36087006909985      1.79242307104488      0.45292412610205
  H   0.73358133383324     -1.04648134018829     -1.08631544978080
  H   -0.22746101651746      0.27430847729824     -1.77263621890376
  N   -1.60799665933138     -0.98146100171735      0.24665678835294
  O   -2.13250993855501     -1.30541632237633      1.30386503721123
  O   -1.93867558001161     -1.34963113662728     -0.87505316908260
  N   0.32508613428571     -0.36449004987083      1.44628549079952
  H   1.19994834048678      0.14587529342592      1.43412655716481
  H   -0.17036396700224     -0.31766678287559      2.32475852799471
  N   1.56620043831859      0.82880257432248     -0.69423837673113
  H   2.31522736405633      0.56829482000861     -1.32120687013869
  H   1.32996852248984      1.79709088940783     -0.87186366278979
