14
Coordinates from ORCA-job run
  C   -0.36702864122363      0.14400138961325      0.34637980753247
  C   0.96049694501588      0.37124812105334     -0.39432751991614
  Br  -1.87070049931186      0.91050763623156     -0.76276070969830
  H   1.19648896816579      1.43074823305728     -0.24975290987672
  H   1.70262094886991     -0.20415407654927      0.16624723828864
  N   -0.72877321897871     -1.33323784469404      0.45459705806779
  O   -1.60098288932394     -1.62286055568762      1.26307889377797
  O   -0.12211823886462     -2.12026497192443     -0.26423476968946
  N   -0.31237092697302      0.62482244155531      1.65623853191990
  H   -1.15655687148707      0.42599820778709      2.17783169623316
  H   -0.08409788649716      1.60866880166908      1.69143080155791
  N   1.07528823947730      0.06118469545342     -1.79358578469639
  H   0.87466501013378     -0.91596960703175     -1.95003293164951
  H   0.43306906099736      0.61730752946677     -2.34110940185133
