14
Coordinates from ORCA-job run
  C   -0.45415400831373      0.41738156455963      0.36394063880877
  C   0.41298703616259      0.71461870511287     -0.86166443870449
  Br  -1.81886993090509      1.78856590702803      0.56158583663903
  H   0.90754927598785      1.66732201510924     -0.66184851717613
  H   -0.24030837731680      0.84438828047386     -1.72270898310051
  N   -1.26202564651730     -0.88920176788020      0.07326447130173
  O   -1.66067524627976     -1.06356839750925     -1.07233598768014
  O   -1.42971282287687     -1.65141628215843      1.01941635258776
  N   0.29143467602261      0.32311109026859      1.55360776230074
  H   1.00322418715084     -0.39110103721489      1.45519649434134
  H   -0.29647414889162      0.08516239898250      2.34232722062275
  N   1.40814281715696     -0.28526443150526     -1.17447619935179
  H   1.00642203519924     -1.18390338161613     -1.39963653239263
  H   2.13146015342110     -0.37509466365055     -0.47666811819642
