14
Coordinates from ORCA-job run
  C   -0.55028609203163      0.35219023243701      0.38592868053800
  C   0.38138376866174      0.73254143219594     -0.77988288469733
  Br  -1.96004561694484      1.71125711078417      0.49967344501548
  H   0.85339916056398      1.68138299454911     -0.50637707003869
  H   -0.22135691042770      0.90646807442469     -1.67171326718181
  N   -1.20467282801903     -0.96894740252341     -0.02317668280389
  O   -0.93055551238052     -1.96426237370423      0.64225950023130
  O   -1.87290056127280     -0.95399475004854     -1.04756322432091
  N   0.03523503171593      0.17276293827970      1.66071335788431
  H   0.68981825899667      0.90882843640591      1.88299377313005
  H   0.42232707939091     -0.75135379223944      1.78382153275040
  N   1.39873838538786     -0.24804939786893     -1.07921771049411
  H   1.94694408499277     -0.48937806714194     -0.26501895514148
  H   1.00997175136666     -1.08944543555004     -1.48344049487133
