14
Coordinates from ORCA-job run
  C   -0.47356533510733      0.26600136654499      0.36228722265459
  C   0.85662736516333      0.37943567000571     -0.41282218572318
  Br  -1.83403235315052      1.32820644473137     -0.51011788837036
  H   1.13294146668605      1.43780771720115     -0.39596805174330
  H   1.59593528787728     -0.16781599847916      0.18201627464963
  N   -0.84740757041761     -1.21624993961177      0.31050496752867
  O   -1.68325762990910     -1.62259624037996     -0.48222481304586
  O   -0.15856457664057     -1.90862537948879      1.05790513069924
  N   -0.43661547740655      0.62261903024574      1.74794523705264
  H   -0.31964760725801      1.62190268880851      1.85109466909444
  H   0.32146986654364      0.13183220737866      2.20799615111449
  N   0.89718197047343     -0.10834310705077     -1.76791766944869
  H   0.75439090876100     -1.10864514910005     -1.81124257905787
  H   0.19554368438497      0.34347068919436     -2.33945646540445
