14
Coordinates from ORCA-job run
  C   -0.36925236069555      0.30797024851426      0.44500711271497
  C   0.82736210494994      0.40876561963696     -0.49027039673987
  Br  -1.68858157659672      1.65264607093702      0.01656412282414
  H   1.59410609092237     -0.28136524989553     -0.11396681949190
  H   1.20682060476993      1.42422922152298     -0.36501112528908
  N   -1.04479770225673     -1.07851515925233      0.24117736778143
  O   -2.17899279932324     -1.23635373489737      0.66949441898430
  O   -0.31839435861652     -1.96493706879452     -0.20910792100306
  N   0.02318582136786      0.45463166748471      1.79995706389123
  H   0.70955537665478     -0.24670226137826      2.05530653424138
  H   -0.76961651494438      0.41879762503815      2.42869199670603
  N   0.44768192319977      0.17321758230723     -1.86659234789371
  H   0.97196640339860      0.76206448565392     -2.49560618138458
  H   0.58795698716988     -0.79444904687720     -2.11664382534126
