14
Coordinates from ORCA-job run
  C   -0.45390799254527      0.25260664400882      0.39708654145600
  C   0.35105354130235      0.63124975984202     -0.83172870995672
  Br  -1.87694394354512      1.64909473598026      0.66925766520356
  H   -0.33371791785890      0.79159218193850     -1.66249424328996
  H   0.84966002634492      1.58772831151954     -0.61357013976823
  N   -1.24347337344396     -1.02267448599387      0.11185539621115
  O   -1.74536789381864     -1.12056693507288     -0.99586545978661
  O   -1.33967245474623     -1.82860901706024      1.03042603337597
  N   0.36083120909122      0.03443350662261      1.51401476705273
  H   -0.13424722153396     -0.43533945144188      2.26096958787170
  H   0.77188717869715      0.89900866325381      1.83996184349637
  N   1.22513992153069     -0.48649969777914     -1.13187418290082
  H   2.01377324929706     -0.51024667473461     -0.50141695121365
  H   1.55498567122868     -0.44077754108294     -2.08562214775147
