14
Coordinates from ORCA-job run
  C   -0.38330783253283      0.14554548577234      0.27859298096644
  C   0.46883049456096     -0.12086194770595     -0.96935975840553
  Br  -1.20334577019716      1.90719917234388      0.21124791013021
  H   -0.16940878780361     -0.05399010565937     -1.84927012380082
  H   0.80518556923248     -1.16407060359880     -0.88981307219659
  N   -1.57720201077669     -0.85514706416738      0.23903299635864
  O   -1.75962547521705     -1.53137213643563      1.24718631910888
  O   -2.21736703482962     -0.91943277489715     -0.80232444895345
  N   0.38236971286015      0.03866529647749      1.45661268785172
  H   0.76749299545213     -0.89620351900804      1.53734608499502
  H   -0.16638534276423      0.23588316552385      2.28379527821685
  N   1.61706270827408      0.73929748727074     -1.12374172571793
  H   1.31752054840857      1.67313324691673     -1.37314083364148
  H   2.11818022533281      0.80235429716729     -0.24616429491197
