14
Coordinates from ORCA-job run
  C   -0.41187912779880      0.16353060660549      0.39268866888234
  C   0.89527236093272      0.31080133983402     -0.37942094628654
  Br  -1.78458121528194      1.39001920626261     -0.36623008544632
  H   1.28637761383016      1.29526888465445     -0.10545810350355
  H   1.56760991826226     -0.44352341719404      0.05035915268561
  N   -1.00144927769416     -1.23340332640017      0.22053015825137
  O   -1.93474515543325     -1.52331314364827      0.95703549750984
  O   -0.48818750919780     -1.96926711350518     -0.61611511043936
  N   -0.20701280361818      0.31017428635985      1.77843264044209
  H   0.16269800288707      1.22637593538797      1.99578081147066
  H   -1.06634895994989      0.15435623989830      2.29152012595963
  N   0.74243757359670      0.25069421366979     -1.81449980500066
  H   0.76538175254704     -0.70649949904627     -2.13246184996668
  H   1.47342682691806      0.77478578712145     -2.27216115455842
