14
Coordinates from ORCA-job run
  C   -0.28795484774090      0.31759038618508      0.49826296525548
  C   0.86437646392726      0.25104314064910     -0.49495076732688
  Br  -1.38766844050769      1.87553563575510      0.16584552234369
  H   1.44810795717394      1.16969090547210     -0.35907309342862
  H   1.48488268604365     -0.59689926911955     -0.19094962283177
  N   -1.13838038233496     -0.96141287439553      0.22692178831855
  O   -2.25003056293297     -0.89851520419139     -0.26536487017994
  O   -0.54298489950765     -1.98531409652207      0.55807878841666
  N   0.19028765291628      0.36138330921426      1.83091894098290
  H   0.68994452871176     -0.49552304999175      2.03959379397906
  H   -0.55973106338236      0.49234546229814      2.49815448894452
  N   0.36591851300401     -0.00107936842446     -1.83259304564203
  H   1.09712263355224     -0.38032376509060     -2.41752757104683
  H   0.02810976107742      0.85247878816157     -2.25731731778477
