14
Coordinates from ORCA-job run
  C   -0.48541809880655      0.41146644942544      0.41454356876148
  C   0.43166933008599      0.67048940743797     -0.77042047188865
  Br  -1.84576122687565      1.80155150675130      0.53256753549138
  H   -0.16896468248082      0.82013916984562     -1.66907262189877
  H   0.96178992567461      1.59711046288812     -0.54371800664906
  N   -1.30139571304779     -0.88549307289857      0.11192566366696
  O   -1.67072789037588     -1.53388002611439      1.08297606320191
  O   -1.51591193992151     -1.16250599420590     -1.06406480908691
  N   0.23465838028480      0.31471168648727      1.61093736515107
  H   1.01806867850338     -0.31094303117545      1.44798564466463
  H   -0.34274550375141     -0.02200058458837      2.37041249914483
  N   1.37526371206725     -0.44010825539284     -0.85146444016816
  H   1.03312427931916     -1.14021841511556     -1.49666365048130
  H   2.27735074932440     -0.12231930334463     -1.17694433990942
