14
Coordinates from ORCA-job run
  C   -0.37788459322767      0.15618682503146      0.28063060627541
  C   0.45594551546572     -0.14325748126985     -0.97227552238187
  Br  -1.16815253411735      1.93071160104665      0.19569155167289
  H   -0.19076579204232     -0.07786011312254     -1.84610425988049
  H   0.77481210375649     -1.19098649878514     -0.88100617832081
  N   -1.58893156113859     -0.82390156767670      0.26875714607693
  O   -2.24205473982135     -0.89151081623261     -0.76423425151764
  O   -1.77175170828537     -1.48222821739454      1.28854313765881
  N   0.39887365255903      0.05356592995248      1.45177558399802
  H   -0.13805405994674      0.26974666503433      2.28199685298907
  H   0.77075070055688     -0.88591553452117      1.54085986874126
  N   1.61703669430099      0.69432527295808     -1.15183784922053
  H   2.12923241263616      0.76162502971261     -0.28100556122596
  H   1.33094390930414      1.62949890526694     -1.41179112486508
