14
Coordinates from ORCA-job run
  C   -0.52727449022273      0.45921694074168      0.29665387753732
  C   0.54214912960838      0.57387897334037     -0.77838707303049
  Br  -1.86336243026629      1.85985500182821      0.07169391255235
  H   1.05716726719989      1.51773375267785     -0.59156788372934
  H   0.06763456393004      0.62075262030148     -1.75986623254119
  N   -1.32231678471472     -0.86001371544890      0.04111748490361
  O   -1.82961975230476     -1.38729508529581      1.02307460477697
  O   -1.38549507520770     -1.27338244287251     -1.11255194753275
  N   0.02806889031168      0.50030493297227      1.58080358458112
  H   0.81538667210132     -0.14132833109117      1.59512530599955
  H   -0.64940205027571      0.25533537258452      2.29112198761667
  N   1.46603184309788     -0.54311654742025     -0.60516610838255
  H   2.40786314029401     -0.27123824562649     -0.84974398669667
  H   1.19316907644871     -1.31370322669125     -1.20130752605462
