14
Coordinates from ORCA-job run
  C   -0.33068213428845      0.13897870318316      0.47155161938858
  C   0.85159305863102      0.29332119573857     -0.47972891916510
  Br  -1.68227145643310      1.55244538104993      0.10323510468019
  H   1.37104799708125      1.19998441675852     -0.15501987299575
  H   1.50708376395488     -0.56004468650227     -0.26105454868191
  N   -1.06695296797362     -1.17556349697358      0.22895571615172
  O   -0.75957446119210     -1.82621731179733     -0.76446362906243
  O   -1.89866172867705     -1.49451649767870      1.06804589882829
  N   0.09693859359137      0.08109683812155      1.81235240002685
  H   0.58264640941587      0.92835196378585      2.07592124781307
  H   -0.68389792187950     -0.07856126831479      2.43738322780457
  N   0.47645657892043      0.43997109679985     -1.86698727784453
  H   0.36056567263242     -0.46460310406514     -2.29860686561037
  H   1.17570859621656      0.96535676989438     -2.37058410133318
