14
Coordinates from ORCA-job run
  C   -0.48256232863794      0.41647473008547      0.41373880347950
  C   0.42709515385307      0.66253194038965     -0.77990712748055
  Br  -1.83924538546535      1.80966570454893      0.52795365568654
  H   -0.17993903270486      0.80329496232960     -1.67563468038205
  H   0.95988307907900      1.59081772093819     -0.56688629632839
  N   -1.30199332204058     -0.88212407830291      0.12905184975178
  O   -1.66734067416448     -1.51947018454677      1.10889835449252
  O   -1.52359729517057     -1.17138422839580     -1.04262544379782
  N   0.24558547222009      0.32981253794912      1.60619821160111
  H   1.02589244910164     -0.29988989707910      1.44412279954041
  H   -0.32770702693504      0.00269262229026      2.37290033676928
  N   1.36840462075151     -0.45028783940232     -0.85632931793195
  H   1.02383085373599     -1.15458677379548     -1.49549945944993
  H   2.27069343637752     -0.13654721700885     -1.18498168595046
