14
Coordinates from ORCA-job run
  C   -0.27562559868208      0.11061992785974      0.43261183683927
  C   0.84324725288893      0.41637472458711     -0.57584227539912
  Br  -1.99588824366044      0.93434804157039     -0.23435300221764
  H   1.10900265854078      1.46509722188888     -0.40635520099324
  H   1.69429519518940     -0.18865930356040     -0.25049556808211
  N   -0.60546920701191     -1.37640448826903      0.50502455611381
  O   -0.18625620041543     -2.09513160978762     -0.39601320475468
  O   -1.26436165809759     -1.74194240105060      1.46962829142353
  N   0.08234928267106      0.49038717168391      1.72731189690639
  H   -0.61704339849329      0.23787993503802      2.41373667438935
  H   0.31565842025621      1.47186297099567      1.78593519788373
  N   0.62869260827949      0.21821268291479     -1.98367239273836
  H   -0.12177660856501      0.80506343909701     -2.32112828000190
  H   0.39417549709990     -0.74670831296785     -2.16638852936902
