13
Coordinates from ORCA-job run
  C   0.91378346651572      0.26666990519021     -0.00223903545616
  C   -0.39599040089937     -0.28151964839808      0.60624841307192
  Br  1.97093047439186      0.95399384943076      1.50643003499412
  H   -0.15622937369237     -1.06347866410687      1.33267147492111
  C   1.67361165450472     -0.81368413665167     -0.62535640807532
  N   2.29216579496788     -1.70206216607906     -1.08436305447593
  C   0.66696999808176      1.36640058742649     -0.92859605314113
  N   0.47150105076949      2.27930304838868     -1.64350747853917
  N   -1.25619260088592     -0.96490121808693     -0.45771299237046
  O   -2.21185881868063     -1.58361725723602     -0.01630195958833
  O   -0.91768694695429     -0.83176260620844     -1.62648046834255
  C   -1.19758292595445      0.76460617743864      1.22541592556127
  N   -1.85442137216441      1.60805212889229      1.71379160144063
