13
Coordinates from ORCA-job run
  C   0.78474559590939      0.15357941067480     -0.33349572500748
  C   -0.58378340848272      0.05651581172642      0.39796192879371
  Br  0.54872305253809     -0.22252994853699     -2.23817128878563
  H   -0.40359392931762      0.16122125880439      1.47307787330275
  C   1.27867476384950      1.52127154604617     -0.18029828290185
  N   1.65990497351561      2.62390766448144     -0.02933776937878
  C   1.76396090123070     -0.78117302257460      0.21831020430965
  N   2.59280138550322     -1.49292233009786      0.65427353647755
  N   -1.16616733010105     -1.33625105546828      0.21559915846217
  O   -2.13363532296354     -1.45790133693915     -0.52129529012675
  O   -0.57853969369873     -2.21316906302475      0.83721905360111
  C   -1.51217432624929      1.07054052288654     -0.07448355768744
  N   -2.25191666173357      1.91591054202189     -0.41935984105900
