13
Coordinates from ORCA-job run
  C   0.87005132919036      0.04507709516846     -0.26333772408910
  C   -0.44603729078832     -0.51864259551739      0.33326509948167
  Br  1.48743531131290     -1.16839248066458     -1.67017860014960
  H   -0.24399136599094     -1.49988954355784      0.76848759234372
  C   0.71874336746392      1.38901410088389     -0.81545030752124
  N   0.65697275864572      2.48678277075319     -1.23358602380784
  C   1.86604879971687      0.05836878929675      0.80706757526289
  N   2.64384056126837      0.05374555561691      1.68959949503251
  N   -1.47003234423245     -0.74353160499497     -0.76199184485497
  O   -1.87935087980382     -1.89056939131939     -0.88212963554840
  O   -1.78414025098164      0.24218838762410     -1.41523330456954
  C   -0.99458911213381      0.40175707954903      1.32008234591044
  N   -1.42495088366716      1.14309183716183      2.12440533250946
