13
Coordinates from ORCA-job run
  C   0.88035684409917      0.07145829682214     -0.22006675458344
  C   -0.44891390719986     -0.53757892932989      0.29767885205749
  Br  1.59248473698362     -1.08631838212540     -1.62831461371605
  H   -0.24509761211976     -1.52525041276084      0.71728043609514
  C   0.72236392938279      1.42665116342803     -0.74208977449302
  N   0.65173703327232      2.53388191773258     -1.13264748616922
  C   1.82446651788099      0.07823497986308      0.89650939257653
  N   2.55995682766280      0.06826473565548      1.81447799652899
  N   -1.41348829029586     -0.75634051524730     -0.85158620410163
  O   -1.72145052885289      0.23956375599948     -1.49225905033707
  O   -1.78727109265485     -1.90911008287885     -1.02198572954311
  C   -1.06531282217470      0.34407956361118      1.27985126465980
  N   -1.54983163598376      1.05246390923030      2.08315167102559
