13
Coordinates from ORCA-job run
  C   0.77851068638398      0.34288352200738     -0.19448399659617
  C   -0.51020700285215     -0.38309806616439      0.27356598263013
  Br  0.35559501751999      2.19812233252506     -0.64747854194119
  H   -0.28622350604862     -1.45174308554984      0.38295234868961
  C   1.72205270564564      0.34381917886663      0.92400725099423
  N   2.47520753759278      0.31911858528398      1.82733000288886
  C   1.40923228073092     -0.31671222733596     -1.33717563416810
  N   1.99506749469407     -0.85528534855777     -2.20337623412170
  N   -1.60514046328300     -0.31535223426414     -0.78919406702321
  O   -2.75261813863909     -0.20695683636743     -0.38514102363934
  O   -1.22622841892690     -0.43266356291570     -1.94477124216378
  C   -0.99752109992266      0.16456569307884      1.53034217507323
  N   -1.35672709289495      0.59430204939333      2.56342297937744
