13
Coordinates from ORCA-job run
  C   0.87503519219954      0.04733387254639     -0.25028498120005
  C   -0.45213567214585     -0.52438599763650      0.31362486385601
  Br  1.50852878275306     -1.13558885395010     -1.67599505970378
  H   -0.26094339490146     -1.51699607994666      0.72730141088896
  C   0.73548841883397      1.40441209106104     -0.77268662449881
  N   0.67629942317157      2.51190377573409     -1.16456237494001
  C   1.85509494222586      0.03142294861175      0.83479469705765
  N   2.61821126151023      0.00196208436051      1.72961293178324
  N   -1.46152905004606     -0.71739123801072     -0.80105168790537
  O   -1.76548201902173      0.28631230432643     -1.43133793697754
  O   -1.87107300293908     -1.85999920876979     -0.95759981866277
  C   -1.01011408968726      0.37416687427525      1.31516965288440
  N   -1.44838079195278      1.09584742739831      2.13301492741806
