13
Coordinates from ORCA-job run
  C   0.93554958566334      0.17681378868944      0.02426513524242
  C   -0.45380876257846     -0.16464875309200      0.60730277319818
  Br  1.97682392938823      0.94245180105301      1.50540137836735
  H   -0.33382667452649     -0.87096428403151      1.43399342222274
  C   1.61135446009747     -1.04099690606529     -0.41541410527351
  N   2.15667990184944     -2.03776186689829     -0.71840184661956
  C   0.85077992189294      1.17124816880951     -1.04000944869045
  N   0.78693977611169      2.00287245214523     -1.86886008605314
  N   -1.32215601808769     -0.88870494745601     -0.42227610769918
  O   -2.35751211958859     -1.35525038471916      0.02597430433016
  O   -0.91015502987018     -0.93402488581536     -1.57398543709728
  C   -1.17504689429451      1.02103365751652      1.04792299641660
  N   -1.76462207605719      1.97693215986391      1.39408702165566
