13
Coordinates from ORCA-job run
  C   0.87443399776916      0.01705933997384     -0.25173501792499
  C   -0.46643000572091     -0.50358271095741      0.32899019429455
  Br  1.47416085283477     -1.22177323181716     -1.64433696438134
  H   -0.30048781235314     -1.48911244949462      0.76956444270163
  C   0.77126787877849      1.36220495121242     -0.81211797574662
  N   0.74746287079127      2.45908080843623     -1.23644276242384
  C   1.85570995851512      0.00553765576422      0.83230369025716
  N   2.62059200268620     -0.01958501549487      1.72573531899415
  N   -1.48207741813562     -0.70040608237320     -0.77906885597836
  O   -1.75903321156604      0.29288454671276     -1.43758791865836
  O   -1.92266022746645     -1.83535761259087     -0.90333738250014
  C   -0.99832757830804      0.43693887298681      1.30578919313594
  N   -1.41361130782481      1.19411092764184      2.10324403823022
