13
Coordinates from ORCA-job run
  C   0.87744263028970      0.08857814933291     -0.22955639551961
  C   -0.43408407422600     -0.54250669381890      0.30699691801942
  Br  1.60028752294868     -1.07161269292779     -1.63166747760932
  H   -0.20566266618135     -1.52198654634297      0.73276657361339
  C   0.68725391876767      1.43435614633133     -0.76467747561090
  N   0.58985733273024      2.53554143716845     -1.16661118051518
  C   1.83065015657982      0.12379455703005      0.87875253712981
  N   2.57068501442948      0.12877496559445      1.79326173226845
  N   -1.40616806701089     -0.79121433913396     -0.82921974225264
  O   -1.74021251933476      0.19176074834326     -1.47668486198526
  O   -1.75907257733421     -1.95275361321569     -0.98460100276580
  C   -1.05831874449259      0.33570405040652      1.28726579801054
  N   -1.55265792716580      1.04356383123234      2.08497457721711
