13
Coordinates from ORCA-job run
  C   0.80289728994694      0.27756051759439     -0.16289013734538
  C   -0.54250393455953     -0.36711019202973      0.27429620243504
  Br  0.57644436921836      2.20886826322201     -0.37226911730149
  H   -0.41582317053360     -1.45488296190855      0.27367398928560
  C   1.78380096463047      0.03038677677395      0.89289206201645
  N   2.56195808356055     -0.19031213624087      1.74718671448561
  C   1.29245030017786     -0.28355978783297     -1.42082080480180
  N   1.74177064545576     -0.73290921568513     -2.41071867196908
  N   -1.61246448702369     -0.08084699805600     -0.76820713345688
  O   -1.46082866834010     -0.68340692663537     -1.82398286732581
  O   -2.49884356108477      0.70764413043957     -0.47424844952615
  C   -0.95705395097985      0.10838809795248      1.58406969920466
  N   -1.26980388046838      0.45918043240620      2.66101851429922
