13
Coordinates from ORCA-job run
  C   0.87995590504284     -0.07798679614768     -0.21900273318861
  C   -0.51122332140326     -0.41737717538454      0.37703463094963
  Br  1.42461401109147     -1.53803894254510     -1.40458573680159
  H   -0.43100480709895     -1.33982874119671      0.95634849385947
  C   0.89218749017312      1.17923260382730     -0.96288567944699
  N   0.96063431377908      2.20475491008376     -1.53504297103945
  C   1.82724868974422     -0.00704944881358      0.89264073198459
  N   2.56199702037826      0.03547428851775      1.81041047504115
  N   -1.50722554579208     -0.69824038127815     -0.73059112492027
  O   -2.02506465880163     -1.80692456000249     -0.71398284355125
  O   -1.69269694923351      0.20937802816905     -1.53002551906900
  C   -0.99918099447654      0.68555644883993      1.19379140432338
  N   -1.37924115340302      1.57104976593045      1.86689087185895
