13
Coordinates from ORCA-job run
  C   0.93134408785301      0.19048687994814      0.03919343892441
  C   -0.45522290777265     -0.20199057095989      0.59550399877235
  Br  1.95121657069299      0.89922102114659      1.56329257594607
  H   -0.32826491735156     -0.94687118169624      1.38652382187641
  C   1.63055311774520     -0.99256428654888     -0.45525447023854
  N   2.19618884890159     -1.96176597893072     -0.80655705534824
  C   0.83762695192718      1.23475463561747     -0.97534308995509
  N   0.77148070332323      2.10736303264874     -1.76083498720050
  N   -1.30572789142647     -0.88794729421709     -0.47479541075972
  O   -0.88501665794008     -0.87148854791844     -1.62411921094396
  O   -2.33631151708167     -1.39209003083349     -0.05723656599918
  C   -1.19920750329934      0.94789747439331      1.08981059796252
  N   -1.80865888557143      1.87399484735048      1.47981635696348
