13
Coordinates from ORCA-job run
  C   0.87862118976937     -0.09240920888662     -0.21872981469610
  C   -0.51986809614879     -0.41357043211731      0.36997144633977
  Br  1.39545177356854     -1.54501230429148     -1.42625194522575
  H   -0.45877939058300     -1.34642421167846      0.93480325960929
  C   0.91737365270199      1.17565223926127     -0.94290517693852
  N   1.00628576598171      2.20870139787653     -1.49840446253197
  C   1.82603826032494     -0.05704140241545      0.89446462197299
  N   2.56139334891557     -0.03884959663666      1.81249408487140
  N   -1.51968415553580     -0.65691006000751     -0.74295312511888
  O   -1.68387710263771      0.26566764163525     -1.52972465997377
  O   -2.06167972163742     -1.75420549717760     -0.74271858738628
  C   -0.98761259853437      0.68583372762109      1.20325060472152
  N   -1.35266292618503      1.57056770681696      1.88570375435628
