13
Coordinates from ORCA-job run
  C   0.82858133948213      0.21567354006374     -0.17992072850218
  C   -0.56817396636608     -0.29216869035277      0.26441199171408
  Br  0.71567846942529      2.10846929148171     -0.65842730909361
  H   -0.51729798411581     -1.38110889135512      0.38986125688435
  C   1.73567014507995      0.08041857106676      0.96037321739527
  N   2.45509631195474     -0.05221627650681      1.88177674969135
  C   1.36997629296672     -0.55140671073244     -1.30111415303983
  N   1.87476109471733     -1.19089905182923     -2.14929225486697
  N   -1.61724439477646     -0.06972328838567     -0.82351085660186
  O   -1.23327144768076     -0.23879129708612     -1.97094605502449
  O   -2.74700357959192      0.19720614875146     -0.44394555570412
  C   -0.99169715575079      0.34055723272177      1.50411593826716
  N   -1.30507512534435      0.83198942216273      2.52461775888085
