13
Coordinates from ORCA-job run
  C   0.92656706307749     -0.02826361865970     -0.17136006476248
  C   -0.48822117717655     -0.63561576726000     -0.00116473273817
  Br  2.19084674104172     -1.52353409655083     -0.02468526043599
  H   -0.61340963658701     -1.45419761197492     -0.71282833226235
  C   1.04450081534134      0.55243578351029     -1.50654616193543
  N   1.10404533772373      1.00292148205559     -2.59152320155297
  C   1.25656827053091      0.94714567200036      0.86260570402456
  N   1.56881712501045      1.70529597065047      1.70586953970297
  N   -1.53427181540910      0.40469674246653     -0.37545931154743
  O   -2.39483520152683      0.03399922403924     -1.16196788829513
  O   -1.41155545270515      1.50521205589892      0.14568147051525
  C   -0.72501857885246     -1.07688087057768      1.36506082342241
  N   -0.92503349046856     -1.43221496559827      2.46731741586474
