13
Coordinates from ORCA-job run
  C   0.89797537328200      0.27403643342940      0.06236255758248
  C   -0.43661929297091     -0.28928526978843      0.61278105905598
  Br  1.94432033550248      0.84936074690082      1.62043033063112
  H   -0.21851667414820     -1.05869220233632      1.35599155067679
  C   1.62600446256199     -0.79173701260332     -0.62182675262136
  N   2.18431689171863     -1.67580183270116     -1.16080062077757
  C   0.70875680510693      1.42812240920961     -0.81065032722915
  N   0.59200936794391      2.37986843050675     -1.49192242968671
  N   -1.17961835314966     -0.99380815207645     -0.51270702932731
  O   -1.45410387497859     -2.17020325631288     -0.31523908773901
  O   -1.41793266954339     -0.31909492824454     -1.50553049886164
  C   -1.27949779447880      0.76194830541279      1.16114702931429
  N   -1.96709457684637      1.60428632860372      1.60696421898209
