13
Coordinates from ORCA-job run
  C   0.91940381238457      0.18515203603169      0.15381041442382
  C   -0.49848702254201     -0.31782325027428      0.50524257967648
  Br  1.79308920855196      0.59593513278527      1.86706073824416
  H   -0.41906738988814     -1.19853657349940      1.14907539044773
  C   1.68661914481844     -0.87410514242183     -0.49534371654244
  N   2.30657402755839     -1.75089156707140     -0.97449728065523
  C   0.88306252399849      1.40475079806112     -0.64590829766390
  N   0.85853223899197      2.41128317393988     -1.25349339496758
  N   -1.24146088345924     -0.79130041991669     -0.74467316300346
  O   -0.72660529080605     -0.55361970124350     -1.82931425775986
  O   -2.29261981595190     -1.37052842406040     -0.52060562080088
  C   -1.30620160647025      0.71248853250132      1.14309238063839
  N   -1.96383894718623      1.54619540516822      1.64655422796276
