13
Coordinates from ORCA-job run
  C   0.93195688056155      0.18984823594231      0.01956571585244
  C   -0.45843100235773     -0.12424454089206      0.61507649702070
  Br  1.94914771264850      1.08115657274299      1.44661496924812
  H   -0.33793781282731     -0.76278968404866      1.49505010713205
  C   1.62856046846758     -1.04803418907037     -0.31972654214470
  N   2.19236367358251     -2.05469825284850     -0.54647829290591
  C   0.84555620186166      1.09856298763933     -1.11861476117429
  N   0.78205758374263      1.86478989856198     -2.00843085338236
  N   -1.30761660188916     -0.93662612384615     -0.36374482780483
  O   -2.34192646530872     -1.38013417771330      0.10953356237732
  O   -0.88297195255347     -1.06586011282740     -1.50439026039309
  C   -1.19868859952288      1.08265871245217      0.95523893402038
  N   -1.80307008640516      2.05537067390766      1.21930575215416
