13
Coordinates from ORCA-job run
  C   0.92893192388578      0.19068169091566      0.07182935762335
  C   -0.46756482149122     -0.23863621217619      0.57327581372162
  Br  1.91277376643755      0.81288030535309      1.65561500781003
  H   -0.35459276002692     -1.02919107412158      1.32096306638357
  C   1.64448040444282     -0.95845344150995     -0.47649453744156
  N   2.22384134131448     -1.90164933197079     -0.87321438004424
  C   0.85200762068809      1.29134066115685     -0.88273832135251
  N   0.79678090322217      2.20384235263730     -1.62239429092527
  N   -1.29175014455134     -0.86176002468287     -0.55427847096748
  O   -2.32820299701988     -1.39413609948655     -0.18973610751276
  O   -0.84771185544785     -0.77368708722402     -1.69134893499945
  C   -1.22595877426938      0.87794772425994      1.11969112210545
  N   -1.84303460718432      1.78082053684910      1.54983067559925
