13
Coordinates from ORCA-job run
  C   0.78042827148406      0.45565451473554     -0.10662885295093
  C   -0.45463672021028     -0.39107289256469      0.31360057908901
  Br  0.45440284364511      2.38018447061939     -0.06615242331433
  H   -0.12264405593823     -1.42358965226377      0.45681156897484
  C   1.84074502224719      0.16868930394305      0.85983750728150
  N   2.66874559384033     -0.08874861694388      1.65450210099008
  C   1.19920264262782      0.05839854544992     -1.44984141437056
  N   1.52017280835313     -0.29589571207720     -2.52452553313876
  N   -1.48719307657153     -0.46683236907412     -0.80106474807077
  O   -1.77682352657377      0.57852510485172     -1.36365238988174
  O   -1.94175444465948     -1.58450861095041     -1.00877958041852
  C   -1.08385184592706      0.11196527419893      1.52466132030304
  N   -1.59579351231729      0.49623064007550      2.51023186550713
