13
Coordinates from ORCA-job run
  C   0.92088251817301      0.21020656852388      0.11492002669452
  C   -0.49747102343185     -0.21306330208888      0.55728366590812
  Br  1.79790862089357      0.93933687502321      1.71654950195564
  H   -0.41951197036733     -0.95486386596713      1.35747524034994
  C   1.68390152968449     -0.95637833417999     -0.32047724793236
  N   2.29603093337904     -1.91361617064451     -0.62331185229740
  C   0.88580643096188      1.25378635336898     -0.90404597099640
  N   0.86023672389908      2.12562712902749     -1.69297943874030
  N   -1.24272521387714     -0.91678782217630     -0.57798008484223
  O   -2.29341659210621     -1.44222985767710     -0.24561883420050
  O   -0.72956191151253     -0.89134779422797     -1.68892251313204
  C   -1.30318871883225      0.92138896948732      0.98631417520268
  N   -1.95889132686375      1.83794125153099      1.31979333203035
