13
Coordinates from ORCA-job run
  C   0.94476084460400     -0.03105321436557     -0.11594565479531
  C   -0.47680364432846     -0.61071119889342      0.05791209981161
  Br  2.18469614277576     -1.43886703808478      0.47183817329476
  H   -0.57047531666294     -1.52117635536684     -0.54125137854096
  C   1.21134593559791      0.23947491197560     -1.52600775371051
  N   1.42314923349243      0.40914414139952     -2.67015196921143
  C   1.15843004951943      1.14699036625200      0.71769932826402
  N   1.34267346586976      2.07178015517554      1.42025339896933
  N   -1.53519678548180      0.34787102202223     -0.48933132984529
  O   -2.65926895489207     -0.12392575877267     -0.55787392895544
  O   -1.16863119759373      1.47366900810577     -0.80001657850194
  C   -0.79586389231711     -0.87964481658165      1.45309116128929
  N   -1.05981588058318     -1.08455122286572      2.57978443193187
