13
Coordinates from ORCA-job run
  C   0.92939578724123      0.19905055615743      0.03609379478788
  C   -0.46624125754957     -0.13764820764976      0.60648203403863
  Br  1.91684644310677      1.07930908816970      1.49070665486664
  H   -0.35151416515985     -0.78836990068246      1.47824964732818
  C   1.64331980239688     -1.02691728174510     -0.31052990033455
  N   2.22003764869211     -2.02552715426812     -0.54048052516634
  C   0.85085498386434      1.12321583480325     -1.09019165419376
  N   0.79417989560638      1.89989397178555     -1.97136443012065
  N   -1.29299550908315     -0.94336680510662     -0.39662641656944
  O   -2.32989075124035     -1.40337499602934      0.05477029028741
  O   -0.85030159075929     -1.05207957221926     -1.53253209497620
  C   -1.22328864514074      1.05670884426054      0.95389258269679
  N   -1.84040264197475      2.02010562252419      1.22253001735540
