13
Coordinates from ORCA-job run
  C   0.87523991318790      0.04300472058870     -0.24712406151146
  C   -0.45444796103693     -0.51438836513634      0.32535264839777
  Br  1.51156773159597     -1.17271072635569     -1.64392626922580
  H   -0.26433428420549     -1.49519572906139      0.76675791797635
  C   0.74050493183305      1.38803447762978     -0.80062680575554
  N   0.68673777907135      2.48571183568191     -1.21999698294986
  C   1.85191579211271      0.04817366805982      0.84097747221911
  N   2.61288348035418      0.03028935112272      1.73796539925213
  N   -1.45781955519795     -0.73837691847262     -0.78886855818959
  O   -1.75408462286307      0.24636347512577     -1.45167164183134
  O   -1.86974555004886     -1.88398129865060     -0.91348630443143
  C   -1.01788239095057      0.41063639953426      1.29916758601579
  N   -1.46053526385229      1.15443910993366      2.09447960003387
