13
Coordinates from ORCA-job run
  C   0.91751410476651      0.19372745071800      0.16187476402519
  C   -0.49843979208847     -0.32144277188193      0.50206587462895
  Br  1.77680935125961      0.60749688321341      1.88096045328251
  H   -0.41650672317536     -1.20400258812978      1.14327722160181
  C   1.69628056274946     -0.85864071772504     -0.48562109299856
  N   2.32145715102649     -1.73207179597597     -0.96422050520348
  C   0.87761870395993      1.41374400275632     -0.63759148482262
  N   0.84959213005120      2.41832753942999     -1.24838777474042
  N   -1.22918652146713     -0.79948320500504     -0.75330324566199
  O   -2.27494233191960     -1.39132195935880     -0.53680755325155
  O   -0.71153046892828     -0.55272531069300     -1.83472504686012
  C   -1.31982177289821      0.69929004093056      1.13732352568209
  N   -1.98884439333616      1.52610243172128      1.63715486431819
