13
Coordinates from ORCA-job run
  C   0.77490348040371      0.34823227821066     -0.21010080127058
  C   -0.50184564566098     -0.38257725504992      0.28148263858193
  Br  0.34749806883922      2.21360145949671     -0.61422391575398
  H   -0.27553477815812     -1.45246223564676      0.37203472151582
  C   1.75074673206894      0.32339278185597      0.88038450265778
  N   2.53321826158877      0.27846822331590      1.75785304118812
  C   1.36884629154621     -0.29299057448193     -1.38253073470482
  N   1.91771235066696     -0.82496241685431     -2.27627930444554
  N   -1.62689836175412     -0.30436063396812     -0.74796953609558
  O   -2.76427355678542     -0.24759686525436     -0.30615372836173
  O   -1.28092597880636     -0.36786860076564     -1.91817278818757
  C   -0.95519239089451      0.14786794962046      1.55805748175824
  N   -1.28925447305431      0.56225588952132      2.60561842311791
