13
Coordinates from ORCA-job run
  C   0.92848548638538      0.11518928167135     -0.17228760201218
  C   -0.39284460879014     -0.67019406870435     -0.01841872692068
  Br  2.37447758436783     -1.18874034141526      0.10185471168807
  H   -0.42097178777545     -1.47622959717983     -0.75742457143462
  C   1.05049445632644      0.63861996455987     -1.53021006262596
  N   1.15281895847730      1.01230611360376     -2.64040130258142
  C   1.06047648975536      1.16471603549449      0.83258552397054
  N   1.18945854890739      1.98378304100179      1.66647029221358
  N   -1.60047450497703      0.21326679753686     -0.33387865384928
  O   -1.39942037976412      1.41250816134183     -0.47408986150315
  O   -2.66051716581257     -0.38704359929551     -0.41472300123943
  C   -0.56592753769986     -1.20112407568311      1.32640739247665
  N   -0.71405553940053     -1.61805771293190      2.41511586181788
