13
Coordinates from ORCA-job run
  C   0.87567961901253      0.07273035011075     -0.23869164732112
  C   -0.43896240882415     -0.53207894518113      0.31997937862621
  Br  1.56799164926312     -1.11682606218708     -1.63147122902273
  H   -0.21947855147252     -1.50780146328815      0.75900205594877
  C   0.69878967504375      1.41349490243175     -0.79104579480628
  N   0.61250453987127      2.51020991049507     -1.20758350016048
  C   1.84137618556743      0.11102398314214      0.85860195248445
  N   2.59398625678143      0.11977369071937      1.76268406860258
  N   -1.42461568743510     -0.78491548230751     -0.80390197781492
  O   -1.79554644794656     -1.94345372038768     -0.93734639504738
  O   -1.74976162890332      0.19239664464973     -1.46419061014440
  C   -1.04228542986675      0.36949217633572      1.29205002119883
  N   -1.51867777109112      1.09695401546701      2.08291367745647
