13
Coordinates from ORCA-job run
  C   0.89593216739367      0.28508874387436      0.07617356432517
  C   -0.43366557768691     -0.31733729367106      0.59349449601322
  Br  1.92000885646454      0.80901185119739      1.66789999635215
  H   -0.21155147780547     -1.10695143868498      1.31421602025150
  C   1.64446972412070     -0.74335385272753     -0.64213001612702
  N   2.22170978372869     -1.59750122139727     -1.20841583745766
  C   0.70234223082426      1.47264402598518     -0.74934081132461
  N   0.58215706548568      2.45368730316125     -1.38686597465536
  N   -1.16557442176360     -0.99760539154494     -0.55501794826618
  O   -1.27492534490570     -0.34756807184205     -1.58610268120223
  O   -1.57471375265662     -2.12795573598109     -0.32849402184672
  C   -1.29969628964565      0.70037828345763      1.16971991588266
  N   -2.00549296355360      1.51646279817311      1.63586329805507
