13
Coordinates from ORCA-job run
  C   0.81709578380359      0.22980391783986     -0.16350584381996
  C   -0.56376319000467     -0.33590712999994      0.27286984785774
  Br  0.70804109796354      2.17364100344533     -0.35329486414693
  H   -0.50389349089364     -1.42934922245617      0.26078272260159
  C   1.78501337977797     -0.08738288564011      0.88564285078236
  N   2.55075494225335     -0.36624838571942      1.73414460087571
  C   1.26768864327500     -0.34733168555150     -1.42878823937294
  N   1.68516609234582     -0.81525021174920     -2.42397996211905
  N   -1.61748010673135      0.02605280734887     -0.76239126086883
  O   -1.50770114291319     -0.57537201829525     -1.82387151168305
  O   -2.45058746157403      0.86685324825802     -0.45804165509620
  C   -0.94289883749873      0.15062721104970      1.58923320593764
  N   -1.22743570980366      0.50986335146981      2.67120010905192
