13
Coordinates from ORCA-job run
  C   0.94589033599994     -0.00362324597220     -0.10213554813748
  C   -0.46087951922203     -0.62321824264665      0.05184840330926
  Br  2.21676607120826     -1.37594263657664      0.50481351941974
  H   -0.52081831305698     -1.53385299109189     -0.55136339575158
  C   1.22475799568864      0.27281117877436     -1.50869924485881
  N   1.44806913661318      0.44685395983749     -2.65000005191430
  C   1.11610118249990      1.18057764788487      0.73278055026290
  N   1.27054371449325      2.11099744537179      1.43519730066220
  N   -1.53799373607727      0.30685782549959     -0.50849363891020
  O   -1.19709650178476      1.44091940312029     -0.81793847775956
  O   -2.64787159790079     -0.19483046010636     -0.59138346506599
  C   -0.79147146724320     -0.90546551956681      1.44158683718587
  N   -1.06499730121813     -1.12208436452784      2.56378721155795
