13
Coordinates from ORCA-job run
  C   1.11776610446638     -0.12327619124998     -0.40208363392977
  C   -0.38656434984600     -0.40495624713936     -0.21312225370222
  Cl  1.40964719007904      1.52692903903744     -1.00973019195990
  H   -0.45561902468136     -1.44028596229078      0.14491108645010
  H   1.52494654500289     -0.80411868535513     -1.15334368657734
  C   1.82652715092206     -0.32937147221598      0.85824166381023
  N   2.36639189321845     -0.51901734719613      1.88376325608317
  C   -1.05419338509877     -0.35125903321827     -1.51540177455523
  N   -1.59898674502413     -0.30802444874233     -2.55447102711051
  C   -1.05945525241968      0.52100206806968      0.80106359276777
  H   -0.55672388452915      0.44692842832552      1.76731888096876
  H   -1.02927007068249      1.55617426853475      0.46242921654983
  H   -2.10246617140726      0.22927558344056      0.93042487120509
