14

C	0.0	0.0	0.0
C	-0.35525	0.015955	-1.499139
Cl	1.797302	0.0	0.0
H	0.319784	0.755775	-1.954864
H	-0.315674	-0.934846	0.464566
H	-0.036548	-0.959559	-1.901298
C	-0.547889	1.181739	0.76405
H	-0.268363	2.117487	0.273939
H	-0.171874	1.190203	1.79101
H	-1.640429	1.090136	0.777955
N	-1.73502	0.356689	-1.805508
H	-2.413667	0.209233	-1.021933
H	-2.069994	-0.25148	-2.542568
H	-3.669577	0.0	0.0
