14

C	0.0	0.0	0.0
C	-0.591725	0.092666	-1.389783
Cl	1.794395	0.0	0.0
H	-1.644825	-0.201474	-1.238081
H	-0.27623	-0.976027	0.40539
H	-0.09665	-0.624369	-2.049726
C	-0.524366	1.085996	0.910389
H	-0.214285	2.063021	0.539049
H	-1.620766	0.999672	0.891989
H	-0.154669	0.955177	1.930168
N	-0.492615	1.451251	-1.940321
H	-1.399111	1.887929	-1.80915
H	-0.330794	1.403368	-2.938244
H	-3.467231	0.0	0.0
