14

C	0.0	0.0	0.0
C	-0.52096	-0.078435	-1.427602
Cl	1.800403	0.0	0.0
H	-1.613638	0.009067	-1.334272
H	-0.292381	-0.903488	0.537955
H	-0.132469	0.777373	-1.991173
C	-0.522951	1.228114	0.713035
H	-1.62096	1.140975	0.708512
H	-0.214304	2.135406	0.183243
H	-0.153431	1.282295	1.742001
N	-0.212269	-1.305849	-2.16035
H	0.766094	-1.533969	-2.028554
H	-0.753756	-2.055783	-1.747125
H	-3.433122	0.0	0.0
