16

C	-0.484411	-0.012444	-1.431689
C	0.0	0.0	0.0
Br	0.013705	1.72919	-2.173036
H	1.088548	0.0	0.0
H	-0.35472	0.874872	0.540608
C	0.115618	-1.101519	-2.28614
H	-0.249202	-2.068636	-1.941952
H	-0.154623	-0.966794	-3.331626
H	1.199918	-1.051361	-2.164411
N	-2.008823	-0.022042	-1.483605
O	-2.540661	-0.580357	-2.436325
O	-2.597551	0.565444	-0.582055
N	-0.486905	-1.170708	0.781097
O	-1.225635	-1.990941	0.231005
O	-0.130622	-1.223112	1.950176
Cl	3.274357	0.0	0.0
