16

C	-0.472601	-0.017217	-1.433697
C	0.0	0.0	0.0
Br	-0.009403	1.630835	-2.332229
H	1.088342	0.0	0.0
H	-0.348013	-0.905516	0.500981
C	0.196668	-1.179662	-2.151473
H	1.278678	-1.056919	-2.070407
H	-0.103748	-1.198694	-3.200802
H	-0.09585	-2.115182	-1.668201
N	-1.984985	-0.256415	-1.512383
O	-2.391855	-1.145118	-0.76689
O	-2.661711	0.34741	-2.329993
N	-0.550829	1.125133	0.799045
O	-1.611443	1.627608	0.420256
O	0.053648	1.432044	1.820027
Cl	3.318456	0.0	0.0
