16

C	-0.592127	0.008347	-1.407145
C	0.0	0.0	0.0
Br	0.059176	-1.597094	-2.281318
H	1.089223	0.0	0.0
H	-0.375184	-0.887436	0.509532
C	-2.108389	0.025012	-1.464074
H	-2.493049	-0.859879	-0.956635
H	-2.497359	0.913638	-0.971528
H	-2.44018	0.010771	-2.504054
N	-0.076549	1.239805	-2.163205
O	0.85656	1.140248	-2.941087
O	-0.683026	2.274304	-1.883661
N	-0.503071	1.158628	0.794225
O	-1.582592	1.007604	1.380845
O	0.176912	2.180558	0.815634
Cl	3.331799	0.0	0.0
