16

C	-0.444884	-0.004987	-1.442891
C	0.0	0.0	0.0
Br	0.046065	1.646493	-2.32111
H	1.088348	0.0	0.0
H	-0.348424	-0.912133	0.487571
C	0.237751	-1.165282	-2.152373
H	1.3178	-1.047603	-2.040071
H	-0.032725	-1.173999	-3.209768
H	-0.072058	-2.10369	-1.6851
N	-1.954111	-0.235182	-1.559687
O	-2.599951	0.352648	-2.413644
O	-2.390876	-1.103671	-0.80706
N	-0.562141	1.114229	0.803427
O	-1.591352	1.65418	0.393038
O	0.001187	1.374444	1.860076
Cl	3.317393	0.0	0.0
