13

C	-0.565952	0.045586	-1.39876
C	0.0	0.0	0.0
Br	-0.226832	-1.62664	-2.319687
H	1.088673	0.0	0.0
H	-0.060565	0.829189	-1.956059
H	-1.642466	0.201289	-1.385801
N	-0.575755	-1.145049	0.765318
O	0.191619	-1.947372	1.27923
O	-1.80685	-1.185608	0.804916
N	-0.414445	1.232286	0.752055
O	-0.655382	2.235766	0.083735
O	-0.42188	1.162393	1.975442
Br	3.365617	0.0	0.0
