13

C	-0.375934	0.05161	-1.455437
C	0.0	0.0	0.0
Br	-2.295226	0.141403	-1.790818
H	1.091601	0.0	0.0
H	0.008123	-0.840413	-1.946826
H	0.078814	0.943413	-1.885978
N	-0.418217	-1.259201	0.68182
O	-0.674043	-2.22363	-0.037163
O	-0.377468	-1.262424	1.906685
N	-0.54156	1.188181	0.720771
O	-1.613588	1.074379	1.308366
O	0.093666	2.22805	0.576858
Br	3.342589	0.0	0.0
