13

C	-0.423841	0.006907	-1.441134
C	0.0	0.0	0.0
Br	-2.332626	-0.256976	-1.718566
H	1.091407	0.0	0.0
H	-0.154999	0.959227	-1.890222
H	0.091301	-0.809393	-1.942795
N	-0.489487	-1.240897	0.673069
O	-0.036953	-2.279421	0.202097
O	-1.318992	-1.15447	1.572035
N	-0.426555	1.201343	0.772074
O	-1.020296	2.095572	0.168508
O	-0.087817	1.229848	1.949605
Br	3.313244	0.0	0.0
