15

C	-0.490185	-0.063689	-1.457625
C	0.0	0.0	0.0
Cl	0.472681	1.074936	-2.463721
H	1.091396	0.0	0.0
C	-0.203164	-1.410889	-1.977605
N	-0.039064	-2.490831	-2.411712
N	-1.893941	0.213577	-1.69748
H	-2.068723	1.132252	-1.302902
H	-2.43666	-0.470008	-1.177795
C	-0.428399	-1.158418	0.747117
N	-0.765362	-2.138288	1.307149
N	-0.377785	1.194396	0.704923
O	-0.766376	2.189538	0.056263
O	-0.111596	1.210677	1.921512
H	2.314925	0.0	0.0
