15

C	-0.441063	0.05563	-1.464472
C	0.0	0.0	0.0
Cl	0.426285	1.288149	-2.432554
H	1.09148	0.0	0.0
C	-0.075727	-1.233427	-2.092446
N	0.09826	-2.241789	-2.670421
N	-1.856266	0.334026	-1.560438
H	-2.361448	-0.360068	-1.018453
H	-2.149556	0.273178	-2.529129
C	-0.501436	-1.212181	0.60608
N	-0.869133	-2.231205	1.067957
N	-0.394366	1.158591	0.786848
O	-0.164446	2.269904	0.297583
O	-0.782617	0.9633	1.949891
H	2.375267	0.0	0.0
