15

C	-0.273711	0.035394	-1.511621
C	0.0	0.0	0.0
Cl	0.06264	-1.722772	-2.108497
H	1.098187	0.0	0.0
C	-1.687144	0.243227	-1.850099
N	-2.815393	0.438596	-2.115895
N	0.5619	0.981206	-2.10998
H	1.498156	0.907937	-1.697188
H	0.579454	0.891671	-3.116154
C	-0.587779	-1.126041	0.68596
N	-0.988216	-2.065284	1.270054
N	-0.38751	1.263006	0.669518
O	0.195599	2.282057	0.297983
O	-1.195319	1.209906	1.605568
H	2.479111	0.0	0.0
