15

C	-0.277088	-0.038828	-1.489455
C	0.0	0.0	0.0
Cl	-2.058511	-0.09217	-1.852595
H	1.096735	0.0	0.0
C	0.238358	1.133132	-2.223658
N	0.632319	1.923537	-3.000054
N	0.333946	-1.261719	-1.940118
H	0.338048	-1.285203	-2.954497
H	1.304525	-1.236316	-1.605967
C	-0.474872	-1.180927	0.679958
N	-0.828419	-2.138404	1.263922
N	-0.413128	1.211578	0.694566
O	-0.515094	1.149983	1.922599
O	-0.502572	2.248246	0.028602
H	2.417558	0.0	0.0
