15

C	-0.388757	-0.020654	-1.465195
C	0.0	0.0	0.0
Cl	-2.222111	0.411034	-1.639065
H	1.092082	0.0	0.0
C	0.303236	0.991551	-2.272188
N	0.83848	1.726993	-3.016274
N	-0.103693	-1.293094	-2.00647
H	-0.311304	-1.331184	-2.994973
H	-0.589858	-2.029449	-1.509825
C	-0.479504	-1.168237	0.690278
N	-0.838756	-2.174506	1.184917
N	-0.336699	1.21265	0.700425
O	-0.434739	1.14944	1.934661
O	-0.319562	2.26061	0.03895
H	2.33009	0.0	0.0
