15

C	-0.263061	0.073491	-1.513589
C	0.0	0.0	0.0
Cl	0.07266	-1.66473	-2.15482
H	1.091523	0.0	0.0
C	-1.670033	0.301744	-1.863668
N	-2.793282	0.490306	-2.15278
N	0.583667	1.037656	-2.064262
H	0.599766	1.001955	-3.074939
H	1.519457	0.935078	-1.651303
C	-0.599344	-1.137397	0.657947
N	-1.031297	-2.065184	1.237266
N	-0.413101	1.255871	0.676519
O	-1.34046	1.208209	1.493516
O	0.245283	2.261114	0.410468
H	2.509598	0.0	0.0
