14

C	0.0	0.0	0.0
C	-0.387539	0.199994	-1.506829
Br	1.928226	0.0	0.0
H	0.52932	-0.077752	-2.044507
H	-0.373887	-0.937082	0.399288
N	-0.372601	1.052779	1.014849
O	-0.24761	2.231203	0.699079
O	-0.637193	0.63412	2.132431
N	-0.807608	1.542182	-1.871871
H	-0.187069	2.218917	-1.450496
H	-0.756156	1.615199	-2.880155
C	-1.335652	-0.811001	-2.014395
N	-1.757576	-1.651164	-2.724865
Br	-3.208052	0.0	0.0
