14

C	0.0	0.0	0.0
C	-0.393337	-0.101546	-1.51482
Br	1.947209	0.0	0.0
H	0.531875	-0.44025	-1.999993
H	-0.361786	-0.84347	0.578484
N	-0.368976	1.22664	0.792647
O	-0.593992	1.034978	1.979021
O	-0.280562	2.321631	0.246585
N	-0.875994	1.118385	-2.136137
H	-0.759026	1.025542	-3.137587
H	-0.353618	1.913093	-1.79743
C	-1.294946	-1.242996	-1.779074
N	-1.663504	-2.257921	-2.249196
Br	-3.202414	0.0	0.0
