14

C	0.0	0.0	0.0
C	-0.190705	0.219679	-1.571046
Br	1.928198	0.0	0.0
H	0.535681	-0.493432	-1.969573
H	-0.412997	-0.931918	0.362783
N	-0.403824	1.071889	0.956676
O	-0.434222	2.231308	0.562513
O	-0.510265	0.722703	2.125626
N	0.232337	1.518805	-2.119238
H	1.188863	1.694272	-1.83601
H	-0.343605	2.233878	-1.690487
C	-1.393284	-0.114665	-2.373117
N	-2.211131	-0.261388	-3.196743
Br	-3.060162	0.0	0.0
