17
Coordinates from ORCA-job run
  C   0.71759853819809     -0.45091267389824     -0.11431061872780
  C   -0.57381459486047      0.37244792385489      0.00062001524616
  Cl  0.50655587268062     -2.12085732738400      0.37894220472389
  H   -0.31091849600270      1.39365981761932     -0.28744387396984
  N   1.17988291225805     -0.39468270104813     -1.45302100689497
  H   1.50284512687902      0.54380326199594     -1.66106919367864
  H   1.93588339445363     -1.05209642562694     -1.60212853762840
  N   1.74405808116099      0.22734988528555      0.86816532015379
  O   2.22980695204275      1.25985136901962      0.41575978657762
  O   1.94975844617601     -0.26014131833884      1.96645668176233
  N   -0.97109501649673      0.48957814517569      1.44730309868485
  O   -1.73018580617702     -0.36014860840448      1.90269823869031
  O   -0.49173124805945      1.43951049500210      2.06548714241223
  C   -1.71197788223535     -0.17597693752301     -0.82905300583437
  H   -2.57713495421667      0.48402627683505     -0.74325502435654
  H   -1.40161308067416     -0.22909071444464     -1.87153997757966
  H   -1.99791824512661     -1.16732046811988     -0.48461124958096
