17
Coordinates from ORCA-job run
  C   0.69467123394464     -0.49089166200264     -0.12654491350594
  C   -0.53784953308218      0.40547609017009     -0.00168421301307
  Cl  0.33963556002881     -2.19942851124307      0.04015700601698
  H   -0.23245012412043      1.41665502074525     -0.27490720806111
  N   1.27488434549645     -0.25911926159686     -1.40847899509571
  H   2.01482088476470     -0.92436787908224     -1.59943952892735
  H   1.63526835749423      0.68724560529522     -1.46464564682498
  N   1.71042632259044     -0.07285387862467      0.98239692478510
  O   2.34185851861847     -0.91750560010984      1.58987535802768
  O   1.85189693027290      1.14668968773068      1.05457347902526
  N   -1.01153269762287      0.54086862979450      1.41692478293689
  O   -1.81394359853384      1.44710110793692      1.61484828914403
  O   -0.60521806299879     -0.26121610183843      2.25289443049142
  C   -1.70415151661075     -0.04932093380218     -0.86083715122529
  H   -2.46558556768270      0.73021766847887     -0.87400931437076
  H   -2.14150802003187     -0.96645510711985     -0.46585408509126
  H   -1.35122303252723     -0.23209487473176     -1.87526921431190
