17
Coordinates from ORCA-job run
  C   0.75946267359635     -0.47409730398362     -0.01565737010644
  C   -0.50200653621073      0.40569420908540      0.10539582429851
  Cl  0.39736833138342     -2.12180271537134      0.46744533078554
  H   -0.16231292417957      1.44253455881887      0.03923105585433
  N   1.37716924808422     -0.48509330011723     -1.30431409818436
  H   0.83356327758574     -1.01713280358448     -1.96947916389070
  H   1.53900937835872      0.45886733031107     -1.63374250564467
  N   1.84727219503648      0.12909408806518      0.90544791505485
  O   2.31732729222281     -0.52911857358128      1.81261826842696
  O   2.16251909063950      1.26637155785454      0.57055911371453
  N   -1.05742804350989      0.27693201805616      1.49907061439705
  O   -0.33244864667625      0.69714655885527      2.39833411556261
  O   -2.16069054895841     -0.23921891034310      1.64383059135939
  C   -1.55418554237170      0.09627723788249     -0.93488707754971
  H   -2.43861909626892      0.70777136584677     -0.75813666464592
  H   -1.17180202019161      0.33569975944076     -1.92784101740781
  H   -1.85519812854016     -0.94992507723547     -0.89887493202414
