17
Coordinates from ORCA-job run
  C   0.93169908055874     -0.19507652006069     -0.32146834272197
  C   -0.61186330593713     -0.21926491236868     -0.40686609576670
  Cl  1.56784136799745     -0.52899098543562     -1.94929826849927
  H   -0.91822165252624     -1.16935778339076     -0.84274504305143
  N   1.58158618854413      0.92415127611754      0.23353561248612
  H   1.20821280938810      1.78098472942678     -0.15225407135389
  H   1.54607265944349      0.91540473593087      1.24336087624667
  N   1.24737113870509     -1.41790398064443      0.56962042821549
  O   0.93659988138719     -2.51217826116105      0.12235167463737
  O   1.71208326566984     -1.18995280079781      1.68098366709099
  N   -1.06408151757933      0.81821039438651     -1.38822624106775
  O   -0.75195397430234      1.98646908439693     -1.15464878054512
  O   -1.73792460719455      0.43415802998717     -2.33835757698147
  C   -1.28028621619192      0.04680872002437      0.92791507261063
  H   -1.02972650595627     -0.73608584191207      1.64573125074025
  H   -0.97278918793685      1.01296570310645      1.32803115581905
  H   -2.36461942406941      0.05065841239449      0.80133468214104
