17
Coordinates from ORCA-job run
  C   0.84037232488897     -0.11316987782115     -0.30433105651516
  C   -0.68212229011259     -0.00790355151427     -0.38674062442145
  Cl  1.51119496799457      0.31431417573455     -1.95509133949816
  H   -1.02719032544135     -0.66185477052906     -1.18347489654690
  N   1.40351821980047      0.56614985277608      0.77084646570660
  H   1.12197385891758      1.53794784067655      0.77777770775378
  H   2.40776817864011      0.45415215120753      0.80968179041989
  N   1.22705309926605     -1.59508071084393     -0.15791362261641
  O   2.33749988609201     -1.80939228044657      0.30605228247342
  O   0.42115296684458     -2.43328860563011     -0.54171225834078
  N   -1.05879009777793      1.37552415490970     -0.83377295519668
  O   -1.80832633647968      1.46145899086867     -1.79989273641694
  O   -0.63149133557242      2.32201173597039     -0.17217611969704
  C   -1.38189556471570     -0.29421948154314      0.92952446171771
  H   -2.46142671662798     -0.20353710755607      0.79124448664224
  H   -1.16377884340404     -1.31334827395570      1.24838045979094
  H   -1.05351199231264      0.39823575769652      1.70259795474494
