17
Coordinates from ORCA-job run
  C   0.75995761876128     -0.31666867794764      0.00803561548436
  C   -0.57850545121587      0.41708373333001      0.09205884307220
  Cl  0.57552628784970     -1.98154224326428      0.65725576836390
  H   -0.34936010037531      1.48238415605514      0.02096821033968
  N   1.27499083334514     -0.26828769650507     -1.31263219372042
  H   2.20266643187697     -0.67922517509447     -1.33893771863120
  H   0.68171123606223     -0.78520549038044     -1.94908030684851
  N   1.83602063925810      0.42510502230559      0.84179580889149
  O   1.76770368406559      1.64408349851648      0.81266146181167
  O   2.71250819354235     -0.25029452411115      1.35713420018974
  N   -1.14657440829744      0.23876487048196      1.48019608274140
  O   -0.36848422219367      0.43898454346269      2.40750375769537
  O   -2.33066947890220     -0.06035309792560      1.58930469835196
  C   -1.56928249153866     -0.00677411092932     -0.96911144711578
  H   -2.52405838646328      0.48636985607773     -0.79748028710758
  H   -1.20568592320856      0.30083807568983     -1.95031988808440
  H   -1.73846446256636     -1.08426273976146     -0.95035260543388
