17
Coordinates from ORCA-job run
  C   0.84585695478024     -0.30730458731642     -0.45719423899662
  C   -0.61155905980509      0.21716675933622     -0.43102229049178
  Cl  0.92666903282575     -1.49091139257268     -1.78338979299225
  H   -0.79042974034456      0.62992829979142     -1.42575212683549
  N   1.85607890048172      0.66684612075463     -0.62505267573211
  H   2.06907951076362      1.13621803071703      0.24504203706210
  H   1.62654239938851      1.32548187450580     -1.35654750870341
  N   1.13673174058610     -1.04505476163152      0.86426077086481
  O   1.81444540780293     -0.43994131911399      1.68694365393826
  O   0.62852703785151     -2.14662843778551      1.00697474465930
  N   -0.62094390535463      1.41349637579640      0.47576406081771
  O   -0.56624863745645      2.52000805063692     -0.05892879081270
  O   -0.64486809979024      1.19664865951432      1.68549881312090
  C   -1.70853467961818     -0.74502487733709     -0.02664886077354
  H   -1.59948384843774     -1.05433202638050      1.01029901884278
  H   -1.68581647595494     -1.62792957898315     -0.66371753629919
  H   -2.67504653771855     -0.25066718993187     -0.14652927766876
