17
Coordinates from ORCA-job run
  C   0.80399473655574     -0.22565170239790     -0.46765541584986
  C   -0.64581829598963      0.27586182124673     -0.41343366131608
  Cl  0.91739515642476     -1.38238572854764     -1.81075149728813
  H   -0.81550704248508      0.73060956003421     -1.39091724452065
  N   1.69221114168347      0.84394718831427     -0.70547117776107
  H   1.79185424435842      1.40144892875937      0.13510799289601
  H   2.60622297923585      0.49888026515877     -0.96997151076818
  N   1.19243343622560     -1.05231354755924      0.80185212411914
  O   0.45921576068245     -1.98098519923544      1.10997702631404
  O   2.22102446610810     -0.71436985138413      1.37054454521881
  N   -0.73622192941004      1.41820354315332      0.55575088763517
  O   -1.55832853626488      2.29016572475420      0.30305720135002
  O   -0.02073478975349      1.36479541108848      1.55734880275712
  C   -1.76652420821689     -0.69372713493134     -0.07503165888731
  H   -1.72360202097643     -1.00058009444398      0.96788931053054
  H   -2.71641137666443     -0.19210366718272     -0.26816671683985
  H   -1.70220372151353     -1.58279551682696     -0.70012900758970
