17
Coordinates from ORCA-job run
  C   0.76393625521502     -0.46034511157041      0.07809438256086
  C   -0.51508821741350      0.40146500909879      0.03859967303714
  Cl  0.38146325189658     -2.09016753713991      0.60330072177156
  H   -0.18491053032409      1.44000396752031     -0.04595237082057
  N   1.49997817684346     -0.51917711282001     -1.14533672444765
  H   1.67594742532778      0.41068099247798     -1.50584705878131
  H   1.03261845948109     -1.09603183132298     -1.83062712409848
  N   1.75171948744063      0.20524210192728      1.06708655799212
  O   2.08137730304943      1.33093022796890      0.70815594926493
  O   2.14314196957113     -0.40132657198844      2.04482712033637
  N   -1.19705462102447      0.32841603103385      1.37911275717152
  O   -0.56652966241687      0.80543304881922      2.32033587895570
  O   -2.30072656115802     -0.20270770761014      1.44596175339409
  C   -1.46066117931315      0.02371835797419     -1.07866463888177
  H   -1.75035761419783     -1.02451327697486     -1.01854573400849
  H   -2.36560121102506      0.62755842885797     -1.01631676343494
  H   -0.98925273195215      0.22082098374829     -2.04218438001107
