17
Coordinates from ORCA-job run
  C   0.82799764661368     -0.21516789846962     -0.34820182899345
  C   -0.63330194631180      0.24604253283828     -0.39367721585176
  Cl  1.03198294741758     -1.46717808706290     -1.66044209331400
  H   -0.76418830119562      0.71142969414078     -1.37365265866670
  N   1.67229318069267      0.89301172971621     -0.45582123779537
  H   1.55639579133854      1.37699497322536     -1.33581311436594
  H   2.64186257932392      0.66835326949698     -0.27893003550018
  N   1.19297415948758     -0.96657071311706      0.94161214094130
  O   0.45085651000859     -1.87841400069844      1.26894641861085
  O   2.21939019695654     -0.61960642735555      1.50974049364844
  N   -0.75330796758120      1.37786450663863      0.58658871116916
  O   -1.06460214341421      2.47777093063455      0.14035566056657
  O   -0.54270677217603      1.10069885891123      1.76306419912970
  C   -1.74821756576713     -0.74855632532747     -0.13242061963285
  H   -1.64343012997675     -1.61785354903354     -0.77987818952285
  H   -2.69960224271327     -0.25920908610517     -0.35337301457171
  H   -1.74339594270311     -1.07761040843227      0.90290238414879
