17
Coordinates from ORCA-job run
  C   0.86600281669328     -0.06844329201474     -0.23818610513561
  C   -0.64169151018061      0.07387629362713     -0.44524142868180
  Cl  1.69315835239299      0.64516562668646     -1.70918932831017
  H   -0.90600162286968     -0.41610492924366     -1.37882278319462
  N   1.31991304927934      0.39328600083960      0.99289280661841
  H   2.31590984658482      0.26107169950976      1.10714268064362
  H   1.03588030764436      1.35124546259725      1.15215294638907
  N   1.24013797026283     -1.55787600780333     -0.33120298976841
  O   2.29842692238532     -1.87241155815015      0.19336495686361
  O   0.47939446345542     -2.29689469036968     -0.94312999295588
  N   -0.97583286130949      1.52207070551509     -0.66258309548101
  O   -0.62223951441555      2.32193814116580      0.20423663485744
  O   -1.62151363829181      1.79816658707072     -1.66719925025103
  C   -1.46482104823507     -0.43923441342412      0.72227679606118
  H   -1.27639390838416     -1.50300540006444      0.86645417022819
  H   -1.21413264785452      0.09357996969803      1.63780011799164
  H   -2.52619697715743     -0.30743019563971      0.50123386412537
