17
Coordinates from ORCA-job run
  C   0.85165750778959     -0.29413791933654     -0.46620801192564
  C   -0.60893157413554      0.23861930883966     -0.41069578192350
  Cl  0.92429077503050     -1.43576251574447     -1.81229045939141
  H   -0.80232850964233      0.66741045429557     -1.39602888609172
  N   1.91724857213785      0.63409103862648     -0.60264157389132
  H   1.92869420821347      1.28858401866895      0.16907429100679
  H   1.83725666197344      1.13873612589360     -1.47574991959901
  N   1.09123460917066     -1.03097955592598      0.86003866198448
  O   1.38770582682519     -0.28168618855334      1.78654319436807
  O   0.91099976838310     -2.23624970715646      0.92069112653268
  N   -0.65946002386158      1.42567720843591      0.51771909227759
  O   -0.21976164066499      2.48229954510717      0.06313374401040
  O   -1.11488974752960      1.26593497446226      1.64618734606946
  C   -1.65879077345321     -0.77926719923103     -0.02037433283146
  H   -1.50737562398192     -1.13434093176186      0.99738225384168
  H   -2.64722280774978     -0.32039249785876     -0.07296461404300
  H   -1.62932722850485     -1.62753615876115     -0.70281613039408
