17
Coordinates from ORCA-job run
  C   0.81068807588408     -0.27200179485418     -0.06391671609825
  C   -0.57172069808788      0.36542513734976      0.12025732255952
  Cl  0.82171082651533     -2.05731970986008      0.19686472310246
  H   -0.40128812335917      1.44260610782573      0.10102272958186
  N   1.32342881542649      0.12349185154727     -1.32086565214416
  H   0.88465597509775     -0.40124871059572     -2.06611983346006
  H   2.32470046313189     -0.03659913912873     -1.34333816486080
  N   1.78604675781333      0.26876622517007      0.99132065549452
  O   1.30755306631726      0.56801024653016      2.07625807571997
  O   2.96668145537484      0.31899815655645      0.67325338754899
  N   -1.23926235661891      0.11744691684179      1.44459918320892
  O   -1.51201128257133     -1.04146105871766      1.73632288778745
  O   -1.54261122704869      1.11680621472549      2.08859313166968
  C   -1.55092066845050     -0.05832176248809     -0.96238507446919
  H   -1.22310122777064      0.30399107712282     -1.93669147503004
  H   -1.65992086022962     -1.14293401327513     -0.97910439543486
  H   -2.52662899142422      0.38534425525005     -0.75607078517601
