17
Coordinates from ORCA-job run
  C   0.78616092530501     -0.42818709569443      0.02611305689517
  C   -0.53237033083490      0.37141753810820      0.08044601783422
  Cl  0.49050886243172     -2.11188027075953      0.42260807953195
  H   -0.25218409559695      1.42795237328599      0.07593293925255
  N   1.49780435351396     -0.35265433910856     -1.21081036007277
  H   1.03879662425143     -0.88831581126585     -1.93425098081099
  H   1.62642703571581      0.61135801357306     -1.49351264635024
  N   1.76276529007022      0.20109824754734      1.04857373392961
  O   2.20041198626150     -0.46278476231360      1.96790357546212
  O   2.03422459006884      1.36628600039150      0.77731276879889
  N   -1.18080497512586      0.15636349919571      1.42217209604789
  O   -0.55407048951930      0.58698289038745      2.38797835218203
  O   -2.25570095578636     -0.43317130190423      1.46448265179916
  C   -1.48309321168843      0.04153037327051     -1.04746602907635
  H   -1.04277691577473      0.34179469967219     -1.99903323127031
  H   -1.72072314134961     -1.02117735341953     -1.07112807899993
  H   -2.41437555194233      0.59238729903378     -0.91832194515299
