17
Coordinates from ORCA-job run
  C   0.83873039633666     -0.23639609150424     -0.39840580768767
  C   -0.61632188743947      0.26441548112697     -0.41126141605986
  Cl  1.00421824559459     -1.38305868192805     -1.79156146698591
  H   -0.79995684756317      0.65219835011153     -1.41472653555965
  N   1.75136042801807      0.80996330335038     -0.39357671694652
  H   2.70717373154310      0.52359962963059     -0.54777046089779
  H   1.48629499855742      1.59740319615174     -0.96701161032379
  N   1.05182188638419     -1.08672605992350      0.89482019767973
  O   0.76326042961210     -2.27331189336621      0.84951316566559
  O   1.42877946969229     -0.45934810065502      1.87524095097626
  N   -0.70765513277225      1.48152660022305      0.47580643689914
  O   -0.99215428342319      1.31439597849980      1.65608598283480
  O   -0.48375678242765      2.56151902452746     -0.06994951822524
  C   -1.65918490197564     -0.75608626121739     -0.01148757026441
  H   -2.65219081707580     -0.32407426241030     -0.14695656110664
  H   -1.57357929525696     -1.64507862467364     -0.63489339528002
  H   -1.54883963780430     -1.03994158794317      1.03313432528198
