17
Coordinates from ORCA-job run
  C   0.83185433090778     -0.22333661138081     -0.33260094876982
  C   -0.62340063643025      0.25324275592653     -0.40483566631780
  Cl  1.04668669602733     -1.47541191897703     -1.64428042270012
  H   -0.73097598432791      0.72105430544059     -1.38648635326465
  N   1.68985301426487      0.87523158496492     -0.42152314639419
  H   1.59214598532456      1.36767803613089     -1.29894815186633
  H   2.65411514794760      0.63985360383797     -0.23054983684440
  N   1.16537718342285     -0.98253275347841      0.96134130850105
  O   0.40553928084640     -1.88456829403241      1.27487466262190
  O   2.18844955700437     -0.65208262823728      1.54518507037322
  N   -0.74898354649706      1.38506524884429      0.57484638617070
  O   -0.56860462965085      1.10266256667986      1.75510356528544
  O   -1.03411542683572      2.49025623017541      0.12410645008315
  C   -1.75362943236683     -0.72957500559507     -0.16619870122602
  H   -1.64619938166739     -1.59861588646087     -0.81357913149797
  H   -2.69530104152219     -0.22930942951473     -0.40374150260478
  H   -1.77181111644754     -1.06061180432385      0.86828641845062
