17
Coordinates from ORCA-job run
  C   0.78237602236387     -0.23774012529657     -0.46871290914917
  C   -0.67303008760505      0.26456317445617     -0.32475579738778
  Cl  0.85625847591104     -1.75589399545319     -1.39636339582428
  H   -0.81417810923980      0.95273302204893     -1.16423840383001
  N   1.60836388752267      0.70824565929535     -1.09656825198470
  H   2.56008220274034      0.36822500467324     -1.16076373087215
  H   1.58607476906843      1.57390208282569     -0.57028491036581
  N   1.31198508282038     -0.66177181794460      0.94372448164265
  O   2.51266994160994     -0.52444740749228      1.12768129329522
  O   0.49666825631246     -1.12335679162577      1.73270519137441
  N   -0.73912396301012      1.16845751464250      0.89466838160482
  O   0.21808324697588      1.92569900333550      1.06048421409113
  O   -1.73525585507780      1.12825734522671      1.60096854990164
  C   -1.78272541635757     -0.76334759401477     -0.29516921629606
  H   -1.62444096188320     -1.48869707336224      0.49951785262029
  H   -2.73233326315356     -0.25758658131001     -0.12868584477964
  H   -1.83047422899791     -1.27624142000465     -1.25420750404055
