17
Coordinates from ORCA-job run
  C   0.71488723086982     -0.45513814568605     -0.11535625687965
  C   -0.56745024512009      0.38213195387787      0.00292432366680
  Cl  0.45726959054037     -2.15099314552783      0.25037173230945
  H   -0.27675667302767      1.41577606011378     -0.20199518015583
  N   1.23487557016165     -0.31494501829430     -1.42636860150846
  H   1.57805565395442      0.63034833690474     -1.55636628514425
  H   1.98814925927535     -0.97234883220025     -1.58870343154574
  N   1.70826688646608      0.13466019175188      0.95403130994591
  O   1.86043666814803     -0.43232997204695      2.02251466559401
  O   2.22762306481978      1.18773431183712      0.59627337754630
  N   -1.02435648817600      0.40560035592458      1.43622078263648
  O   -0.55812706465007      1.30148784844373      2.13933312790088
  O   -1.81376350652799     -0.46097223261032      1.79908114815879
  C   -1.67736650050076     -0.08644787410005     -0.90987294753262
  H   -2.53501884346225      0.58194842394984     -0.81410644974388
  H   -1.99314067372439     -1.09390342827389     -0.64825089376828
  H   -1.32358392904627     -0.07260883406390     -1.93973042147990
