17
Coordinates from ORCA-job run
  C   0.72819419353296     -0.41448110315856     -0.17093401734443
  C   -0.58190380415716      0.35647853757970      0.04879121419230
  Cl  0.55032514127327     -2.14253778833881      0.06989416270521
  H   -0.33918101414359      1.41417182799430     -0.08257776702687
  N   1.20073617224650     -0.15279131641686     -1.48127188342588
  H   1.50245769289553      0.81307696699995     -1.54684976602537
  H   1.97333681158732     -0.76439628974575     -1.71572200106910
  N   1.73132249962814      0.13356335133424      0.91246652168220
  O   1.94084639095321     -0.50673266390782      1.92847586210729
  O   2.19600402789181      1.23210716946101      0.62277887817828
  N   -0.99411377492611      0.25065727227282      1.49198930955358
  O   -1.73757835529899     -0.67284933389553      1.80831385909436
  O   -0.54202649002400      1.10920959990197      2.24886957058894
  C   -1.70044635506070     -0.08704445646045     -0.86603514379532
  H   -2.58080933557236      0.53501814656818     -0.69427744038231
  H   -1.38004719845192      0.02061838408955     -1.90125123706241
  H   -1.96711660237392     -1.12406830427793     -0.67466012197046
