17
Coordinates from ORCA-job run
  C   0.97089066530998     -0.08367471686757     -0.24164066139919
  C   -0.53982012532684      0.04762825267190     -0.54379262754719
  Cl  1.85643759141846      0.35462231757806     -1.72306906798827
  H   -0.76842589780065     -0.55463470881169     -1.42214798397687
  N   1.51844852678546      0.58519929493489      0.86921840166514
  H   1.19690968845227      1.54299923887340      0.90542959535357
  H   1.34213809193360      0.08917660101790      1.73157997841613
  N   1.14938408680005     -1.60222565865943     -0.01885761324473
  O   1.43931351185945     -1.96773716893021      1.11489410643243
  O   0.91259080909048     -2.32426825500028     -0.97625392712176
  N   -0.83708511134064      1.45699338909977     -0.95350532726664
  O   -1.35338620282320      1.62323659595121     -2.05349700836273
  O   -0.56991899843911      2.34589892797628     -0.14402435272920
  C   -1.41046140856180     -0.31008181584004      0.64503677418202
  H   -1.27327817161097     -1.35752249508075      0.91916093116116
  H   -1.17214597898426      0.31983117842489      1.50204937257779
  H   -2.46159107676227     -0.16644097733832      0.38741940984832
