17
Coordinates from ORCA-job run
  C   0.84541566941814     -0.22747290527481     -0.36886705785993
  C   -0.61367087495082      0.25406793633450     -0.42506770183384
  Cl  1.05842399867496     -1.40288484193309     -1.73533448523866
  H   -0.76814988918176      0.65620117839163     -1.42816790397799
  N   1.73268681861622      0.84134243138247     -0.37065271452619
  H   2.70322905819393      0.57128945955326     -0.44034152543965
  H   1.49127693720595      1.57469501084046     -1.02153698414356
  N   1.06933323091149     -1.05032705614485      0.93593539632452
  O   1.59184243618062     -0.45233801261606      1.86640519577248
  O   0.66066140251873     -2.20221055405989      0.94158044417380
  N   -0.73017938638517      1.45179595174103      0.48203153328274
  O   -0.58820343866682      2.55210693154874     -0.04831597401330
  O   -0.94574097321136      1.24245847304360      1.67081037070585
  C   -1.67438125710905     -0.76734564374019     -0.07581730792796
  H   -1.57445622961616     -1.64640804212620     -0.71069462132262
  H   -2.65821227238697     -0.32345071361308     -0.23986266856644
  H   -1.60087523021195     -1.07051960332754      0.96589600459074
