17
Coordinates from ORCA-job run
  C   0.80448842870662     -0.23352705775684     -0.46293220542524
  C   -0.64183045956870      0.27922878720278     -0.41696651155037
  Cl  0.91472085836970     -1.39609383470426     -1.80076751470200
  H   -0.80274375490413      0.73125871677897     -1.39720441461500
  N   1.70217284530698      0.82833912431712     -0.70026866324214
  H   1.80688911277473      1.38457151965908      0.14042784180095
  H   2.61283184606706      0.47552669091672     -0.96592334377016
  N   1.18051523809398     -1.05848100285321      0.81200536424637
  O   2.20692289220190     -0.72409477040615      1.38664524201817
  O   0.43945413842476     -1.98135070547606      1.11895968295843
  N   -0.72791423761363      1.42644832701860      0.54683441246094
  O   -0.01709043564483      1.37287369728016      1.55169721205641
  O   -1.54252739136852      2.30324159310652      0.28669138580558
  C   -1.77160074409605     -0.68005427293152     -0.08043580578543
  H   -1.71242178738929     -1.57059509166988     -0.70398168854687
  H   -2.71660342967399     -0.17094844132269     -0.27796478025664
  H   -1.73526311968660     -0.98534327915933      0.96318378654701
