17
Coordinates from ORCA-job run
  C   0.78389055722508     -0.42805533870489      0.06208252952877
  C   -0.52896865677304      0.38195953482201      0.04639530489395
  Cl  0.48419204427331     -2.05697426801600      0.64167472138525
  H   -0.24328097467422      1.42992411790573     -0.07601052216988
  N   1.47919137139857     -0.49106401893643     -1.18472957811198
  H   1.01075769553552     -1.10237993150799     -1.83875603914334
  H   1.60675179846539      0.43523715638232     -1.57375114132183
  N   1.77814041750464      0.30054866986199      0.99832260054223
  O   2.22617313620266     -0.26416201469541      1.97692479921036
  O   2.05097192085289      1.42842641803418      0.60035591656198
  N   -1.16062328787782      0.31822395721567      1.41192137645621
  O   -0.51714680006872      0.84372300527972      2.31783627808533
  O   -2.24000889112498     -0.25226087253844      1.53102097763144
  C   -1.49704951672068     -0.06151170752473     -1.02650204136988
  H   -1.06785524306763      0.12864162249403     -2.01094635233349
  H   -1.74253171027502     -1.11832350755170     -0.93015585975156
  H   -2.42260386087596      0.50804717747994     -0.94668297009356
