17
Coordinates from ORCA-job run
  C   0.86346351367490     -0.05176924769328     -0.43095188993211
  C   -0.65845758527809      0.14000539205707     -0.45342904421546
  Cl  1.58246783792639      0.22649114845817     -2.02909967509291
  H   -1.03766382760979     -0.31666513576614     -1.36595692992149
  N   1.50627619503863      0.74273276740361      0.51634625525959
  H   1.07190863218465      0.70333197103317      1.42752191681668
  H   2.49427404531519      0.53912995123558      0.58218935551542
  N   1.04636817500305     -1.59711773819409     -0.18620758539315
  O   1.73171411630705     -1.91386254586671      0.77861270054922
  O   0.46691273765259     -2.35260150420220     -0.95406445024190
  N   -0.93206592997298      1.61118398623963     -0.58822240562022
  O   -1.07729434998945      2.04358026477830     -1.72824159017987
  O   -0.98903349070837      2.26690262348522      0.44866523155360
  C   -1.36918424685834     -0.40741622279592      0.77190907708832
  H   -1.28666396615842     -1.49410036124636      0.79876596643615
  H   -0.98425904900773      0.01255937664278      1.70035714110690
  H   -2.42876280751928     -0.15338472556883      0.71280592627123
