17
Coordinates from ORCA-job run
  C   0.88653999091094      0.01130815478504     -0.15941752884305
  C   -0.59465950769159      0.26722468510083     -0.43593764204457
  Cl  1.84553306335214      1.24183947618692     -1.12134775526509
  H   -0.75668187505787      0.20898507671289     -1.50918626828834
  N   1.20868804801912     -0.08368674969001      1.19028241031110
  H   0.89744582574554      0.73365748333096      1.69900422842958
  H   2.18999763429970     -0.27967725396311      1.33584393719327
  N   1.29070633504863     -1.31886953492242     -0.81782748649239
  O   2.29778746599510     -1.84728143028593     -0.36977900125013
  O   0.60489984315969     -1.72380519861112     -1.74784642565953
  N   -0.92823528440922      1.68576546795615     -0.07261142996844
  O   -0.66698910060167      2.05488231382995      1.07261764086086
  O   -1.48445061360629      2.36192417179196     -0.93040467360781
  C   -1.52312219056417     -0.65565240271422      0.33252784213030
  H   -1.33366455967272     -1.69027624569760      0.04699232063105
  H   -2.55868554852557     -0.41633342745817      0.08140812045158
  H   -1.37410952640177     -0.55000458635212      1.40568171141161
