17
Coordinates from ORCA-job run
  C   0.86673843917199     -0.14501032831134     -0.19743931056641
  C   -0.62339263853014      0.05400698452534     -0.47310067690461
  Cl  1.77492194299273      0.33424892951346     -1.71526988041480
  H   -0.88997173565257     -0.53225851768338     -1.34873225756854
  N   1.31314421124654      0.43906357541317      0.98316730636842
  H   2.29533199858773      0.26441355904269      1.14850517016065
  H   1.08434538484171      1.42411266344347      1.01426500474717
  N   1.15439287245650     -1.65299091285267     -0.09568020147227
  O   2.17769622421654     -1.95810856174120      0.49925767160817
  O   0.36808819201177     -2.41890468668613     -0.63817217589169
  N   -0.86568105670036      1.48020866678736     -0.87648997195493
  O   -1.47327214037227      1.66454041775281     -1.92499793897497
  O   -0.48357458295891      2.36106006768775     -0.10567154821731
  C   -1.50811778115996     -0.26462718723567      0.71850918190682
  H   -1.38738219396268     -1.31116181781090      0.99790808644411
  H   -1.25216011596217      0.36289768696526      1.57036777129323
  H   -2.55310702022645     -0.10249053881000      0.44557376943698
