17
Coordinates from ORCA-job run
  C   0.79116974560916     -0.32697339184268     -0.05152002716464
  C   -0.54595507199177      0.40833136842248      0.09778549512916
  Cl  0.69434742688435     -2.08560648024654      0.33806650264699
  H   -0.30940497010990      1.46827668980904     -0.00329194777284
  N   1.31085015421744     -0.05622039882034     -1.33870903543321
  H   2.29924883908057     -0.28299633067803     -1.35861309434205
  H   0.82921247380447     -0.60425579020855     -2.03946767862811
  N   1.81329943101487      0.22642104841431      0.95192315817985
  O   1.36962966552478      0.64207057079468      2.01301164867518
  O   2.99049584432843      0.17073371574459      0.62245100685974
  N   -1.20823574792000      0.30164440090895      1.44368743203893
  O   -1.44294991550020      1.36338839270395      2.01202225885129
  O   -1.54464495298673     -0.81327680403807      1.82604861114838
  C   -1.56572626750786     -0.03144039685952     -0.94011942896667
  H   -1.74449153076032     -1.10475419854621     -0.87281506018864
  H   -1.22937351653602      0.23379563028653     -1.94238887957461
  H   -2.50747160715127      0.48986197415542     -0.75907096145873
