17
Coordinates from ORCA-job run
  C   0.88744917973221     -0.14924584939586     -0.03961370558893
  C   -0.59296646739849     -0.39066958190168     -0.33275917739278
  Cl  1.84740526787693     -0.89162545299316     -1.41277803523452
  H   -0.74782493113571     -1.46022752987280     -0.44939260573278
  N   1.20139276383472      1.16927899716356      0.27303418865944
  H   2.18252887824265      1.28728568966993      0.48768163385022
  H   0.88479959507038      1.80183252817385     -0.45042867956692
  N   1.30112799279403     -1.01267519262395      1.16484110629867
  O   0.62284984050096     -2.00099773793836      1.41461703513279
  O   2.30707918781409     -0.64908021142142      1.75653072759169
  N   -0.93452762204250      0.19599080527948     -1.67251806727705
  O   -1.48927658158979     -0.54413534912230     -2.47689736698317
  O   -0.68162768169472      1.38762991881231     -1.85190980277916
  C   -1.52268691973012      0.21125103233480      0.70529004891194
  H   -1.37925050091898      1.28800556659622      0.77636876269783
  H   -2.55763370226556     -0.00290721960265      0.43007287195410
  H   -1.32883829909011     -0.23871041315797      1.67886106545863
