17
Coordinates from ORCA-job run
  C   0.80747559294195     -0.28738547308157     -0.03426477840081
  C   -0.56671385899079      0.38312607595188      0.07906671469861
  Cl  0.79873038925218     -2.03202905506009      0.42470869542147
  H   -0.38484075197358      1.44917328817562     -0.06272449401945
  N   1.32145204897768     -0.04174284283419     -1.32879018675508
  H   0.87253123815903     -0.64099873211248     -2.00906705567441
  H   2.32002043785317     -0.21946726187076     -1.33506399919373
  N   1.79237922793138      0.35761161499098      0.95100524793542
  O   2.97328641852543      0.34990613032803      0.62994334308016
  O   1.32033619836269      0.79170365856135      1.99240421047329
  N   -1.23210407785795      0.29560844244602      1.42475747842683
  O   -1.52508799373755      1.36554382150717      1.94920574177621
  O   -1.51383276766150     -0.81914246388145      1.84966404903039
  C   -1.55532678117588     -0.14899731439655     -0.94566628560369
  H   -2.52380474763780      0.32985318011222     -0.79017994355664
  H   -1.67948661781592     -1.22663484552016     -0.83708773602264
  H   -1.22601395515252      0.09387177668400     -1.95591100161594
