17
Coordinates from ORCA-job run
  C   0.82970960447544     -0.22238019664131     -0.33768581701528
  C   -0.62665027436730      0.25240544581157     -0.40091777484465
  Cl  1.03803770183064     -1.47264511030201     -1.65217408731468
  H   -0.74122507356136      0.72055870298429     -1.38156502966957
  N   1.68567161433659      0.87762419039481     -0.43074335347636
  H   2.65163665540083      0.64200720377987     -0.24871855770539
  H   1.58006672866074      1.37133141956584     -1.30657197613619
  N   1.17259000076788     -0.98239767243975      0.95291511588927
  O   0.41478953682017     -1.88426864652026      1.27188694482763
  O   2.20077002950963     -0.65340833596767      1.52860802026345
  N   -0.74632745335633      1.38484072956817      0.57932511666477
  O   -1.02816924655328      2.49105511963186      0.12912696157616
  O   -0.56224226812807      1.10199158143575      1.75887917293762
  C   -1.75419759328211     -0.73143110430244     -0.15443551246991
  H   -1.64888435973120     -1.60185910537443     -0.80032004217457
  H   -1.76663929498252     -1.06003552472399      0.88086861595726
  H   -2.69793630783975     -0.23338869690031     -0.38847779730957
