17
Coordinates from ORCA-job run
  C   0.84647502142639     -0.31448832168930     -0.46236777285729
  C   -0.60325638821462      0.24469343291612     -0.41779120595962
  Cl  0.90310836909585     -1.46750968961009     -1.80167685935053
  H   -0.78008762550189      0.67891587434158     -1.40376052773602
  N   1.91887328908232      0.60299154197591     -0.60496215845775
  H   1.98141185418941      1.21851327108286      0.19560648253770
  H   1.81433946068219      1.14591613825147     -1.45199989748581
  N   1.07679587217025     -1.05190449103792      0.86687435979619
  O   0.78232627766845     -2.23411076090639      0.94432114699360
  O   1.48139877416403     -0.33325213081753      1.77601087135643
  N   -0.62102462578282      1.43152796009381      0.51069355785780
  O   -0.99575692507826      1.25803668962064      1.66719230976595
  O   -0.23206164362296      2.49762214196150      0.03297345319924
  C   -1.68568571067985     -0.73989465712990     -0.03147530020175
  H   -2.65962466831639     -0.25283802405471     -0.10383558940739
  H   -1.67074258628812     -1.59528989922756     -0.70544514565411
  H   -1.55648874499398     -1.08992907577047      0.99064227560335
