15

C	0.027673	0.05833	0.025698
C	-0.456454	0.452287	-1.393305
F	1.348235	-0.455026	-0.129086
H	-0.595882	-0.509112	-1.903153
C	0.20631	1.277313	0.855113
N	0.283705	2.235478	1.531551
N	-0.829146	-0.879763	0.586162
H	-1.756528	-1.017756	0.07817
H	-0.954318	-0.788238	1.583442
C	0.602639	1.196304	-2.094976
N	1.426081	1.814405	-2.65943
N	-1.711688	1.16149	-1.453479
H	-1.718603	1.918003	-0.777636
H	-2.442321	0.465902	-1.206535
H	-3.072241	-1.064352	-0.716901
