13

C	-0.48728	-0.007059	-1.408419
C	0.0	0.0	0.0
Br	0.502992	1.450756	-2.436202
H	1.091166	0.0	0.0
H	-0.298215	0.94604	0.46394
N	-0.148476	-1.312624	-2.096689
O	-0.704836	-1.528816	-3.172285
O	0.709942	-2.007066	-1.556589
C	-1.897064	0.264324	-1.606074
N	-3.046128	0.506823	-1.696181
C	-0.523616	-1.106742	0.772761
N	-0.919669	-1.983745	1.449854
H	2.505273	0.0	0.0
