13

C	-0.405272	0.007719	-1.441235
C	0.0	0.0	0.0
Br	-2.343427	0.328238	-1.792688
H	1.093682	0.0	0.0
H	-0.290131	-0.955791	0.444651
N	0.30868	1.14376	-2.190913
O	0.739283	0.88506	-3.307309
O	0.36325	2.213774	-1.608776
C	-0.072993	-1.25788	-2.080979
N	0.118547	-2.316339	-2.555912
C	-0.530486	1.082504	0.799738
N	-0.935386	1.922878	1.515157
H	2.557652	0.0	0.0
