13

C	-0.473762	0.0641	-1.391027
C	0.0	0.0	0.0
Br	-2.478607	0.534449	-1.648621
H	1.095481	0.0	0.0
H	-0.260119	0.919922	0.526717
N	0.248599	1.226142	-2.075671
O	0.289351	2.273804	-1.449236
O	0.742765	1.007879	-3.176693
C	-0.265685	-1.15816	-2.143693
N	-0.09668	-2.166364	-2.729588
C	-0.497813	-1.159574	0.70222
N	-0.857124	-2.108469	1.297114
H	2.449372	0.0	0.0
