18

C	0.0	0.0	0.0
C	-0.513638	0.005679	-1.436837
Br	1.98239	0.0	0.0
H	-0.127209	-0.883781	-1.949815
H	-1.602455	-0.097393	-1.278115
C	-0.499323	1.212721	0.764936
H	-1.595735	1.128827	0.675178
H	-0.129407	2.149862	0.342549
H	-0.192032	1.160442	1.813922
C	-0.488941	-1.2631	0.687825
H	-0.131173	-1.316875	1.720568
H	-0.159667	-2.158898	0.15227
H	-1.585611	-1.160647	0.650744
C	-0.212468	1.257153	-2.252127
H	0.852979	1.507425	-2.245678
H	-0.773622	2.113093	-1.871413
H	-0.5174	1.108591	-3.293156
F	-3.035442	0.0	0.0
