18

C	0.0	0.0	0.0
C	-0.500246	-0.000365	-1.441534
Br	1.982388	0.0	0.0
H	-0.090515	0.880346	-1.951683
H	-1.588645	0.118471	-1.296575
C	-0.482921	1.261824	0.692461
H	-0.151599	2.157067	0.157064
H	-0.11711	1.31193	1.722712
H	-1.579962	1.162244	0.660161
C	-0.491642	-1.217859	0.76041
H	-0.182218	-1.16542	1.808826
H	-1.588494	-1.141863	0.671311
H	-0.111472	-2.149918	0.335609
C	-0.206398	-1.260266	-2.246597
H	-0.78946	-2.10358	-1.871095
H	-0.488343	-1.11255	-3.294087
H	0.854211	-1.528925	-2.218374
F	-3.020975	0.0	0.0
