16

C	-0.451445	0.117971	-1.466181
C	0.0	0.0	0.0
Cl	-2.192632	0.396888	-1.5576
H	1.093084	0.0	0.0
N	0.258192	1.157321	-2.149228
H	-0.045059	2.06002	-1.806057
H	1.25343	1.040204	-1.948612
N	-0.09429	-1.165628	-2.251324
O	-0.959554	-1.7328	-2.898492
O	1.092703	-1.443819	-2.194265
N	-0.48293	-1.216269	0.726278
O	-0.607456	-1.127753	1.942853
O	-0.65964	-2.229439	0.055033
C	-0.425212	1.193349	0.719267
N	-0.770258	2.18106	1.25293
Br	3.297638	0.0	0.0
