16

C	-0.605529	-0.099609	-1.408698
C	0.0	0.0	0.0
Cl	0.260208	-1.234242	-2.44594
H	1.09098	0.0	0.0
N	-1.972352	-0.439176	-1.349695
H	-2.376205	-0.424928	-2.280047
H	-2.474789	0.207705	-0.74685
N	-0.377472	1.282355	-2.107741
O	-1.213707	1.581367	-2.955654
O	0.610333	1.926761	-1.792631
N	-0.429209	-1.236259	0.75894
O	-1.271319	-1.104429	1.648166
O	0.101195	-2.280871	0.413574
C	-0.539283	1.176563	0.667377
N	-1.020414	2.132132	1.153804
Br	3.318925	0.0	0.0
