16

C	-0.474848	-0.005997	-1.441653
C	0.0	0.0	0.0
Cl	-2.246398	-0.33644	-1.542624
H	1.09268	0.0	0.0
N	-0.083103	1.19554	-2.081193
H	-0.351385	1.182317	-3.058732
H	-0.485882	2.008281	-1.628827
N	0.22897	-1.120172	-2.249421
O	-0.198773	-1.309433	-3.383867
O	1.228393	-1.614726	-1.760304
N	-0.424452	-1.214723	0.770923
O	-0.328307	-1.123209	1.994873
O	-0.654149	-2.245859	0.14059
C	-0.500398	1.169952	0.679863
N	-0.891415	2.177666	1.15224
Br	2.735748	0.0	0.0
