16

C	-0.459346	0.107888	-1.458372
C	0.0	0.0	0.0
Cl	-2.226819	0.232146	-1.581004
H	1.094641	0.0	0.0
N	0.162677	1.250855	-1.985827
H	1.171006	1.187661	-1.848523
H	-0.062748	1.382014	-2.963579
N	-0.045381	-1.198248	-2.249815
O	-0.86229	-2.09217	-2.407666
O	1.106325	-1.171222	-2.661292
N	-0.433623	-1.273889	0.662002
O	0.033225	-2.300888	0.180842
O	-1.177808	-1.203132	1.636531
C	-0.483429	1.149857	0.74743
N	-0.845509	2.086072	1.357144
Br	3.293928	0.0	0.0
