13
Coordinates from ORCA-job run
  C   0.79957053143792      0.28250712303411      0.35080453641206
  C   -0.37760823715792      0.26849711354324     -0.63206946041876
  H   1.68721871044488      0.74977279371370     -0.08320457470974
  H   -0.04574754669909     -0.22402144446144     -1.54960076088596
  H   0.54459059782616      0.77418056158136      1.28928561664949
  N   1.18256270734126     -1.12029678638997      0.69568105623738
  O   1.50421025297913     -1.34578893821979      1.85764776482792
  O   1.16283203832928     -1.94239837994936     -0.21866228930455
  C   -0.69046682126893      1.66844248396437     -0.95322073888123
  N   -0.91089393311504      2.80084297050408     -1.16974902935476
  N   -1.57291576486332     -0.41546590916998     -0.17891405236152
  H   -1.87181020511523     -0.08296351810931      0.72951910960081
  H   -1.41254233013910     -1.41330807004102     -0.13851717781115
