14
Coordinates from ORCA-job run
  C   -1.22829345520605      0.16096478654472     -0.29549167473947
  C   0.27339073157538      0.23502987934781     -0.52629103856830
  F   -1.76939089411845      1.42232765600331     -0.43696081330956
  H   0.43934673955381      0.58749361269947     -1.54546172883378
  H   -1.65760364506692     -0.47444406000219     -1.07786648542682
  C   -1.61106518197025     -0.40318092059701      1.00596714658142
  N   -1.95985381282336     -0.92391862807566      1.99798450552802
  C   0.98266819211994     -1.07727148084659     -0.24904699569742
  H   2.04538233715149     -0.98052359464215     -0.47643233247490
  H   0.86673011679665     -1.36035541872979      0.79796341632528
  H   0.57030081316330     -1.87012416326069     -0.87730118385736
  N   0.86172068852040      1.30589900893736      0.34557196744364
  O   1.58047849635800      2.13383667151770     -0.20616373051915
  O   0.60718887394607      1.24626665110370      1.54452894754839
