14
Coordinates from ORCA-job run
  C   -1.04892576005423      0.24070698481121      0.54862995673349
  C   0.16401232237365      0.26331013188182     -0.37558548946239
  F   -0.63501223850640     -0.05875306445615      1.83144009010207
  H   -0.17672151661434      0.54266698630470     -1.37717620568150
  H   -1.52232654961422      1.22449943101978      0.56932163668336
  C   -2.01314183033557     -0.76926424311276      0.09457496148734
  N   -2.77721766354854     -1.57044804206440     -0.29487122798838
  C   0.95235240712981     -1.02635272253152     -0.37997994449959
  H   0.32128948881274     -1.83384115100714     -0.75665917463851
  H   1.28958032178633     -1.27463077630902      0.62479752335894
  H   1.82518265515425     -0.93726599625920     -1.02489291679010
  N   1.00737132272016      1.43856550917986      0.07449312220435
  O   2.17515908052710      1.23314819671492      0.38311516581378
  O   0.43939796016926      2.52765875582789      0.08379250267713
