14
Coordinates from ORCA-job run
  C   -1.01845637049151      0.01754578232287      0.64946297062030
  C   0.12879739252608      0.36770013391106     -0.29236340475328
  F   -0.50949948466065     -0.61144797424008      1.76849502997484
  H   -0.28754455348013      0.90243372307147     -1.15143284534352
  H   -1.52489661416910      0.92791832576128      0.97689012725248
  C   -1.97305998267427     -0.87227797789372     -0.02335893652940
  N   -2.73166810148117     -1.56994914392070     -0.58471133163062
  C   0.96156569979946     -0.82272240840915     -0.70961136966350
  H   1.78556280455642     -0.50633654447442     -1.34729061338647
  H   0.33664404604351     -1.52225410826446     -1.26843564082688
  H   1.37400353440812     -1.32844718951189      0.16167487046148
  N   0.95707655243104      1.40948489752811      0.43143413003797
  O   0.35165551631210      2.41788724655839      0.78558554899816
  O   2.14981956088009      1.18846523756125      0.60366146478843
