14
Coordinates from ORCA-job run
  C   -1.08774052463826      0.15879555988232      0.50065996119303
  C   0.19533650007084      0.32396235191980     -0.30734721658504
  F   -0.77967595437768     -0.37841070764919      1.73473181196365
  H   -0.06293509548683      0.78858849693217     -1.26380820518966
  H   -1.55420009009406      1.13240098494667      0.66465320283744
  C   -2.01944384556343     -0.73055949023122     -0.20411794426365
  N   -2.75582731021981     -1.43088745392766     -0.79103918741259
  C   0.97257765656258     -0.95984245918349     -0.48757402317858
  H   0.36790819350203     -1.67144571247721     -1.05344977660121
  H   1.89473249101650     -0.77366423595968     -1.03588252322357
  H   1.22670775804365     -1.39434488659079      0.47762249674779
  N   1.00802073790848      1.37887515375274      0.41468252903619
  O   2.14647577377019      1.09609863054509      0.76844478994579
  O   0.44806370950581      2.45943376804045      0.58142408473040
