14
Coordinates from ORCA-job run
  C   -1.13628347027545      0.22250219031931      0.34511253697905
  C   0.19563551035547      0.20221578602399     -0.39767991473641
  F   -0.89623051600536      0.22699421430873      1.70491662206141
  H   -0.01341206826027      0.24112134724222     -1.47105295192997
  H   -1.68855406199013      1.13160689664920      0.09838263325592
  C   -1.93224912290457     -0.95912732588118     -0.00968721656053
  N   -2.55840381736289     -1.90228065294837     -0.31912126571862
  C   1.08172511809496     -0.96600757257212     -0.03050436290647
  H   2.03058706135449     -0.90645240326236     -0.56131655375905
  H   1.28460567170949     -0.97364944354164      1.03893388369509
  H   0.58452606705816     -1.89753759963402     -0.30825199748373
  N   0.85947855711161      1.53029090743153     -0.09707727900426
  O   1.98134322122339      1.52232081991206      0.39542701531756
  O   0.20623184989110      2.52900283595263     -0.38808114921000
