14
Coordinates from ORCA-job run
  C   -1.08633574278900      0.12762933268441      0.51311077037718
  C   0.13346111323527      0.25356767236448     -0.39360382608015
  F   -0.66608579212858     -0.00595891898598      1.82153079465932
  H   -0.21907483468108      0.39840134329147     -1.41932243842487
  H   -1.69701901593249      1.03037109483965      0.44665148094208
  C   -1.88272594336414     -1.04520123534056      0.13070134542445
  N   -2.51271054403073     -1.97819778242841     -0.20095431494478
  C   1.10017930864151     -0.90292426534800     -0.28057466198497
  H   1.44540517418759     -1.01699249893939      0.74545176491256
  H   0.60192655553178     -1.82182455989158     -0.59604874832278
  H   1.96620009307752     -0.73958155970060     -0.92007891340619
  N   0.78625965252656      1.57201948322309     -0.03256633731135
  O   0.06661387671654      2.56350745641654     -0.12084936399985
  O   1.96390609900925      1.56518443781488      0.30555244815936
