14
Coordinates from ORCA-job run
  C   -1.26662610795596      0.03768147613870     -0.13204925899509
  C   0.17713311576056      0.30191759923222     -0.53354471149962
  F   -1.95191132608899      1.23470288148218     -0.09832240235018
  H   0.17184825793393      0.74425236375335     -1.53090722245919
  H   -1.72338008909145     -0.58539924466519     -0.90868102994770
  C   -1.41458163438373     -0.65854210844258      1.15330728138794
  N   -1.55868626837420     -1.29044303126688      2.13157620730114
  C   1.05119264774090     -0.93557588448526     -0.45700078300826
  H   1.10011096442077     -1.30590874837025      0.56768582454729
  H   0.64904272368406     -1.72247879341286     -1.09924170157808
  H   2.06024027713724     -0.69988240077317     -0.79881812160525
  N   0.75142355342931      1.36953753175362      0.35142092181436
  O   0.69556965319958      1.17382848763660      1.56167468791342
  O   1.25962423258799      2.33730987141951     -0.20709969152080
