14
Coordinates from ORCA-job run
  C   -1.26846654625068      0.01945645634848     -0.11095532624888
  C   0.16361473314740      0.31338011570281     -0.53119377160619
  F   -1.97278746316076      1.20423092516187     -0.04849615006225
  H   0.13596701695069      0.77013678261866     -1.52168548686614
  H   -1.72700656100518     -0.59939038693714     -0.88996951220195
  C   -1.38653542467536     -0.69889149099221      1.16530368669595
  N   -1.52174189484970     -1.34412687581521      2.13608271246402
  C   1.05878559524935     -0.91097597197017     -0.48797491335835
  H   1.13024597759993     -1.29649157744817      0.52988637365435
  H   0.65874182680928     -1.69442390014738     -1.13574100031577
  H   2.05799117409302     -0.65337422482247     -0.84257299418801
  N   0.73863720071758      1.37519097503423      0.35994391250539
  O   0.67518124847248      1.17742591561828      1.56943049400247
  O   1.25937311690194      2.33885325764840     -0.19405802447464
