14
Coordinates from ORCA-job run
  C   -1.26770856408870      0.01722067028418     -0.12017681496092
  C   0.16787345392888      0.29137959530436     -0.54209247785439
  F   -1.96984009194097      1.20485710436923     -0.10964988645194
  H   0.14795750113554      0.70768146893400     -1.55042766240108
  H   -1.72244364419001     -0.63113610189126     -0.87712367646241
  C   -1.39578607647043     -0.64986914415584      1.18263720314160
  N   -1.53850886801995     -1.25595759600028      2.17727928186841
  C   1.06026647549267     -0.93172846879098     -0.44325798455536
  H   2.06231682838640     -0.69007306844618     -0.80094100216203
  H   1.12405508973759     -1.27607354001999      0.58976627093443
  H   0.66337277043091     -1.74013208022651     -1.06161460115287
  N   0.73868402198388      1.38750787955591      0.30952106698569
  O   1.26598587730963      2.32656725587182     -0.27940380280926
  O   0.66477522630455      1.23975602521154      1.52548408588011
