15

C	0.0	0.0	0.0
C	-0.491004	0.091623	-1.453791
Br	2.041928	0.0	0.0
H	-1.584881	0.227392	-1.28546
H	-0.258175	-1.00968	0.32469
N	-0.517292	0.931308	0.926672
H	-0.436063	1.859926	0.524906
H	-1.537473	0.696973	0.908206
N	-0.260485	-1.045324	-2.28595
H	-0.941136	-1.750307	-2.030725
H	0.676786	-1.407241	-2.155721
N	0.043318	1.322552	-2.108093
O	-0.314325	2.40323	-1.627556
O	0.824657	1.208463	-3.049499
H	-2.950486	0.0	0.0
