15
Coordinates from ORCA-job run
  C   0.78635797596951      0.36313321250305     -0.18806024600496
  C   -0.74153097161702      0.29025540062276     -0.27880257195904
  F   1.11945782284877      0.99754922847956      1.00768060381874
  H   -1.02674763923076     -0.02398895470343     -1.28357902879648
  H   1.11244044373750      1.03112724681171     -0.99349506321027
  C   1.50403007452147     -0.96305852554926     -0.25261724334339
  H   2.58171720227644     -0.79578188283555     -0.26867754624482
  H   1.21714851509897     -1.52091898684737     -1.14594969088040
  H   1.26199385207167     -1.56468344828058      0.62445475412224
  N   -1.43899690654312      1.48024747866729      0.09409778390882
  H   -0.96877033490784      1.94383220384476      0.85939536470478
  H   -1.53413088654420      2.10875326275167     -0.69014419981487
  N   -1.19926088688093     -0.83399821580652      0.61705173658133
  O   -1.28053138298652     -0.58662994753952      1.81469051337108
  O   -1.39417687781394     -1.92583807211858      0.08495483374725
