15
Coordinates from ORCA-job run
  C   0.58137758696281     -0.06044122019950     -0.83809628849693
  C   -0.76189672454902      0.34522662505699     -0.23239494320546
  F   1.09210460704424      1.12096544329098     -1.39588835932450
  H   -1.43970831159825      0.63602789458598     -1.04906425465136
  H   0.41408909071809     -0.75347515031231     -1.66206848699410
  C   1.57157193999011     -0.60581292980400      0.15989604121127
  H   1.22984584225522     -1.56882802048336      0.54293944043601
  H   2.53243461433313     -0.75643994038868     -0.33471304403623
  H   1.69668440943094      0.08409616611303      0.99300655140584
  N   -0.57060319795681      1.32298637008303      0.79650893673526
  H   -0.05597269921710      2.10130891765031      0.40411153463457
  H   -1.45604966654461      1.65244844410668      1.15602688293632
  N   -1.42992905402489     -0.87402149472876      0.35687869226476
  O   -2.04760651031083     -0.73669099660970      1.40580300021995
  O   -1.35534192653303     -1.90735010836071     -0.30494570313540
