15
Coordinates from ORCA-job run
  C   0.52782184631967     -0.66460693977202     -0.24832442722104
  C   -0.54823245470657      0.39772976008261     -0.09450600388823
  F   0.29739202640615     -1.31342098105227     -1.45806102919212
  H   -0.47309964433478      1.13850466356681     -0.89168996396993
  H   0.39975261379205     -1.41170409014971      0.54221929749845
  C   1.91769487774980     -0.07991254910973     -0.25064094666417
  H   2.11690215966399      0.43192442142720      0.69011714819687
  H   2.02031864785388      0.63343549994800     -1.07119879238978
  H   2.65034692082119     -0.87597612721783     -0.39191195383936
  N   -0.47466409721756      1.00638650555801      1.18991605615193
  H   -1.09932669575496      1.79847014286762      1.26328481350987
  H   -0.70994148192797      0.33319362584205      1.90957099921816
  N   -1.88414457927836     -0.29450708454332     -0.34457789084670
  O   -2.23691815081254     -1.10045395688027      0.51490894262395
  O   -2.50490198857399      0.00093710943285     -1.36010624918790
