15
Coordinates from ORCA-job run
  C   0.52169230294314     -0.66188223212254     -0.11379469725322
  C   -0.67214046175442      0.27677691678702     -0.20737128213900
  F   0.45376163018212     -1.53174151263418     -1.19928501077963
  H   -0.64378232658672      0.83002212806928     -1.14685041447150
  H   0.42107400269544     -1.26867825845629      0.79186811391316
  C   1.84086511664042      0.07159844895115     -0.15735277547216
  H   1.90952148433958      0.67438137716771     -1.06589252843183
  H   1.96126477724246      0.71942626231393      0.71220364558038
  H   2.65892273556105     -0.64989531334520     -0.16257164770326
  N   -0.85541369786271      1.17049170961595      0.89691164599764
  H   -0.33120641217263      2.02442763305576      0.78232266616062
  H   -0.63848477318600      0.73363867386876      1.78234813665848
  N   -1.90708657943224     -0.58535626768684     -0.29376770024615
  O   -2.58477269057486     -0.52491468029058     -1.31283162327968
  O   -2.13421510803465     -1.27929488529392      0.69406347146615
