15
Coordinates from ORCA-job run
  C   0.55289212658305     -0.68294192585191     -0.09775523779750
  C   -0.55419642654008      0.35455425637548     -0.18730458242995
  F   0.38273867635786     -1.56127975127719     -1.16401447052892
  H   -0.46928550909308      0.92840608063688     -1.11107231011574
  H   0.41497674305107     -1.26572310375806      0.81922750776069
  C   1.92694013866627     -0.06626578555000     -0.17138459182292
  H   2.07900586167630      0.62444823130397      0.65714775610857
  H   2.68383812301093     -0.85112350360674     -0.13199712221027
  H   2.04150371203852      0.47713591670825     -1.11174515969411
  N   -0.54243755141090      1.20296658560874      0.95531928856994
  H   -1.19037646290201      1.97302693892980      0.85453452617564
  H   -0.78491973145557      0.67465113971363      1.78509244816485
  N   -1.86249490634468     -0.41527464096002     -0.33799351256454
  O   -2.45404943305251     -0.34200735025729     -1.40976320661096
  O   -2.22513536058517     -1.05057308801554      0.65070866699521
