15
Coordinates from ORCA-job run
  C   0.88295931259536      0.33140580253704     -0.12082496234256
  C   -0.62057305917386      0.39381400814183     -0.37114404732480
  F   1.11585681159779      0.83435237653706      1.16020863844421
  H   -0.83322171958630      0.09418395682822     -1.39898895611217
  H   1.33544966505985      1.03802650521082     -0.82256575964511
  C   1.51181129289852     -1.03592501488208     -0.22598818828193
  H   1.14441291805366     -1.69105459719540      0.56391141135010
  H   1.28706349365447     -1.49674577107193     -1.18933419086190
  H   2.59349616597796     -0.94204206607482     -0.12162005373120
  N   -1.10913805120763      1.69304999200696     -0.09502597216552
  H   -2.10395304459663      1.76566784594766     -0.25818747938393
  H   -0.90675207774747      1.94483209280653      0.86325819152764
  N   -1.28220339292284     -0.70553335424162      0.46739964441104
  O   -1.38117838138268     -1.81322647586863     -0.05733622438270
  O   -1.63602993322021     -0.41080530068164      1.60523794849882
