15
Coordinates from ORCA-job run
  C   0.84668068498119      0.28829035083923     -0.32129727422619
  C   -0.67817126792977      0.33029069406226     -0.32940951715470
  F   1.28017740725945      1.01161798471393      0.79075823916628
  H   -1.05217530327825     -0.14773207610050     -1.23663240064563
  H   1.16873880874883      0.84692436755887     -1.20488780496116
  C   1.46769676955652     -1.08597171233560     -0.27774536298048
  H   1.09745883204466     -1.70754019650850     -1.09477564372407
  H   1.24043088251649     -1.58357456086544      0.66499380717222
  H   2.55076816427235     -0.99220981046383     -0.36687869514814
  N   -1.13147474438402      1.66647733598917     -0.21963080395624
  H   -0.77838514523422      2.08550440720134      0.63028047587925
  H   -2.14039639818399      1.72556892204626     -0.22902526830811
  N   -1.17925393746579     -0.58573538265704      0.79272423718764
  O   -1.34731338605800     -0.08182380396060      1.89935437152029
  O   -1.34678136684546     -1.76908651951955      0.50317164017905
