15
Coordinates from ORCA-job run
  C   0.85372894376444      0.24348399217316     -0.33954692980141
  C   -0.66591534715388      0.37247413113721     -0.30924975694079
  F   1.35529830564838      0.92753185290992      0.76895148784540
  H   -1.08845643112065     -0.07278270911716     -1.21184304450619
  H   1.18604026326595      0.79367306674011     -1.22464031988971
  C   1.39541485151063     -1.16455425014288     -0.32545375537231
  H   2.47935932124713     -1.13206037403733     -0.44278965784426
  H   0.96825865696891     -1.75581080556785     -1.13716794743296
  H   1.16487569327082     -1.65754051161821      0.61897792109878
  N   -1.03919790631817      1.73054040446523     -0.17336143052025
  H   -0.64016702027901      2.11965235872143      0.67040046604159
  H   -2.04285678136948      1.84808077685694     -0.15551795934816
  N   -1.19066621559362     -0.52802640803128      0.81495676100194
  O   -1.29792256106543     -0.03039926052819      1.93195193050046
  O   -1.43579377277602     -1.69526226396108      0.51533223516787
