15
Coordinates from ORCA-job run
  C   0.61333157190336     -0.12528010441537     -0.85187292617237
  C   -0.71055549565499      0.44252766142459     -0.33491976100634
  F   1.18227103608861      0.85204962928059     -1.65758418347840
  H   -1.27786042982172      0.82044585511317     -1.18675611461004
  H   0.39198685801168     -0.98017665345124     -1.49579416295057
  C   1.58801666451469     -0.48804462987413      0.24209893933434
  H   1.88171863166222      0.41079479076855      0.78560917038126
  H   2.48424965464337     -0.92812265137395     -0.19662702050595
  H   1.15418626395687     -1.21011109214396      0.93788883328860
  N   -0.54863829318264      1.44365339531350      0.64846315607923
  H   -0.22990697874972      1.05291190426298      1.52490754154001
  H   -1.41192650887297      1.94268657569771      0.81364444788642
  N   -1.52021271074178     -0.77614436508906      0.14392919964140
  O   -1.97419051902036     -1.50863292979566     -0.73025903067541
  O   -1.62446974473664     -0.94955738571772      1.35627191124781
