15
Coordinates from ORCA-job run
  C   0.55346684236757     -0.06502085500315     -0.82018934448383
  C   -0.82934587913556      0.37476471489512     -0.31239978603687
  F   1.09418029597543      1.07552127766525     -1.41969326422991
  H   -1.43239075936280      0.64990125006794     -1.17934609599420
  H   0.42027977691066     -0.81093854033302     -1.60858019239583
  C   1.50169594469943     -0.55370883068912      0.24553968712833
  H   2.47379940784623     -0.75783110579757     -0.20535824533368
  H   1.64063226985956      0.20295454231127      1.01904412050866
  H   1.13746130162805     -1.47170751402425      0.70957017061769
  N   -0.87962627305171      1.42834082408698      0.65395860970071
  H   -0.48561987893070      2.26791273360499      0.24953522931561
  H   -0.37261137557300      1.18535455802283      1.49428592774072
  N   -1.47071205745773     -0.85697676984536      0.25646075391237
  O   -1.90322161209076     -1.66911870397932     -0.55832135148696
  O   -1.44598800368468     -0.99944758098259      1.47549378103721
