15
Coordinates from ORCA-job run
  C   0.62390000421152     -0.14707461874037     -0.84060467358177
  C   -0.70422012696121      0.43761714097624     -0.35419340558948
  F   1.20817416615535      0.80976352904078     -1.65986007479465
  H   -1.25914782950820      0.79761176985883     -1.22178289228455
  H   0.40744203024666     -1.01489263123026     -1.46860458752363
  C   1.58210147575329     -0.48932176490431      0.27442417057723
  H   1.13591086337792     -1.19404835469827      0.98006734053680
  H   2.48235421072452     -0.94244871085511     -0.14217059557175
  H   1.87176936796074      0.42043663095149      0.80166714799632
  N   -0.55098879841350      1.46070265538307      0.60748828502543
  H   -1.41341967760696      1.96862495079804      0.74787647101260
  H   -0.24690369723342      1.08981764657036      1.49763292504531
  N   -1.52452741977184     -0.76723525108801      0.14257103997487
  O   -1.96740830376393     -1.51958186347704     -0.72048320782332
  O   -1.64703626517094     -0.91097112858543      1.35697205700061
