15
Coordinates from ORCA-job run
  C   0.56430200364024     -0.07169720235301     -0.81239024462975
  C   -0.82655942881792      0.36795035956600     -0.32725351131845
  F   1.10832908557978      1.06453941128373     -1.41702573007803
  H   -1.42042158374227      0.63091533664362     -1.20424763384730
  H   0.44449176583908     -0.82667233281139     -1.59426062851295
  C   1.50030902702218     -0.54508243302315      0.27091739265226
  H   1.62674349266968      0.22086209043815      1.03740756412852
  H   1.13309294653736     -1.45899740872388      0.74060955988145
  H   2.47889717600759     -0.75089771404319     -0.16492183012757
  N   -0.89352721387545      1.43141903985471      0.62688753471471
  H   -0.39602076285854      1.20054773115348      1.47618184623059
  H   -0.50060474096631      2.26956185340275      0.21871245529219
  N   -1.47029178815350     -0.86043523821782      0.24680115249823
  O   -1.88704478739148     -1.68380424970097     -0.56494374279295
  O   -1.46169519149045     -0.98920924346901      1.46752581590906
