18

C	0.0	0.0	0.0
C	-0.35092	-0.056279	-1.506476
Br	2.036679	0.0	0.0
H	0.190642	0.766927	-1.989365
N	-0.504505	1.18899	0.549338
H	-0.408848	1.236317	1.553292
H	-0.137324	2.024487	0.114606
C	-0.481864	-1.201146	0.784514
H	-1.576322	-1.190623	0.778801
H	-0.133896	-1.14063	1.818441
H	-0.111736	-2.129096	0.348822
C	-1.849998	0.101915	-1.782803
H	-2.46306	-0.670916	-1.321139
H	-2.218632	1.043348	-1.378971
H	-2.017452	0.080591	-2.86352
C	0.152763	-1.292465	-2.109181
N	0.504671	-2.291236	-2.617328
Br	-4.913429	0.0	0.0
