18

C	0.0	0.0	0.0
C	-0.501119	-0.3091	-1.43244
Br	1.972322	0.0	0.0
H	-1.596449	-0.21425	-1.329397
N	-0.446151	1.278541	0.487718
H	-0.245422	2.002708	-0.195539
H	-1.463352	1.210705	0.583564
C	-0.445735	-1.075687	0.977859
H	-0.144886	-0.772659	1.98204
H	0.003364	-2.042365	0.749156
H	-1.537014	-1.143329	0.931958
C	-0.176185	-1.697722	-1.982454
H	-0.544149	-1.785587	-3.007011
H	-0.678335	-2.456824	-1.382367
H	0.900201	-1.882729	-1.978908
C	-0.055718	0.72959	-2.360665
N	0.304703	1.556797	-3.113888
Br	-3.819274	0.0	0.0
