18

C	0.0	0.0	0.0
C	-0.491649	0.11513	-1.455194
Br	2.037636	0.0	0.0
H	-1.591426	0.147264	-1.335602
N	-0.48516	1.083256	0.730999
H	-0.354704	1.020437	1.72745
H	-0.269025	1.996087	0.360837
C	-0.432703	-1.304464	0.64096
H	0.026571	-2.163471	0.153083
H	-1.526419	-1.347711	0.577733
H	-0.129218	-1.314294	1.691932
C	-0.108015	-1.044406	-2.375535
H	-0.455799	-0.836367	-3.390347
H	-0.594766	-1.960995	-2.038655
H	0.973656	-1.191647	-2.397418
C	-0.06778	1.389752	-2.033695
N	0.272193	2.411167	-2.504505
Br	-3.968876	0.0	0.0
