18

C	0.0	0.0	0.0
C	-0.483915	0.10466	-1.461268
Br	2.038386	0.0	0.0
H	-1.583147	0.137132	-1.34863
N	-0.498123	1.077573	0.725345
H	-0.292563	1.993905	0.357965
H	-0.374548	1.014416	1.72261
C	-0.423222	-1.308725	0.640727
H	0.046665	-2.163169	0.154902
H	-0.12605	-1.312864	1.692253
H	-1.51515	-1.362882	0.574275
C	-0.099046	-1.055905	-2.376233
H	-0.590981	-1.968915	-2.040705
H	0.981485	-1.207484	-2.395785
H	-0.443085	-0.848521	-3.391014
C	-0.060317	1.380972	-2.03898
N	0.293163	2.396809	-2.513423
Br	-3.987154	0.0	0.0
