18

C	0.0	0.0	0.0
C	-0.28743	-0.078699	-1.543264
Br	1.980888	0.0	0.0
H	0.291903	0.742713	-1.980925
N	-0.47707	1.202014	0.610048
H	-1.476255	1.110267	0.785327
H	-0.325245	2.005068	0.010406
C	-0.533616	-1.19916	0.750745
H	-0.271295	-1.114755	1.8065
H	-1.625926	-1.206343	0.656846
H	-0.130934	-2.129663	0.350112
C	-1.769212	0.074498	-1.934273
H	-1.907005	0.967913	-2.5464
H	-2.442424	0.157729	-1.081334
H	-2.123579	-0.781664	-2.508172
C	0.262117	-1.310152	-2.116759
N	0.644633	-2.302259	-2.617343
Br	-4.639847	0.0	0.0
