15

C	0.0	0.0	0.0
C	-0.476194	0.335829	-1.451623
F	1.359471	0.0	0.0
H	-0.33174	1.422808	-1.522902
C	-0.49123	0.957022	0.988658
N	-0.750393	1.790649	1.775493
N	-0.381217	-1.414435	0.422208
O	-0.461257	-2.240459	-0.478879
O	-0.46555	-1.622564	1.626432
N	-1.810705	0.024252	-1.848408
H	-2.542373	0.424447	-1.252606
H	-1.965957	-0.97492	-1.835686
C	0.479276	-0.276431	-2.396507
N	1.209433	-0.777369	-3.167409
Br	-4.450917	0.0	0.0
