15

C	-0.416394	-0.014356	-1.463252
C	0.0	0.0	0.0
Cl	0.000178	1.561468	-2.186173
H	1.093004	0.0	0.0
H	-0.368972	0.894471	0.501312
C	0.239333	-1.130505	-2.236603
H	-0.011414	-1.071409	-3.293398
H	1.318497	-1.037153	-2.090937
H	-0.093627	-2.093781	-1.842388
N	-1.942547	-0.101088	-1.566239
O	-2.416618	-0.71905	-2.515971
O	-2.589823	0.485365	-0.704814
C	-0.498362	-1.19009	0.678939
N	-0.903345	-2.160834	1.20092
Br	3.464653	0.0	0.0
