15

C	-0.412753	-0.041185	-1.462887
C	0.0	0.0	0.0
Cl	0.021429	1.47054	-2.264392
H	1.092591	0.0	0.0
H	-0.326804	-0.925795	0.477673
C	0.245755	-1.211568	-2.167997
H	1.326917	-1.10979	-2.050405
H	-0.02001	-1.218247	-3.227096
H	-0.080801	-2.143004	-1.700308
N	-1.934166	-0.243661	-1.577904
O	-2.410437	-1.037905	-0.769795
O	-2.55148	0.308087	-2.478904
C	-0.560951	1.129964	0.725287
N	-1.039597	2.023729	1.31676
Br	3.475381	0.0	0.0
