15

C	-0.490121	0.054548	-1.445381
C	0.0	0.0	0.0
Cl	-2.166018	0.650978	-1.515338
H	1.09171	0.0	0.0
H	-0.29592	0.941272	0.47396
C	0.422036	0.920109	-2.289128
H	1.446703	0.553711	-2.183248
H	0.093603	0.904787	-3.331457
H	0.387143	1.945454	-1.917977
N	-0.447209	-1.3501	-2.049814
O	0.593292	-1.952274	-1.813339
O	-1.373041	-1.74025	-2.749866
C	-0.572545	-1.101472	0.759752
N	-1.074014	-1.97473	1.362318
Br	3.493679	0.0	0.0
