15

C	-0.422273	-0.009997	-1.460007
C	0.0	0.0	0.0
Cl	0.037843	1.54872	-2.192035
H	1.093115	0.0	0.0
H	-0.363251	0.896183	0.502742
C	0.194639	-1.147485	-2.233699
H	-0.166802	-2.098389	-1.835386
H	1.277359	-1.087589	-2.094041
H	-0.059247	-1.082952	-3.290001
N	-1.952451	-0.049027	-1.558022
O	-2.445387	-0.621889	-2.525547
O	-2.580042	0.529095	-0.676399
C	-0.500873	-1.187366	0.68269
N	-0.902586	-2.155493	1.212149
Br	3.47457	0.0	0.0
