15

C	-0.547487	0.073652	-1.419654
C	0.0	0.0	0.0
Cl	0.134218	-1.231316	-2.395088
H	1.090108	0.0	0.0
H	-0.325791	0.882751	0.554058
C	-2.062585	0.043099	-1.507932
H	-2.476351	0.878283	-0.935445
H	-2.433928	-0.894247	-1.093662
H	-2.374279	0.124194	-2.550211
N	-0.137495	1.416666	-2.040677
O	0.059259	2.342245	-1.261995
O	-0.14849	1.498562	-3.260879
C	-0.511139	-1.190058	0.667461
N	-0.973237	-2.125679	1.205802
Br	3.463219	0.0	0.0
