15

C	-0.392018	0.02601	-1.468089
C	0.0	0.0	0.0
Cl	-2.176854	0.054479	-1.676409
H	1.093954	0.0	0.0
H	-0.365105	-0.906214	0.48208
C	0.248947	1.168194	-2.212442
H	1.332655	1.088716	-2.086802
H	-0.011492	1.14101	-3.267867
H	-0.093352	2.107332	-1.77416
N	0.038451	-1.311333	-2.08473
O	0.408524	-1.293896	-3.253345
O	-0.074484	-2.3111	-1.383769
C	-0.494866	1.179636	0.692654
N	-0.899579	2.129522	1.251686
Br	3.444746	0.0	0.0
