15

C	-0.408237	-0.049996	-1.464798
C	0.0	0.0	0.0
Cl	-0.001665	1.467205	-2.266874
H	1.092935	0.0	0.0
H	-0.324539	-0.925268	0.480692
C	0.277803	-1.208685	-2.164109
H	1.356444	-1.079435	-2.045666
H	0.012469	-1.223659	-3.223079
H	-0.026478	-2.146077	-1.69324
N	-1.92443	-0.283988	-1.576056
O	-2.361608	-1.160455	-0.832233
O	-2.578896	0.33276	-2.40581
C	-0.565644	1.131259	0.719184
N	-1.051758	2.022436	1.308814
Br	3.469686	0.0	0.0
