16
Coordinates from ORCA-job run
  C   -0.65930520330668     -0.09017734093384      0.18216941777979
  C   0.80568029208935     -0.15249073590280     -0.30825981693289
  F   -0.78104277358317      1.18757169623466      0.80225750415598
  H   0.89907213396074     -1.03024770592133     -0.94783187909436
  N   -0.84163802776289     -1.08719372537142      1.19285524399841
  H   -1.70737694301282     -1.58734982611251      1.05455305107706
  H   -0.80825623254432     -0.67699971523401      2.11496506680483
  N   -1.58251014090309     -0.27013345567774     -0.86590446725261
  H   -2.51005451335476      0.00826148538040     -0.56977150377077
  H   -1.31523862228903      0.23451241983751     -1.70062869909309
  N   1.80449700208340     -0.16994418242168      0.71389686584385
  H   1.69569758729802      0.63538888473174      1.31851170374310
  H   1.68274230839199     -1.01651658601265      1.25549026543367
  N   1.05201903253602      1.04411916493398     -1.18998540786166
  O   0.61118862868286      0.97761822311694     -2.33960272801644
  O   1.65452547171437      1.99558139935275     -0.71171461681489
