16
Coordinates from ORCA-job run
  C   -0.83372560833444     -0.03710263485448     -0.04952269538636
  C   0.60826064361173     -0.11225690111847     -0.58624068156031
  F   -1.61936686641279      0.52428309586318     -1.08023374744890
  H   0.58135297548296     -0.29121167852686     -1.66341378269751
  N   -0.88452344676129      0.78041994180779      1.11549799163419
  H   -0.95934010232164      1.76040222977634      0.87317975420299
  H   -1.65634119794363      0.49717388446208      1.70280191040231
  N   -1.31972325719781     -1.34435704807858      0.25557485957987
  H   -0.76706527349375     -2.06293933073283     -0.18923022328726
  H   -2.28743665346704     -1.40960386009128     -0.03195495001495
  N   1.34320676708914     -1.11393225825792      0.08905152577099
  H   1.32743119381788     -0.93633999670548      1.08668506420323
  H   2.30475458995385     -1.13589461508396     -0.22165975697109
  N   1.23486040215350      1.28866629884234     -0.45817525679936
  O   0.63287307112845      2.21376838266085     -0.99424257983944
  O   2.29578276269489      1.37892449003729      0.14988256821160
