16
Coordinates from ORCA-job run
  C   -0.79766529635597      0.02918958945088     -0.16093623538209
  C   0.70772086611043     -0.06001840967669     -0.45440752221427
  F   -1.41785773803682      0.62947779695706     -1.25484783442812
  H   0.84690093525340     -0.52024373616989     -1.44058785101574
  N   -0.99649604430155      0.86137985244717      0.96615769127119
  H   -1.94789168522522      0.83246617757901      1.30667871101737
  H   -0.33299171785353      0.63352755264562      1.69497441202151
  N   -1.27984982168443     -1.32182741331874     -0.02505645247295
  H   -2.19022308395520     -1.32159343686987      0.41903240960615
  H   -1.37782567090156     -1.74311986183447     -0.94313816352409
  N   1.34545253687426     -0.68544228626483      0.66427487284154
  H   0.93181976258702     -1.59994219054362      0.79376854192581
  H   2.34458927335587     -0.76434695651457      0.53099742508947
  N   1.25692110983646      1.33680341767568     -0.64235116498378
  O   1.10548599404377      1.81259565567695     -1.76348746841630
  O   1.80291058025306      1.88209424876030      0.30892862866432
