17
Coordinates from ORCA-job run
  C   0.65793728547767     -0.17528808449403     -0.35938015465830
  C   -0.86226470598685     -0.00022777710423     -0.36963610868696
  Br  1.20465865630984      0.63950327212994     -2.14358900609122
  H   -1.30375088247206     -0.52006937936934     -1.21650450639771
  C   1.45889474602421      0.53692383893571      0.71271255097772
  H   1.33423123595309      1.61333996883142      0.66503553441321
  H   1.14653495719391      0.18046262657168      1.69485038981137
  H   2.51443221208600      0.29902849993673      0.56170518187609
  N   0.88244367879503     -1.56737186614879     -0.29423034528970
  H   0.47047279889041     -2.08516858644666     -1.06060218469039
  H   1.86574108852530     -1.79146119552114     -0.21752945576371
  N   -1.36703448802685      1.40764269677202     -0.45442782020281
  O   -0.88108215860107      2.24655406620231      0.29454922248479
  O   -2.27219163105476      1.58477520998050     -1.26720021721578
  N   -1.47090031961257     -0.62987870201607      0.85922697653832
  O   -1.27999451633243     -0.07386899081498      1.93418831036600
  O   -2.09712795716887     -1.66589559744507      0.66183163252909
