17
Coordinates from ORCA-job run
  C   0.63825958386719     -0.24617900187155     -0.21461349007279
  C   -0.80186518125618     -0.06339014431127      0.28901377047734
  Br  0.63930350003870     -0.18523502112574     -2.22725230730839
  H   -0.83370676990699     -0.37915795446110      1.33278354093928
  C   1.51027215935634      0.90442161502407      0.26547321443554
  H   1.46115663958813      0.96583067827450      1.35600382258575
  H   1.20530050564734      1.85252363933078     -0.17420255563735
  H   2.54357238108454      0.71390203352565     -0.02937998921217
  N   1.13543672279260     -1.47223551878122      0.29866947001414
  H   0.59451501762368     -2.26303865430097     -0.02798542861487
  H   2.10706116911082     -1.59593483861074      0.04250324496217
  N   -1.82309520859498     -0.90960114746402     -0.42721819729788
  O   -2.86485752957731     -0.38464267613654     -0.78782238485583
  O   -1.52604537319348     -2.09545178223391     -0.52222862313890
  N   -1.23482042389252      1.36605310514098      0.26862377239978
  O   -1.42008463757557      1.87033758330417      1.37598842136138
  O   -1.32940255511231      1.92279808469692     -0.81735628103722
