17
Coordinates from ORCA-job run
  C   0.64185720240093     -0.18041727483647     -0.38495316666728
  C   -0.88383797270057     -0.10362581129814     -0.29653200184485
  Br  1.00074758664716      0.42172725670678     -2.29625462366585
  H   -1.34520962914266     -0.75864664190309     -1.03164569862017
  C   1.46295822306054      0.71679378331866      0.52007044235483
  H   1.25502417769769      1.76723908617333      0.34738160736987
  H   2.51954223553260      0.52988653673294      0.31451189138757
  H   1.25013897986616      0.47287816939251      1.56141754594118
  N   0.97040150493503     -1.53491902505262     -0.15996291267006
  H   0.54510358886010     -2.17404650043065     -0.82016177990455
  H   1.97043129932768     -1.68426732319866     -0.13345934033149
  N   -1.49431085941430      1.24574033362108     -0.52205516898465
  O   -2.46567825587679      1.25463585246554     -1.27554526482990
  O   -1.01857155650084      2.20678056642028      0.07031876386643
  N   -1.35721108371729     -0.59902595691723      1.04759243522741
  O   -1.13044859725879      0.10660985249497      2.02324454881692
  O   -1.92093684371666     -1.68834290368924      1.03603272255460
