17
Coordinates from ORCA-job run
  C   0.69405186766111      0.15349719128488     -0.34588770042130
  C   -0.74073494389636      0.55171820664735      0.02440715333003
  Br  1.37293010942561      1.59512971773889     -1.51391161269607
  H   -0.80866253172672      1.59363854703970      0.32827108444359
  C   1.57938131618886      0.16358739839182      0.89991684219675
  H   1.49811128793141      1.10458488191103      1.44978192131287
  H   1.30772064139081     -0.66732717121538      1.55344884809921
  H   2.61984910226104      0.03933681939590      0.59598826126391
  N   0.68613602252272     -1.04931307199001     -1.12932156137346
  H   0.28259658022680     -1.80666536732675     -0.58822780648437
  H   1.62895878343832     -1.29346282806093     -1.40682050828871
  N   -1.29450921235548     -0.25572050116419      1.16582581104598
  O   -2.06765578035554      0.34636919606441      1.90654685660346
  O   -0.96853723113311     -1.43575875752668      1.25975876136505
  N   -1.70248293180877      0.36071619784539     -1.12295669917915
  O   -2.25076487926919     -0.72924465064000     -1.21931167300646
  O   -1.83538820050152      1.32891419160457     -1.85950797821132
