17
Coordinates from ORCA-job run
  C   0.66474423710861      0.09343391527109     -0.17627126435959
  C   -0.84331308015669     -0.01223965505260      0.12374850864918
  Br  1.17573066543307      1.95981466072209     -0.45326735071206
  H   -1.06526859639908     -1.00789552844527      0.51589761638111
  C   1.51825178527673     -0.46803761406039      0.95537864266530
  H   2.56440050820877     -0.44133122443359      0.64495831449958
  H   1.23561898232033     -1.51246167153361      1.13052868519222
  H   1.40539010246362      0.08941058031893      1.88139150361099
  N   0.84591042169699     -0.59232406233776     -1.44430799658465
  H   0.78111214960388     -1.59670854597215     -1.30159239687483
  H   1.76191610437681     -0.38256623885400     -1.82178230570042
  N   -1.64776929672684      0.11258475724155     -1.13355024998012
  O   -2.21160394107579     -0.91877315382326     -1.49154326348940
  O   -1.65680049879813      1.19543236791528     -1.69626205742391
  N   -1.37380778181437      0.94916613369373      1.15650348597240
  O   -0.71396897389063      1.03153454501365      2.18480950141661
  O   -2.44054278762727      1.49996073433632      0.92536062673760
