17
Coordinates from ORCA-job run
  C   0.69365677821822     -0.14133680933192     -0.48429133187071
  C   -0.84591936458018     -0.08745657749672     -0.32522000175798
  Br  1.01891527573247      0.61447168204666     -2.27310243146067
  H   -1.32295405547771     -0.79758927653409     -0.99823665729146
  C   1.45635260639020      0.64593057700523      0.56346866658174
  H   1.28572507181639      0.20490628740297      1.55146939631022
  H   2.51874259584632      0.57062479105252      0.33356698250543
  H   1.15110282071211      1.68777952921678      0.58921826561468
  N   1.19014305676755     -1.48732078083240     -0.51494309781113
  H   1.11807374328067     -1.91762483008564      0.39976708605475
  H   0.70185778113550     -2.06198143225431     -1.19149027947775
  N   -1.51980217128280      1.22889593134919     -0.57486761845832
  O   -0.96191104431405      2.25613568903664     -0.21249959920979
  O   -2.62217989002682      1.14267850089643     -1.11253754535948
  N   -1.21522187779095     -0.50665005776261      1.07603771976400
  O   -1.48792173679187      0.36449580630546      1.89254589434765
  O   -1.15865958963505     -1.71595903001418      1.28311455151882
