17
Coordinates from ORCA-job run
  C   0.69117840647686     -0.02221293855918     -0.25660635703636
  C   -0.68462827919750      0.56380998416355      0.05383302371990
  Br  1.40466071712001      1.28580166511959     -1.67494796784293
  H   -0.60358762527348      1.55954121636534      0.48297971817146
  C   1.64094315670013      0.12835233625046      0.92037374372932
  H   2.64660656851744     -0.15315360756470      0.60244004511614
  H   1.32522064989667     -0.52883202515701      1.73148955651547
  H   1.67364554509971      1.15736896592194      1.27660581142182
  N   0.61287050239889     -1.35374580369713     -0.67192855577568
  H   1.52273200653844     -1.77413696399074     -0.80189953712725
  H   0.01808566732547     -1.49448604709690     -1.47710517000498
  N   -1.39428403343160     -0.29952636235285      1.07368367057796
  O   -2.19373673865062     -1.13094836242162      0.66707481728071
  O   -1.07179769145117     -0.08517763669935      2.23691436496251
  N   -1.61875094714299      0.68400195118796     -1.11395165042263
  O   -2.41693450491991      1.61311781180944     -1.03908114145264
  O   -1.55222340000634     -0.14977418327880     -2.00987437183282
