17
Coordinates from ORCA-job run
  C   0.73285641518405      0.11693618144023     -0.34980984630765
  C   -0.73602372365597      0.47575746298633     -0.03982028923252
  Br  1.18780502255374      1.38167150255749     -1.81381256457775
  H   -0.84277387801561      1.51099145926610      0.27353056719468
  C   1.59233603063406      0.47589688888445      0.85233628501327
  H   2.63915862231147      0.34992877848097      0.57660088307449
  H   1.36669460966530     -0.19025921761101      1.69071159348105
  H   1.42789064258342      1.50429932015551      1.17339249965679
  N   1.02038730699125     -1.20470211927742     -0.77249745223696
  H   0.34456909267369     -1.55836256239639     -1.43470780020601
  H   1.11993719824247     -1.83547624098663      0.01163053740831
  N   -1.22872494698072     -0.37271360134840      1.09652017749246
  O   -1.24066511173435      0.16608206100946      2.20025721096216
  O   -1.51562910257938     -1.53921671898243      0.84239101584331
  N   -1.70327137200477      0.28504785781062     -1.17112385055861
  O   -1.52103403823755     -0.64106886860806     -1.95380215035506
  O   -2.64351276763109      1.07518781661914     -1.18379681665196
