17
Coordinates from ORCA-job run
  C   0.69908861303445      0.00139180700693     -0.23342143973752
  C   -0.72648571884750      0.51078669319228     -0.03224135672806
  Br  1.36091435530198      1.18610393295015     -1.78145970159987
  H   -0.73571154825421      1.55359626070563      0.27533863970156
  C   1.59386494496717      0.36454013716031      0.94015696245038
  H   2.62807103170907      0.12800826302926      0.68293890156428
  H   1.30121239382581     -0.21507302668181      1.81643468174528
  H   1.53650124663139      1.42770526395159      1.17071780190956
  N   0.73551794355421     -1.37138845934975     -0.48717855600654
  H   0.18256239662535     -1.65411083775763     -1.28470452914520
  H   1.67811308730374     -1.73226207289443     -0.53903381517239
  N   -1.40528554246604     -0.27862030409934      1.06575330097313
  O   -1.13933861468442      0.09580912334333      2.20251606033954
  O   -2.12681376778547     -1.21166245069561      0.74239595014179
  N   -1.62502617470752      0.41796378179182     -1.23035045198139
  O   -2.49161185264149      1.28477266406792     -1.29028006355289
  O   -1.46557279356653     -0.50956077572066     -2.01558238490167
