17
Coordinates from ORCA-job run
  C   0.65120838402888     -0.17970377064956     -0.36955522979829
  C   -0.87681924298518     -0.12046949610496     -0.31134877610085
  Br  1.03954632886176      0.39041471634743     -2.28443032032772
  H   -1.31596963744472     -0.79662109803992     -1.04092090743923
  C   1.44364176487902      0.74446683063010      0.53394988104767
  H   1.21635302271641      0.51470743682007      1.57548235279302
  H   2.50624956410571      0.56991548979750      0.34983643913659
  H   1.22321061228775      1.78868635916083      0.34023464447860
  N   0.99180659913078     -1.52555311911005     -0.11246364892056
  H   1.99277842643029     -1.66142656697693     -0.06113390161681
  H   0.58921082373570     -2.18226363197991     -0.76959260667377
  N   -1.49977866425463      1.21593253755666     -0.57600290716701
  O   -2.45798603089670      1.19655678009472     -1.34593203373286
  O   -1.04644395902478      2.19527501145124      0.00386448019853
  N   -1.36932679551810     -0.59427962349497      1.03387581411325
  O   -1.17036704758143      0.13446246987385      1.99850882065550
  O   -1.91831414847075     -1.69110032537612      1.03462789935398
