17
Coordinates from ORCA-job run
  C   0.68164078474046     -0.16062802408879     -0.40529099201797
  C   -0.85169125520611     -0.16379904707135     -0.44234522794797
  Br  1.21672453550771      0.37533809550699     -2.22089573343568
  H   -1.20499895563875     -0.75111809847685     -1.28645130389507
  C   1.33118302306266      0.80789294288967      0.57103754194458
  H   1.02018691797499      0.56729218956971      1.58794319082821
  H   1.07433980163386      1.84524133988638      0.36053290167092
  H   2.41409981202095      0.69612699899419      0.49148135991868
  N   1.05327553452343     -1.55809167133175     -0.25555444902795
  H   1.96622084141251     -1.71916239844672     -0.66210717890859
  H   1.09235187013957     -1.78024398041345      0.73359387560092
  N   -1.46103103014296      1.20226564868886     -0.54336159635510
  O   -1.45909818807440      1.87445849137644      0.48533488422924
  O   -1.90060705925889      1.53028862470815     -1.63921470229135
  N   -1.48644498449944     -0.77704102177670      0.78261125172405
  O   -2.68494901513339     -1.00524466715330      0.66527549140195
  O   -0.80020263306223     -0.98557542286157      1.77741068656121
