17
Coordinates from ORCA-job run
  C   0.68218605135619     -0.14325978429731     -0.32671650028622
  C   -0.84642662490308     -0.11119110733311     -0.38892796889787
  Br  1.21004691109126      0.56618421057633     -2.16093695175338
  H   -1.21169155043817     -0.73826585041330     -1.19866827874890
  C   1.38079077582824      0.72766258635939      0.69878026341171
  H   1.16068138475665      1.78002142523164      0.55527323456511
  H   2.45780259977201      0.57713953576091      0.59413619598200
  H   1.07093656730863      0.42730464056306      1.70027426767943
  N   1.02921871315671     -1.49812238745879     -0.13596878073071
  H   2.02587293556482     -1.62288544852291     -0.01720579573141
  H   0.68985415857295     -2.11433337851226     -0.86417304367711
  N   -1.47293149861491      1.23206713332934     -0.60687476747068
  O   -2.36285282463186      1.25651329101285     -1.45469342902685
  O   -1.08977218257929      2.17164490763477      0.07954630402454
  N   -1.43513220263397     -0.68968225530635      0.87418460194024
  O   -1.33026705973021     -0.03055883462967      1.90163769243033
  O   -1.95831615387595     -1.79223868399459      0.75133295628979
