17
Coordinates from ORCA-job run
  C   0.70532053484460     -0.14234492836934     -0.46679497642327
  C   -0.83773254068556     -0.10555393342908     -0.34054628615983
  Br  1.05773789888324      0.57993227545126     -2.26440177766505
  H   -1.29167389211147     -0.83595189235764     -1.00781154263108
  C   1.43608382863348      0.67685270596654      0.57923131403890
  H   2.50383839367354      0.61025184969250      0.37265120096044
  H   1.25052787008558      0.25473993125262      1.57277995998545
  H   1.11749366686954      1.71500437268066      0.57633735105550
  N   1.21976335580504     -1.48199268574954     -0.45878327033044
  H   0.75298423095003     -2.07689104366015     -1.13302897626836
  H   1.13364384131224     -1.89401995321011      0.46310884839740
  N   -1.52295866930210      1.19630602601810     -0.63252748649434
  O   -0.98589224805248      2.23834597411658     -0.28118593676767
  O   -2.61273921876837      1.08394130555906     -1.19066465284326
  N   -1.23084624963691     -0.49953273162425      1.06150352220522
  O   -1.16338360352970     -1.70331932892623      1.29580372388799
  O   -1.53116719897070      0.38523205658901      1.85332898505239
