17
Coordinates from ORCA-job run
  C   0.69685952404529      0.01992944113295     -0.24180592823208
  C   -0.70705673732405      0.53195210647460      0.07395130910845
  Br  1.38507524696031      1.44100679966251     -1.56027712515096
  H   -0.67419871611593      1.50052742083280      0.56690325704975
  C   1.61677988329491      0.13265210716675      0.96279405171928
  H   2.63849809742874     -0.09104499569260      0.65011660136747
  H   1.60298366889305      1.13819103523773      1.38175773800192
  H   1.31078175435943     -0.58470405525739      1.72516377505240
  N   0.67973259835382     -1.28491609682302     -0.74045275406412
  H   1.60804285117255     -1.66037421057642     -0.87741150032313
  H   0.10612311820130     -1.39790223107627     -1.56513520139324
  N   -1.40248066784120     -0.42113222274655      1.02102476036996
  O   -1.11677350048094     -0.26538133594570      2.20309141351991
  O   -2.16477212119845     -1.25102244837975      0.54566946937438
  N   -1.62115184231281      0.69105890376791     -1.10512387706244
  O   -1.50481657848004     -0.08245803219370     -2.04880034617496
  O   -2.45362657895598      1.58561781441616     -0.99246564316263
