17
Coordinates from ORCA-job run
  C   0.70661693325979      0.03353173206387     -0.20896851219636
  C   -0.74218704572488      0.48674144940256     -0.04094543953228
  Br  1.37967086936862      1.28959305253918     -1.69210530882648
  H   -0.79832075726134      1.51741189264907      0.30077649049634
  C   1.54696225148801      0.38624571219330      1.00737281931022
  H   1.24368851537216     -0.23185225450190      1.85320177287951
  H   2.59703333695202      0.19246944278444      0.78043712099741
  H   1.44544934181391      1.43864215777808      1.27003608627457
  N   0.79917949291668     -1.32862468013088     -0.50554169564629
  H   1.75545681095751     -1.65409494141577     -0.53937217829517
  H   0.28324248924896     -1.60103671335209     -1.33109340177175
  N   -1.42991713032223     -0.36241823271225      1.00537840855662
  O   -1.21698518270809     -0.01839946559130      2.16276613089951
  O   -2.10591527516900     -1.30829228644153      0.62568194852571
  N   -1.59578867457880      0.40512255718221     -1.27220997591420
  O   -2.49017610411225      1.24318085437501     -1.33302787609105
  O   -1.37700987150111     -0.48822027682199     -2.08238638966632
