17
Coordinates from ORCA-job run
  C   0.73924866341835     -0.11215477629633     -0.41512205178349
  C   -0.81020379056917     -0.09661968851610     -0.37019312487813
  Br  1.17630872168565      0.79885182861363     -2.10777603171430
  H   -1.21350675151985     -0.78241836879867     -1.11663497147283
  C   1.40636838543303      0.61740074879141      0.73566608467508
  H   2.48293169251676      0.58577599479571      0.57135761123298
  H   1.07209207403215      1.64884727606564      0.80933543624626
  H   1.18503737697632      0.10103420002292      1.67397436213569
  N   1.28503337523143     -1.43695521896960     -0.52526072283954
  H   0.91092023157284     -1.93632734744900     -1.32367701058274
  H   1.08866683171954     -1.95729101804441      0.32135240742452
  N   -1.44976265158888      1.23088643609067     -0.63625806933499
  O   -1.10317545748974      2.17009979844619      0.06982329018593
  O   -2.27797317930684      1.25457856936786     -1.54139301526419
  N   -1.35692544297553     -0.56489352956583      0.96883662520363
  O   -2.35085967150102      0.00097314921599      1.40202863994839
  O   -0.78520040763504     -1.52078805377010      1.48294054081768
