17
Coordinates from ORCA-job run
  C   0.71069351201498      0.02818413635581     -0.19504077816409
  C   -0.73986207022663      0.48763714704190     -0.06329393269416
  Br  1.41626131825690      1.26007580021344     -1.68474677246050
  H   -0.79952049800637      1.52382409011437      0.26070425390974
  C   1.52819824791864      0.39876723986948      1.03139275530576
  H   2.58178697121824      0.19738957040562      0.82862835686095
  H   1.20613372518567     -0.20366861243155      1.88157858805311
  H   1.42564312658647      1.45588927510311      1.27382636005660
  N   0.80558298236987     -1.33820671721435     -0.46857084351138
  H   0.30346456950459     -1.62294977824751     -1.29844853572154
  H   1.76121958366297     -1.66699602342632     -0.47950143753649
  N   -1.45061372534171     -0.34310063324329      0.98265285438630
  O   -2.12281318509486     -1.29218899460507      0.60429996769467
  O   -1.25856465466243      0.01783791934178      2.13843617004312
  N   -1.56933607290351      0.38837330633155     -1.30961776273719
  O   -2.46065831649336      1.22690590780666     -1.40081525821333
  O   -1.33661551398947     -0.51777363341565     -2.10148398527156
