17
Coordinates from ORCA-job run
  C   0.66527578211713     -0.16354198238521     -0.43082355627146
  C   -0.86825365214894     -0.18477827218616     -0.40102908100916
  Br  1.11596592542440      0.32694762465775     -2.28181016632807
  H   -1.25131703099457     -0.79427268731960     -1.21587964713752
  C   1.34318617227358      0.83990435317874      0.48943859682239
  H   1.06430595848292      1.86778401737723      0.26104854615166
  H   1.07864369968991      0.62475193731035      1.52500536732297
  H   2.42312465125137      0.73878320826701      0.36684740032311
  N   1.06050674287447     -1.55179657137201     -0.25854138920695
  H   1.14567972849372     -1.74538464739893      0.73369750061131
  H   1.95647633804962     -1.71435278235905     -0.70065108225076
  N   -1.49700107375823      1.17240868194759     -0.50531566217800
  O   -1.97860800342369      1.47445027646005     -1.59096169562741
  O   -1.46625919633634      1.86440963277399      0.50964179018900
  N   -1.44126267634869     -0.77737316591576      0.86350719833082
  O   -0.71225791539835     -0.94351242726871      1.83567769389831
  O   -2.63820545024836     -1.03342719576728      0.80014818635976
