17
Coordinates from ORCA-job run
  C   0.76380408312403     -0.10349276060377     -0.39334524344200
  C   -0.77512406372316     -0.19116146379074     -0.42121139127581
  Br  1.22297036232478      0.49976894750825     -2.21741721303595
  H   -1.11365134584591     -0.82661028129502     -1.23925310459470
  C   1.34978432158103      0.88853125299810      0.59440876744455
  H   2.43432483694860      0.84626642974373      0.49448756440700
  H   1.01095198263507      1.90347719502873      0.39997121226653
  H   1.07031234999336      0.61389868350136      1.61199080557283
  N   1.37308504131539     -1.39173673864832     -0.21881304027550
  H   1.25211172303370     -1.70859666815449      0.73528896175163
  H   1.02013384815007     -2.08285156097576     -0.86965718219414
  N   -1.47680089496091      1.12660380688055     -0.58364194189191
  O   -1.46809621582954      1.86493894544178      0.39803886298916
  O   -1.99519291822765      1.34789123199577     -1.67122160369781
  N   -1.39033493265985     -0.78359848303466      0.83105577147073
  O   -0.68198598433075     -1.01648575546564      1.80451299775954
  O   -2.59629219352822     -0.98684278112989      0.74580577674587
