17
Coordinates from ORCA-job run
  C   0.74825562450620     -0.09244200155697     -0.40952982425214
  C   -0.80116381776682     -0.08974017837740     -0.42219386438361
  Br  1.24949566566503      0.79455998361104     -2.09351814047178
  H   -1.17736240389305     -0.77381735628725     -1.18081682115261
  C   1.35785218355653      0.63979134567020      0.77028730568515
  H   2.44151093400882      0.61201346444262      0.66048204107940
  H   1.09348002669465      0.12384831961003      1.69969154018748
  H   1.01309273760114      1.66793669361571      0.83063404524309
  N   1.29301951687065     -1.41905128730226     -0.47322698219125
  H   1.11589439241879     -1.91889552722601      0.39058196774949
  H   0.91312330040618     -1.95148905020842     -1.24706308429617
  N   -1.48373222366180      1.22096942067314     -0.67646404143430
  O   -1.01131728479151      2.23667146412156     -0.18369440655446
  O   -2.50552217727346      1.14080937725223     -1.35568122680863
  N   -1.30930853541104     -0.59642828893966      0.90523120640983
  O   -1.20109611946188     -1.80906061889128      1.06731737583528
  O   -1.73522181946845      0.21532423979268      1.71696290935520
