12
Coordinates from ORCA-job run
  C   -0.22748888891506      0.40181363853129      0.06240690113484
  C   0.87535288591270     -0.37904721628104     -0.12823345037817
  C   -0.07516522870731      1.82293642294691     -0.00082258967935
  N   0.00413258650167      2.99784200511701     -0.04346593800097
  C   -1.60119572228142     -0.12833811131932      0.33641994490803
  H   -1.61094974837301     -1.21778276355480      0.36675209609780
  H   -2.29116210358958      0.21546670042182     -0.43909794941600
  H   -1.96351242896374      0.26034081559459      1.29202190300122
  C   2.16683349089414      0.18123667246358     -0.38742234528156
  N   3.23246448350859      0.63290165198006     -0.60200523342556
  C   0.78535361156417     -1.80701712779647     -0.07406041818970
  N   0.70533706244884     -2.98035268810364     -0.02649292077057
