12
Coordinates from ORCA-job run
  C   -0.23554003813753      0.39810977518315      0.05246526344181
  C   0.88419872305399     -0.36430778512782     -0.11241041582324
  C   -0.11057874774150      1.82055704242670     -0.03630782790908
  N   -0.05442810645716      2.99578569998780     -0.10111533245359
  C   -1.60108077385621     -0.15394999864601      0.32347453315486
  H   -2.29129493881847      0.16249194272282     -0.46312890051334
  H   -1.97918262064061      0.24296978126877      1.26958567159317
  H   -1.58990663635190     -1.24272730041309      0.37150482464606
  C   2.16738800474399      0.21595404148958     -0.36913141682050
  N   3.22704325430221      0.68286927229676     -0.58075273675462
  C   0.82122821366100     -1.79252263491815     -0.03280856679025
  N   0.76315366624221     -2.96622983627053      0.03362490422872
