12
Coordinates from ORCA-job run
  C   -0.23131687036931      0.39802429574485      0.07574828944191
  C   0.88153027035053     -0.36493768420839     -0.12795155109420
  C   -0.09306317111658      1.82197061047081      0.06445500286959
  N   -0.02704661305660      2.99852972666550      0.06380879302959
  C   -1.60333515181071     -0.15420101401475      0.31126156178692
  H   -1.98334281989382      0.19765739994977      1.27415856434209
  H   -2.28555595296305      0.20969738455988     -0.46186180862403
  H   -1.60279303833719     -1.24424548751006      0.30356285703511
  C   2.17068872225483      0.21652712195201     -0.35051684425871
  N   3.23495069754206      0.68485395378346     -0.53441645969424
  C   0.80467959014607     -1.79443342675130     -0.13081290634936
  N   0.73560433725378     -2.96944288064179     -0.13243549848468
