12
Coordinates from ORCA-job run
  C   -0.23164088329851      0.39914489051820      0.05610119602262
  C   0.88441966861202     -0.37199348547899     -0.09253783073110
  C   -0.08757518944651      1.82189187675445      0.01058383829681
  N   -0.01560047920561      2.99764360606367     -0.01963299784219
  C   -1.61199291879770     -0.14252892102565      0.26594667830390
  H   -2.01885214390902      0.23737544035583      1.20695315048483
  H   -2.27004189346635      0.20196532215519     -0.53655285638108
  H   -1.61522316021413     -1.23223945490238      0.28878599600837
  C   2.18122177235948      0.20091334528769     -0.29044759931904
  N   3.25100089916765      0.66425263188951     -0.45301354671929
  C   0.80332508828296     -1.80101837451199     -0.05566638337300
  N   0.73095923991572     -2.97540687710552     -0.02451964475083
