12
Coordinates from ORCA-job run
  C   -0.24132654772088      0.39470555129729      0.02696032100922
  C   0.90021257941127     -0.35306051033046      0.01406432256394
  C   -0.12267510482619      1.81951738456096     -0.02501031477406
  N   -0.07017781450124      2.99590594108136     -0.06807237670946
  C   -1.62462633357742     -0.17601936276482      0.08984212580373
  H   -1.60671073030378     -1.26514161723543      0.13040211872777
  H   -2.19459571221612      0.14074345323031     -0.78809430227833
  H   -2.14367967327005      0.20756573731666      0.97256236645404
  C   0.84461909474994     -1.78284462041487      0.06446300801172
  N   0.79099726252783     -2.95789983345619      0.10751661524480
  C   2.19871603918444      0.24539136289129     -0.05356207246329
  N   3.26924694054220      0.73113651382390     -0.11507181159008
