12
Coordinates from ORCA-job run
  C   -0.23129399345957      0.40076952216078      0.03349096716867
  C   0.89043258848590     -0.37615148120848      0.05013677708765
  C   -0.07617051880027      1.82235764409462      0.07581909533723
  N   0.00423016373306      2.99758509857688      0.10785818108468
  C   -1.62894729539456     -0.13384896921216     -0.02867155325214
  H   -1.63996476272522     -1.22343446237181     -0.05726137541238
  H   -2.13289715504802      0.25335602336454     -0.91848466142075
  H   -2.19474950927027      0.20804007413006      0.84221330996180
  C   0.79903969700497     -1.80438053426129      0.00751912458082
  N   0.71835187863371     -2.97802974412747     -0.02919764274939
  C   2.20413308369520      0.18902521195984      0.10999807296246
  N   3.28783582314506      0.64571161689448      0.16057970465134
