12
Coordinates from ORCA-job run
  C   -0.22846459958813      0.40228380779114      0.02849264354301
  C   0.88310775432637     -0.38501717864361     -0.05413387234656
  C   -0.07081717233179      1.81872719251053     -0.09689553189003
  N   0.01208387947078      2.99022982747067     -0.19326201297037
  C   -1.61705122859467     -0.11570769774834      0.24367027072295
  H   -2.03580455597106      0.31735133713101      1.15621415494242
  H   -1.63072147014888     -1.20255568193071      0.32479358072656
  H   -2.25856024490352      0.19032211122961     -0.58722079769053
  C   0.78868452881501     -1.80862832109898      0.06586364541767
  N   0.70533324310351     -2.97840722453234      0.16599035532033
  C   2.18853249084457      0.16409686446849     -0.26242173027491
  N   3.26567737497780      0.60630496335254     -0.43509070550053
