12
Coordinates from ORCA-job run
  C   -0.24597851380931      0.28300312229223      0.30140839046709
  C   0.82398619354015     -0.50360312405001     -0.01262612040551
  C   -0.25367699029681      0.94922548123995      1.56739295381248
  N   -0.30204498483877      1.51734444860934      2.59862218620569
  C   -1.42516586226437      0.50294117867334     -0.59536476525017
  H   -1.52924426185588      1.56921307028760     -0.81398169340283
  H   -2.33961493675351      0.18172240865225     -0.08919342437242
  H   -1.32356015418722     -0.04571351043363     -1.53169642590219
  C   0.88877137690624     -1.19439494067660     -1.26511302860206
  N   0.93789673459868     -1.75880139897974     -2.29678766644816
  C   1.92756279199701     -0.67743946723878      0.88232346557450
  N   2.84106860696379     -0.82449726837596      1.61001612832356
