12
Coordinates from ORCA-job run
  C   -0.18703000461846      0.32928892139755      0.29545451874420
  C   0.75920164417977     -0.59477316598925     -0.04091513926124
  C   -0.00702625178725      1.08122141070019      1.49927256235390
  N   0.10061933906708      1.72385157044344      2.48107940304787
  C   -1.41427618285987      0.61545049777998     -0.51353018344030
  H   -1.42625221781319      1.66830263645663     -0.80790949146134
  H   -2.30613542557698      0.43561631196227      0.09298332323978
  H   -1.45839598302140     -0.00648828992991     -1.40748987940716
  C   0.63431997023282     -1.37630675100940     -1.23402586345675
  N   0.52593090571847     -2.01454944388828     -2.21704077649511
  C   1.91370316594143     -0.82963651657724      0.77246588088832
  N   2.86534104053758     -1.02997718134599      1.43565564524785
