12
Coordinates from ORCA-job run
  C   -0.23613996474850      0.39777255977575     -0.00119009488349
  C   0.89340092828827     -0.36373337689353      0.07927122948177
  C   -0.09406066373545      1.81818240435440     -0.09288006771477
  N   -0.02213750393668      2.99194418575438     -0.16912043254519
  C   -1.62847088597572     -0.15357159069135     -0.00205848988935
  H   -2.13776041806621      0.13533025939386     -0.92565637784512
  H   -1.62885487044166     -1.24033530892491      0.08089508697338
  H   -2.19617734380114      0.27108562571458      0.83034341548564
  C   0.81564329457848     -1.79037019338088      0.17611663967520
  N   0.74792235541759     -2.96304164490897      0.25352449296182
  C   2.20239783980852      0.21542242510050      0.06921978493132
  N   3.28323723261250      0.68131465470618      0.05653481336879
