12
Coordinates from ORCA-job run
  C   -0.23914539511537      0.39630471308388      0.04166277429340
  C   0.89326429989026     -0.35807912270108     -0.06161986780056
  C   -0.11907308756657      1.81984468867699     -0.03426285375056
  N   -0.06710619408159      2.99572927010499     -0.08988622447311
  C   -1.61434371230381     -0.16565326560982      0.23202336571783
  H   -2.25972905101910      0.15045338216089     -0.59209293744612
  H   -2.04879821095844      0.22514374506865      1.15627855721131
  H   -1.59893456830015     -1.25458939995013      0.27658110599193
  C   2.18462122308900      0.23188074667927     -0.24514977510039
  N   3.25086297781922      0.70670661917424     -0.39775873518081
  C   0.83618654896171     -1.78711660190683      0.00619869886273
  N   0.78319516958481     -2.96162477478105      0.06202589167435
