12
Coordinates from ORCA-job run
  C   -0.22656139413283      0.40016896142543      0.07649713748562
  C   0.86769666461013     -0.37516081054895     -0.17589118162619
  C   -0.08446507869900      1.82222944550644      0.00954925790603
  N   -0.01456158917794      2.99766162354925     -0.03450553395499
  C   -1.58111067142323     -0.13638800524036      0.42336589481227
  H   -1.58508082990615     -1.22593468926783      0.45142524412830
  H   -2.31308331219250      0.20667335466010     -0.31311748981055
  H   -1.89308149834046      0.24909625106508      1.39781806606188
  C   2.14024625196359      0.19226959879659     -0.50452118650442
  N   3.19081446158907      0.64951433465888     -0.77458780934864
  C   0.78664490903295     -1.80364758306119     -0.12353977878851
  N   0.71354208667635     -2.97748248154343     -0.07749262036082
