12
Coordinates from ORCA-job run
  C   -0.23373203453910      0.40017768636688      0.03864192479080
  C   0.89187116711076     -0.36990159973124     -0.00885338957828
  C   -0.08627011098575      1.82316795250262      0.03145382299757
  N   -0.01142473834752      2.99916176878332      0.02759693488794
  C   -1.62767732504222     -0.14400879987862      0.09983310213132
  H   -2.20289521766588      0.21594628771491     -0.75762353162465
  H   -2.12636855591885      0.21774807594823      1.00321373647277
  H   -1.63207314104675     -1.23398611890810      0.10111260561586
  C   0.80747518884259     -1.79928523615506     -0.00233204865606
  N   0.73239630659017     -2.97386221195305      0.00438984019343
  C   2.20252767032364      0.20258021901129     -0.06688410748903
  N   3.28517079067890      0.66226197629883     -0.11554888974166
