12
Coordinates from ORCA-job run
  C   -0.23333955885826      0.39959632958983      0.03901658337503
  C   0.88802943428516     -0.37123215395434     -0.06241007762499
  C   -0.09302949583778      1.82093052698896     -0.04397958243994
  N   -0.02412468105124      2.99568727867008     -0.10628200735467
  C   -1.61604477410161     -0.14158971693087      0.23479302861240
  H   -1.61556773443160     -1.23016400193217      0.29058421280262
  H   -2.25685291294672      0.17466099770862     -0.59293272661769
  H   -2.04577396830204      0.26490261011094      1.15435284534838
  C   0.81053058499755     -1.79864091037664      0.01746215943284
  N   0.74098939946338     -2.97158909205495      0.08665202890491
  C   2.18690580499097      0.19921116894885     -0.25244119865787
  N   3.25927790179218      0.65822696323168     -0.40981526578101
