12
Coordinates from ORCA-job run
  C   -0.24056531889420      0.39481036933471      0.00311822974886
  C   0.89930698911491     -0.35486984119493      0.03558118062680
  C   -0.11849420842238      1.81519925447312     -0.11673822654619
  N   -0.06494979967501      2.98821262232841     -0.21505555554564
  C   -1.62551266927593     -0.16924388960755      0.08520764257921
  H   -2.19187968491334      0.11045560510326     -0.80732856889854
  H   -2.14617901528250      0.25369435834370      0.94872731926149
  H   -1.61073360114314     -1.25555309248179      0.17332432083879
  C   0.84019411867483     -1.78055147067439      0.15425747839650
  N   0.78510520889173     -2.95223128295802      0.25170664354338
  C   2.20017469666325      0.23677905683339     -0.04625818987572
  N   3.27453328426179      0.71329831050008     -0.11254227412893
