12
Coordinates from ORCA-job run
  C   -0.23578184071976      0.39811610513947      0.05240513256610
  C   0.88973153722933     -0.36370458065847     -0.07156461853525
  C   -0.10087645060384      1.82206096146276      0.02183415521882
  N   -0.03391560171802      2.99843849677133      0.00498257338529
  C   -1.61678840538010     -0.15645882337517      0.22131087469561
  H   -2.25722572651041      0.19252671156826     -0.59329817238871
  H   -1.61187906230696     -1.24640887305536      0.23057848775946
  H   -2.04948335002116      0.20819952118138      1.15698274568392
  C   2.18725123114258      0.21922383587938     -0.23137084463808
  N   3.25774734145332      0.69002074098103     -0.36550514170898
  C   0.81827773033063     -1.79348982058351     -0.04609076184597
  N   0.75294259710439     -2.96852427531107     -0.02426443019219
