12
Coordinates from ORCA-job run
  C   -0.23844044171328      0.39573915562346      0.05947951054036
  C   0.88656782926442     -0.35543984624343     -0.12046002951099
  C   -0.12561296705595      1.82004048678794     -0.01383727950277
  N   -0.07950061317004      2.99635426033286     -0.06580652881296
  C   -1.59835826613799     -0.17023848884058      0.33030946498459
  H   -1.57852077162477     -1.25942552062629      0.36687216399587
  H   -1.97500861971350      0.21353991683250      1.28241941126928
  H   -2.29448396372584      0.14999758965567     -0.44963129251209
  C   2.16358982625181      0.23819268468059     -0.37680990539111
  N   3.21822924648183      0.71614876110997     -0.58887551208515
  C   0.83549489927900     -1.78500589777975     -0.05925702527552
  N   0.78704384186430     -2.95990310153293     -0.00840297769952
