12
Coordinates from ORCA-job run
  C   -0.23033940587389      0.40198838836225      0.02427491305784
  C   0.88639266843523     -0.38088958659648     -0.02546991648273
  C   -0.07281132381067      1.81984490369811     -0.08515051811781
  N   0.01173357123227      2.99173022494174     -0.17369667548955
  C   -1.62376228696125     -0.12254573217372      0.18573089255417
  H   -2.07648848388092      0.30273798278856      1.08560683235388
  H   -1.63572221306822     -1.20997719561741      0.25948829870570
  H   -2.23632564249633      0.18593477398837     -0.66581656200084
  C   0.79206383427097     -1.80633014943791      0.07167345703526
  N   0.70787930782967     -2.97776082664502      0.14873521867472
  C   2.19717594256131      0.17447378111718     -0.17573809388122
  N   3.28020403176184      0.62079343557432     -0.29263784640941
