12
Coordinates from ORCA-job run
  C   -0.22081693890903      0.28873129810940      0.31604408797035
  C   0.77882551864450     -0.56858713308636     -0.04139160492774
  C   -0.17026486069424      0.89204684614784      1.61232272144586
  N   -0.16867735334947      1.41416562533362      2.66870022009377
  C   -1.37937530335083      0.64892794709169     -0.56197659544070
  H   -1.39397144955148      1.72927056176602     -0.72992406344625
  H   -2.31637542859504      0.38235159711381     -0.06550351301250
  H   -1.32656184644149      0.13842292851868     -1.52353921129486
  C   0.78421800050822     -1.19907527689309     -1.32683071678746
  N   0.78343392581730     -1.71374016508080     -2.38533622734468
  C   1.86509571150627     -0.87749117015461      0.83818085822748
  N   2.76347002441529     -1.13702305886620      1.55325404451673
