12
Coordinates from ORCA-job run
  C   -0.22870284678651      0.29633833743734      0.30207642243793
  C   0.80755545425229     -0.52846019525616     -0.02692801516261
  C   -0.17978349208492      0.98490991460482      1.55526700809164
  N   -0.18145911931277      1.57152345247808      2.57722668876767
  C   -1.42603035052012      0.53599261125619     -0.56503610220234
  H   -1.50383839550655      1.60057408281461     -0.80213877451278
  H   -2.33468979807598      0.25372097960207     -0.02627167949760
  H   -1.36862771331142     -0.03341388581751     -1.49272877569038
  C   1.92912508414964     -0.72183769924942      0.84127442501819
  N   2.85543460246622     -0.88751816174684      1.54857067213246
  C   0.81483299285117     -1.24350953929901     -1.26740198969956
  N   0.81518358187894     -1.82831989682417     -2.28890987968261
