12
Coordinates from ORCA-job run
  C   -0.22803191999662      0.40267678076648      0.02436383601085
  C   0.88858801865086     -0.38170908416903      0.03076959842736
  C   -0.06333411483714      1.82290879300588     -0.02903421958449
  N   0.02171181785606      2.99719093588853     -0.07904053648634
  C   -1.63022429765890     -0.12223377743814      0.06392429580909
  H   -2.14996998702330      0.27803643702559      0.93865677492096
  H   -2.17564478501732      0.21315087799748     -0.82241865797774
  H   -1.64856134707848     -1.21129363461254      0.10409590379431
  C   0.78629891774096     -1.80937465958585      0.07139424242100
  N   0.69433667678875     -2.98241973174526      0.09788122064196
  C   2.20741261249070      0.17364218229891     -0.00768500927107
  N   3.29641840808442      0.61942488056795     -0.03790744870589
