12
Coordinates from ORCA-job run
  C   -0.21871717294831      0.29171296083613      0.31524838063307
  C   0.79285263889561     -0.54816872163903     -0.05022576401871
  C   -0.15746504609752      0.91467281333340      1.60163441478084
  N   -0.14944735388271      1.45063259988725      2.65093946557528
  C   -1.40584670369843      0.60797764654816     -0.54166265854213
  H   -1.45560512263974      1.68509797145026     -0.72276127986314
  H   -2.32284726042078      0.32052440850534     -0.02000159417332
  H   -1.36097283229499      0.08459685556868     -1.49714518716597
  C   1.90474350140748     -0.81942572867111      0.80950526071010
  N   2.82304956723365     -1.05240654857771      1.50807840519105
  C   0.78285704927000     -1.20009713057919     -1.32512575032449
  N   0.76639873517575     -1.73511712666218     -2.37348369280257
