19

C	0.0	0.0	0.0
C	-0.499663	-0.100374	-1.446016
F	1.406294	0.0	0.0
H	-1.527696	0.279734	-1.43521
C	-0.440261	1.324412	0.592348
H	0.021846	1.456369	1.57561
H	-1.528235	1.327244	0.690942
H	-0.127123	2.137023	-0.064688
C	-0.447022	-1.16609	0.85595
H	-0.119385	-1.003821	1.886074
H	-0.000744	-2.091443	0.486427
H	-1.539184	-1.226552	0.839584
N	-0.455191	-1.496289	-1.927113
H	-1.192378	-2.004421	-1.442782
H	-0.749908	-1.470258	-2.899408
N	0.306691	0.774348	-2.279301
H	1.223379	0.348716	-2.370926
H	-0.110053	0.834599	-3.202063
Cl	-3.888172	0.0	0.0
