19

C	0.0	0.0	0.0
C	-0.436606	-0.082578	-1.467498
F	1.418959	0.0	0.0
H	-1.525269	0.029883	-1.469808
C	-0.457432	1.294914	0.634376
H	-0.081835	1.355232	1.660526
H	-0.092077	2.144868	0.05946
H	-1.550376	1.30535	0.646291
C	-0.461222	-1.192457	0.806214
H	-0.137699	-1.080623	1.844489
H	-1.554005	-1.231155	0.773117
H	-0.040282	-2.120983	0.415074
N	-0.123136	-1.362771	-2.119065
H	-0.798694	-2.06002	-1.824436
H	0.793423	-1.6717	-1.807103
N	0.1604	1.033102	-2.192368
H	-0.072253	0.897	-3.169762
H	1.168916	0.943942	-2.112655
Cl	-3.887339	0.0	0.0
