19

C	0.0	0.0	0.0
C	-0.36935	-0.220996	-1.49646
F	1.413208	0.0	0.0
H	-0.249346	0.767546	-1.979378
C	-0.487813	1.336233	0.506557
H	-1.580104	1.364979	0.460141
H	-0.076984	2.144154	-0.104649
H	-0.176216	1.487756	1.544044
C	-0.444754	-1.143415	0.884346
H	-0.014898	-1.016177	1.882634
H	-0.102679	-2.096422	0.475244
H	-1.53312	-1.166668	0.95588
N	-1.677708	-0.805011	-1.624935
H	-2.411908	-0.388302	-1.049731
H	-1.97475	-0.746349	-2.590209
N	0.535044	-1.122003	-2.212305
H	0.311706	-2.059563	-1.89579
H	1.4906	-0.912823	-1.951819
Cl	-4.352704	0.0	0.0
