19

C	0.0	0.0	0.0
C	-0.366955	0.157558	-1.506077
F	1.414894	0.0	0.0
H	-0.255241	-0.852172	-1.944701
C	-0.442007	1.181033	0.835292
H	-1.530256	1.207966	0.907333
H	-0.099673	2.115316	0.385756
H	-0.011393	1.094894	1.837634
C	-0.485584	-1.314019	0.563556
H	-1.578231	-1.345551	0.524645
H	-0.078241	-2.145975	-0.017267
H	-0.167349	-1.423685	1.604153
N	0.544599	1.018498	-2.26038
H	0.33118	1.970862	-1.983356
H	1.498724	0.811646	-1.992759
N	-1.670765	0.745582	-1.66231
H	-2.408464	0.359388	-1.070786
H	-1.96636	0.648593	-2.625134
Cl	-4.346089	0.0	0.0
