19

C	0.0	0.0	0.0
C	-0.413162	0.019293	-1.487472
F	1.407354	0.0	0.0
H	-1.455341	0.35426	-1.545492
C	-0.360153	1.287883	0.723912
H	0.097835	1.258691	1.716644
H	0.085005	2.130373	0.186688
H	-1.436281	1.440226	0.821683
C	-0.358182	-1.26926	0.754192
H	-1.426124	-1.491888	0.764722
H	-0.008526	-1.165406	1.785535
H	0.196673	-2.086393	0.290653
N	-0.218183	-1.314613	-2.062518
H	-0.310289	-1.194903	-3.065072
H	-0.984339	-1.906734	-1.757517
N	0.404571	0.926187	-2.287939
H	1.359151	0.845877	-1.959908
H	0.10567	1.880162	-2.134989
Cl	-3.839966	0.0	0.0
