19

C	0.0	0.0	0.0
C	-0.527698	0.113918	-1.434197
F	1.39239	0.0	0.0
H	-1.623911	0.117174	-1.340787
C	-0.465721	1.188142	0.820408
H	-0.025279	2.108901	0.43117
H	-0.135673	1.071453	1.856398
H	-1.557422	1.238418	0.796343
C	-0.467619	-1.300232	0.626507
H	-0.156543	-1.334712	1.674292
H	-1.558663	-1.352644	0.577217
H	-0.012514	-2.15053	0.113546
N	-0.060833	-1.020441	-2.242998
H	-0.608892	-1.827383	-1.964034
H	-0.33132	-0.840758	-3.206196
N	-0.037716	1.347606	-2.063892
H	-0.606538	2.10908	-1.708868
H	-0.252794	1.29633	-3.055116
Cl	-3.964387	0.0	0.0
