12
Coordinates from ORCA-job run
  C   -0.40191806829703     -0.06395535729874      0.08369372559324
  C   0.66844180888173     -0.53321619675061     -0.58774246366467
  H   0.64703342517003     -1.53214452400854     -1.01713354574728
  N   -0.33984656307934      1.22825067617062      0.68857267105857
  H   -1.20631269479271      1.72079204052506      0.50687333796711
  H   -0.21771497845492      1.16175186779282      1.69251632583042
  N   -1.67421686008816     -0.69591725650906      0.09838769022266
  H   -1.68758352272798     -1.52892264628381     -0.47584423608588
  H   -1.97199814863975     -0.92755628933239      1.03932535180232
  N   1.79529872042622      0.24478528489630     -0.91329404211069
  H   2.66467349606973     -0.21238444560927     -0.67628669436868
  H   1.72514338553220      1.13751684640764     -0.44106812049711
