12
Coordinates from ORCA-job run
  C   -0.47576481007431     -0.09762294873170      0.21233342457180
  C   0.59756520133200     -0.46985531714965     -0.51970903821613
  H   0.64728442943956     -1.47002703322095     -0.94973827792867
  N   -0.52337920307736      1.09616792994119      0.93105917205467
  H   0.27547940694774      1.66421289978011      0.67611906228976
  H   -1.39681027618274      1.58338696912125      0.78177274745828
  N   -1.65101709760933     -0.85056192676118      0.33925144278814
  H   -1.92457679282094     -0.94483907094763      1.30833808376661
  H   -1.57847827553918     -1.75510493012549     -0.10355415263985
  N   1.66480196487902      0.47356512320602     -0.70042503703721
  H   1.84039680972636      0.63930358414204     -1.68374978334614
  H   2.52549864297919      0.13237472074601     -0.29069764376124
