12
Coordinates from ORCA-job run
  C   -0.50802536186034     -0.10806266587459      0.09447750150348
  C   0.60678518739212     -0.45702760847639     -0.58637316853171
  H   0.64742426799100     -1.41160161776367     -1.10852199029664
  N   -0.70656604859208      1.18361509517021      0.59145377142918
  H   -0.95902021081211      1.18588735333368      1.57149431038645
  H   0.14146212617046      1.71682130903935      0.43608886563124
  N   -1.60075009339521     -0.96945351258190      0.24903797228908
  H   -1.35930231155909     -1.89855118710055      0.54993894844192
  H   -2.36290470093490     -0.57226670710426      0.77303942889664
  N   1.68991295602455      0.48485537960412     -0.65571097696902
  H   2.54766577795569      0.08011384404336     -0.30118879302874
  H   1.86231841161989      0.76467031771063     -1.61373586975188
