12
Coordinates from ORCA-job run
  C   -0.34457418359361      0.18763177429773      0.13711730258484
  C   0.75635086671038      0.33489846005583     -0.62641103982558
  H   0.83855292136406      1.17956661308525     -1.30649136286108
  N   -0.46191251726492     -0.95422277992167      0.98655027451751
  H   -1.10070830970537     -1.64003935142521      0.60094552380077
  H   -0.81737607465645     -0.66143394987870      1.88889079046986
  N   -1.34547480389739      1.18341925759116      0.29438467439735
  H   -1.12174968985121      2.02594014687359     -0.21949367718245
  H   -2.26070934833341      0.84904933665922      0.01451176222869
  N   1.90968621450667     -0.46269905924919     -0.50458806192231
  H   2.23392889942457     -0.81592115849512     -1.39402732107674
  H   1.71398602529668     -1.22718928959290      0.12961113486913
