12
Coordinates from ORCA-job run
  C   -0.47365996545900      0.21205990054988      0.10980761725189
  C   0.80332157398022      0.31625854969605     -0.32014356460562
  H   1.19028435539727      1.27545335873524     -0.66364782516610
  N   -1.33244968316543      1.29943217002762      0.32128109364517
  H   -0.92410246218739      2.17490194396534      0.02718428947637
  H   -2.22780456259458      1.15230504645655     -0.12560218933614
  N   -1.07857465252065     -1.01191270382897      0.39136847849712
  H   -0.37254521430635     -1.73791156975778      0.37576287181936
  H   -1.57660195476222     -0.98633561563026      1.27099029599346
  N   1.62147816621547     -0.86367599440736     -0.33168167682822
  H   1.90826339710764     -1.09831985495990     -1.27394581825078
  H   2.46139100229502     -0.72925523084641      0.21762642750349
