12
Coordinates from ORCA-job run
  C   -0.38615969246008      0.31116005272120      0.18119107074769
  C   0.75159268082912      0.24007483966751     -0.54583226758767
  H   1.04836171737383      1.07994971263192     -1.17202166305686
  N   -0.70379933906177     -0.62978011523358      1.16576230391636
  H   -1.63464626081260     -1.00971741885687      1.04961267626678
  H   -0.00773882973481     -1.36617607950863      1.13562214380132
  N   -1.27302312745800      1.39057221854544      0.09595635622156
  H   -1.51308096895986      1.66089815166479     -0.84280083038382
  H   -2.07405285420241      1.31051140745072      0.70017251559003
  N   1.57642821198712     -0.92918218866576     -0.41443603186206
  H   1.72839724995046     -1.37047948954361     -1.31295622398803
  H   2.48572121254903     -0.68783109087313     -0.03927004966530
