12
Coordinates from ORCA-job run
  C   -0.49369935688838     -0.17294516728062      0.07298521808548
  C   0.74374219246851     -0.46822659422987     -0.38498141202574
  H   1.00089243539387     -1.49774129909427     -0.62903645163900
  N   -0.95378643071664      1.14268461666752      0.18789924179290
  H   -1.33167098519795      1.34007892318982      1.10580949758556
  H   -0.18389025133482      1.76633705077749     -0.02674928211578
  N   -1.45202356220913     -1.15431988192691      0.35131818719174
  H   -2.33061616226866     -0.78716168110308      0.67751914640364
  H   -1.11497691169650     -1.92184651278226      0.90746543612859
  N   1.66846911101102      0.60948681341952     -0.60381338793911
  H   1.92522858510648      0.67118677197430     -1.58153247898598
  H   2.52133133633220      0.47146696038837     -0.07588371448231
