12
Coordinates from ORCA-job run
  C   -0.50601234366255     -0.13168834388614      0.07401708273966
  C   0.69028486832144     -0.50698920131289     -0.43227446801406
  H   0.84728123957615     -1.53731982597315     -0.74748037160433
  N   -0.84011338862864      1.20974503313219      0.28454630490630
  H   -1.18370531409203      1.37953900137358      1.22123230040766
  H   -0.01959426887197      1.77360588195495      0.09344648998555
  N   -1.54600301898454     -1.03784666850595      0.31098944285042
  H   -1.27034259982464     -1.87001063208103      0.80445719672918
  H   -2.37933645132628     -0.61550840482621      0.68555438175723
  N   1.70608125153342      0.49485617686361     -0.60392002595519
  H   2.55305585421998      0.24314952486992     -0.10946194943966
  H   1.94740417173965      0.59846745839112     -1.58210638436276
