12
Coordinates from ORCA-job run
  C   -0.49921014106911     -0.10488085527859      0.14428866512396
  C   0.67706692710690     -0.46568516255956     -0.41490633123503
  H   0.80955502894488     -1.47242993985806     -0.81079383168294
  N   -0.67722398292194      1.10189189880064      0.81947175200337
  H   0.13760723419613      1.68469173251970      0.67049636592066
  H   -1.52995873327115      1.56380441752878      0.53313963722878
  N   -1.66404554872552     -0.88415741029994      0.11747437583167
  H   -2.07252681383479     -0.96677257403068      1.03901151286557
  H   -1.50807550811966     -1.79505809319964     -0.28939368164559
  N   1.73835224929036      0.50018302439871     -0.46413143470050
  H   2.05017256094866      0.64866948043446     -1.41596248470003
  H   2.53828672745525      0.18974348154418      0.07330545499008
