12
Coordinates from ORCA-job run
  C   -0.48929738937763      0.18817121891238      0.07850816721742
  C   0.71732028662329      0.23123557114036     -0.52871952018484
  H   0.93844250376558      1.01488667148675     -1.25315837425918
  N   -1.58266417152889      0.99385758946345     -0.26826229817051
  H   -1.34631157187581      1.68260037801797     -0.96781894932757
  H   -1.98864040409693      1.43363319487539      0.54702527201058
  N   -0.77482413802728     -0.67759734665561      1.13339288208267
  H   -1.66216596107575     -1.14371041719986      0.99971572820575
  H   -0.01210483605657     -1.33650142693398      1.23291546502613
  N   1.69198800539091     -0.76725475689001     -0.19006006227905
  H   1.99619955218437     -1.27163343492386     -1.01366205560141
  H   2.51205812407468     -0.34768724129298      0.23012374528001
