12
Coordinates from ORCA-job run
  C   -0.37295197707816      0.18136911425802      0.13020511526804
  C   0.76487119097505      0.33016735574465     -0.57539915667345
  H   0.93456167297246      1.21883319152203     -1.17567404500603
  N   -1.33183077083113      1.20224649222076      0.36161558426732
  H   -2.21377881491292      1.00875626397653     -0.10005363291744
  H   -0.99067450344057      2.10788678430327      0.06813413310523
  N   -0.61187681942903     -1.04553303192235      0.80457637257712
  H   -0.95897318270334     -1.77078875077244      0.19028552805887
  H   -1.25068669376310     -0.90322860891530      1.57469186906336
  N   1.73575491430280     -0.68967302935033     -0.68493859475942
  H   2.67302267153970     -0.31025609547166     -0.68636966668719
  H   1.62456231236824     -1.33077968559317      0.09392649370359
