12
Coordinates from ORCA-job run
  C   -0.38894379627626     -0.10942937311601      0.16051610051610
  C   0.70882459303060     -0.51606118806914     -0.50597641190221
  H   0.76117922681294     -1.51169416146255     -0.93588960943282
  N   -0.46905664464079      1.23802665435561      0.60221178135950
  H   -0.74194967284250      1.87731187518592     -0.13308985364385
  H   -1.10390566936769      1.31279869933956      1.38501686721318
  N   -1.45530487591872     -0.95137146182891      0.57185475408484
  H   -2.31809124327372     -0.74071130941086      0.08233292720069
  H   -1.22827227588683     -1.92888825024885      0.44687260421624
  N   1.78952119884846      0.34529864707031     -0.79725264831188
  H   1.77008558466077      1.12425694883454     -0.14697678316108
  H   2.67591357485376     -0.13653708064963     -0.72961972813871
