12
Coordinates from ORCA-job run
  C   -0.32767052783568      0.23835942518837      0.02177099667440
  C   0.88360749445255      0.32142973783832     -0.55991116790536
  H   1.12094749067909      1.19761210243964     -1.15337010337046
  N   -0.59543532188248     -0.90246102517459      0.85418980397085
  H   -0.46252745116681     -0.68468589577510      1.83615811257236
  H   -1.54936463296832     -1.21963218465529      0.73244033666529
  N   -1.28274340081625      1.28276018172023     -0.18669634326279
  H   -2.09040694243353      0.94270922674084     -0.69634961083891
  H   -1.61160175594709      1.65129090937179      0.69868811192783
  N   1.90613411867823     -0.60515350314965     -0.36282305888310
  H   2.48108022416323     -0.74752052729054     -1.17923674399154
  H   1.52798070507706     -1.47270844725401     -0.00286033355855
