12
Coordinates from ORCA-job run
  C   -0.34802862020516     -0.18589107819966      0.09329027153215
  C   0.84417869353376     -0.57021358291917     -0.40001687110622
  H   0.99271684593109     -1.61292788282341     -0.65860525223629
  N   -1.39831648518064     -1.14777560537138      0.22752377252308
  H   -1.75106321409870     -1.16480150575650      1.17788176414654
  H   -2.17612447359603     -0.92741777162303     -0.38416263942902
  N   -0.50010726625817      1.18816498257482      0.48701876043177
  H   -0.37895381048332      1.30285364740087      1.48780857330542
  H   -1.42166645668814      1.53082042085622      0.24456679362690
  N   1.95079014086394      0.27104310330158     -0.50359311150913
  H   2.52746752426750      0.07729120766515     -1.30815056328210
  H   1.65910712191388      1.23985406489450     -0.46456149800311
