12
Coordinates from ORCA-job run
  C   -0.38585130454396      0.14157189993265      0.05819918943540
  C   0.75758129082390      0.32161178932675     -0.63209577458749
  H   0.91092462921578      1.23191568915567     -1.20710051990757
  N   -0.54788061029695     -1.03849511816370      0.84693431294929
  H   -1.47124655369559     -1.42213257705115      0.68239264984064
  H   -0.46377288821904     -0.83506409477897      1.83644378916011
  N   -1.53479159684980      0.96773914553132     -0.06939985504906
  H   -1.80531613062663      1.37925124080799      0.81680844590869
  H   -1.39689146214294      1.70078789190816     -0.75335359054657
  N   1.74285328662822     -0.67050750186022     -0.79151686940736
  H   2.67373765212653     -0.32719182427713     -0.60057043106097
  H   1.52065368758047     -1.45148654053137     -0.18674134673512
