12
Coordinates from ORCA-job run
  C   -0.38366323847815     -0.25214909994740      0.17772199840700
  C   0.70777891450095     -0.52440604956248     -0.56632441235084
  H   0.78283523520725     -1.50943383299733     -1.01561075316161
  N   -0.53860495495798      0.87828216526566      1.01804607462260
  H   0.32977181726316      1.36320328046811      1.19338638123335
  H   -1.25063132209233      1.52557137179906      0.70304324096468
  N   -1.46348863686975     -1.16859983927581      0.20574715921560
  H   -2.05742308072656     -1.11400241312286     -0.60801104510161
  H   -2.00498072482068     -1.05089595556204      1.05029762159760
  N   1.72091142376811      0.39630656102594     -0.93167335245926
  H   2.63914269076426      0.12025138418531     -0.61081931787502
  H   1.51935187644174      1.33487242772383     -0.61780359509248
