12
Coordinates from ORCA-job run
  C   -0.36086989244185     -0.09423911291066      0.18390807274670
  C   0.69825277070141     -0.59876126913323     -0.47976825164302
  H   0.66769694546636     -1.61696572078191     -0.86066508213233
  N   -1.46605540241096     -0.86773137535985      0.62899370755508
  H   -2.34263668530751     -0.53386076535879      0.24453988956994
  H   -1.35202435351093     -1.84889960911782      0.40962132707216
  N   -0.32647418159167      1.26125643974956      0.63244220023110
  H   -0.69071611313285      1.30732447106352      1.57662139910093
  H   -0.89319980182351      1.86090167287497      0.04394765614678
  N   1.93790658049730      0.05717680514106     -0.59640773827177
  H   1.84627991110883      0.99905975128683     -0.23693686601110
  H   2.28184022244537      0.07273871254630     -1.54629631436447
