12
Coordinates from ORCA-job run
  C   -0.48994671013307     -0.09876370817887      0.17602546387488
  C   0.63188049498168     -0.46568774844750     -0.48234755081798
  H   0.71072906360714     -1.46075890945091     -0.91976313562357
  N   -0.58557575878255      1.08644200405021      0.90420070482112
  H   -1.44494063797609      1.57846048765077      0.69916856412654
  H   0.23057880375048      1.65510421304880      0.71344890214785
  N   -1.67326711399562     -0.84909862225365      0.21030711190914
  H   -2.01430384583567     -0.95411811486253      1.15666204148983
  H   -1.57197306092277     -1.74868393120374     -0.23701158790644
  N   1.71171292013815      0.47636626942809     -0.57431442718203
  H   2.53960950933344      0.12800626068370     -0.10703317917483
  H   1.95849633583488      0.65273179953561     -1.54034290766450
