12
Coordinates from ORCA-job run
  C   -0.47957390664378      0.19563424880216      0.11271289844698
  C   0.66933416891307      0.20391492719568     -0.59899550634629
  H   0.83381582461597      0.95983227306287     -1.36662260002659
  N   -1.59337992152772      0.99953521135294     -0.16585604358499
  H   -1.92331988137742      1.47099243728665      0.66588302159024
  H   -1.41484149042321      1.66149531137487     -0.90716633685070
  N   -0.67701930169857     -0.62871299283164      1.21976608888573
  H   0.08663602713834     -1.29176835346089      1.27507269175362
  H   -1.57594312659773     -1.09036683238563      1.18180403775387
  N   1.66338100630740     -0.79045984635152     -0.30735237973991
  H   1.89318775365565     -1.32767954412504     -1.13427610680687
  H   2.51872284763801     -0.36341683992045      0.02603023492492
