12
Coordinates from ORCA-job run
  C   -0.33945717927117      0.21940562878418      0.03029719785935
  C   0.88196174713662      0.40886287625033     -0.50324096448169
  H   1.09014912783738      1.34116585313734     -1.01674821460199
  N   -1.34015205522466      1.22995429375369     -0.12334078287565
  H   -2.11496363561360      0.89491431184238     -0.68470427819980
  H   -1.71233392659419      1.50777317314361      0.77786358637741
  N   -0.57224614216417     -0.99813602786373      0.75846447879503
  H   -0.48203480896776     -0.85446629398216      1.75885712744075
  H   -1.50479730577021     -1.34992117766721      0.57908975119631
  N   1.94449910851199     -0.47984145834489     -0.34888531558065
  H   1.60153182090558     -1.39132944960017     -0.07183951422874
  H   2.54784324921419     -0.52738172945337     -1.15581307170033
