12
Coordinates from ORCA-job run
  C   -0.39496737103105     -0.22759308242282      0.26658455435533
  C   0.69656517104012     -0.42176773103899     -0.50738646979491
  H   0.89269312200244     -1.40469994823732     -0.93279377908864
  N   -1.35948125076110     -1.21921230258740      0.47810030477914
  H   -1.67754021622425     -1.67875467660148     -0.35829564749313
  H   -2.11214707490027     -0.93624737687727      1.08345998946102
  N   -0.58112629936969      0.93835825005722      1.01616137432593
  H   0.16241963687256      1.58638536119624      0.78166089142419
  H   -1.48790262839341      1.35856131981230      0.85634579150161
  N   1.60873674326165      0.67286498074525     -0.69264811577984
  H   1.73245247397903      0.88198911552598     -1.67556164406596
  H   2.52129769352398      0.44911609042829     -0.31462724962474
