12
Coordinates from ORCA-job run
  C   -0.45692030625088      0.22371649007141      0.14869707634924
  C   0.72322806873520      0.25774518343134     -0.50882121992329
  H   1.02119064659436      1.15269037214990     -1.05466949172433
  N   -0.81797675893134     -0.82012440443072      1.00001725878076
  H   -1.76282928729598     -1.13287207939617      0.82077415487387
  H   -0.14582871698649     -1.57113569020075      0.89885533276471
  N   -1.44510730736452      1.21329508711329      0.05994150873558
  H   -1.14304367667862      2.01306334070320     -0.47727624709225
  H   -1.76595761777620      1.49575777777095      0.97652611771209
  N   1.56785751810045     -0.90248521870340     -0.46194007887396
  H   1.77796992062002     -1.23670361271857     -1.39432167730174
  H   2.44841751723400     -0.69394724579046     -0.00778273430068
