12
Coordinates from ORCA-job run
  C   -0.46805880701845     -0.11085122612636      0.22281398946636
  C   0.68459125008545     -0.49231837994153     -0.37058419847163
  H   0.89495330853536     -1.54950863520152     -0.53107187266811
  N   -1.53225322661514     -0.97274507708666      0.51993929942787
  H   -1.31015364769473     -1.93939570783521      0.33090990618924
  H   -1.84497320623388     -0.85531300343210      1.47454555387612
  N   -0.72013110950915      1.20544067372946      0.60823486574600
  H   0.00467299305730      1.80160771401962      0.22708014593791
  H   -1.64308467167124      1.50372983078176      0.32211243009787
  N   1.61764427955276      0.52260126183871     -0.77193001459547
  H   1.82350835640909      0.45606091275236     -1.76105962226757
  H   2.49328448110263      0.43069163650148     -0.27199048273858
