12
Coordinates from ORCA-job run
  C   -0.42728310838894     -0.20627047100410      0.23070952135236
  C   0.72613606321640     -0.45924640405412     -0.42783302828658
  H   0.92495560483957     -1.45960570779971     -0.80897849001977
  N   -0.64143318984856      0.98367225023968      0.93357416062794
  H   -1.51114902440625      1.43193627922097      0.67473252502463
  H   0.14620002702309      1.59842702454340      0.76203436985354
  N   -1.44651938957712     -1.15585210654376      0.36366882593181
  H   -2.23960952183486     -0.83525398316689      0.89389526365215
  H   -1.70349936529219     -1.61818425152216     -0.49184965738264
  N   1.69398714289701      0.59648459409371     -0.54454225366058
  H   1.92328592351207      0.77486547676497     -1.51449690143721
  H   2.55492883785977      0.34902729922801     -0.07191433565565
