12
Coordinates from ORCA-job run
  C   -0.48988308453181     -0.12855733449104      0.15542303884859
  C   0.74767486572537     -0.46505547091550     -0.27099240254009
  H   1.00544895451824     -1.51170612740831     -0.43175746631117
  N   -0.93684578641070      1.19082998187533      0.21256740078030
  H   -1.39758730060178      1.38826289507563      1.09076617174184
  H   -0.15236927223863      1.81015325033503      0.04861301355448
  N   -1.45955371767982     -1.04548794307145      0.58288708853275
  H   -1.16864828862459     -2.00346135314164      0.45213917635039
  H   -2.35056003381833     -0.87501063640817      0.13586133546196
  N   1.69662349437393      0.58374498150685     -0.51738976617102
  H   1.97182533501607      0.60477046953250     -1.49150682801653
  H   2.53587483427206      0.45151728711078      0.03338923776849
