12
Coordinates from ORCA-job run
  C   -0.45262974667397      0.23926795829307      0.13782571820961
  C   0.68723237245026      0.18024998070143     -0.58575468317304
  H   0.91557331197774      0.95877055497959     -1.31340494105635
  N   -0.88697934808378     -0.80678268314506      0.95090669801737
  H   -1.17726819325311     -0.47291124282509      1.86026859229710
  H   -0.14787768178360     -1.49598868600309      1.01984726807014
  N   -1.32302991518164      1.33771261350280      0.16071970600455
  H   -2.28142962488529      1.04957962194070      0.01425848777561
  H   -1.05797817561031      2.05220655725890     -0.50177181051924
  N   1.56942329464742     -0.93469968760447     -0.38546824949849
  H   2.49733368964272     -0.62255455839603     -0.12722120474912
  H   1.65763001675356     -1.48585042870276     -1.23020558137814
