12
Coordinates from ORCA-job run
  C   -0.46630738956964     -0.14899151734896      0.05225121081187
  C   0.57167934223025     -0.43867051767773     -0.75863471573676
  H   0.46897945845837     -1.28219968234355     -1.43361332587479
  N   -0.59990935638440      1.03605733721457      0.81799429775515
  H   -0.55235348920260      0.88085648923012      1.81744824503360
  H   0.04524273366470      1.76168223847166      0.54017762818461
  N   -1.56690788214029     -1.03630984795848      0.13189072953811
  H   -1.39053731646527     -1.84718685338734      0.70530347102726
  H   -2.39486496892069     -0.54972293443948      0.44425382247178
  N   1.84956085109874      0.17285353691592     -0.72963463916545
  H   1.93818507343191      0.84385118925612      0.01991729690800
  H   2.09823294379890      0.60878056206714     -1.60735402095338
