12
Coordinates from ORCA-job run
  C   -0.46372184080116      0.22591717374312      0.12376393361764
  C   0.69767835268435      0.19805835661133     -0.56676783252909
  H   0.94251350014045      1.00102944573489     -1.26175342053763
  N   -0.75540843042564     -0.67307194228584      1.14869437109910
  H   -1.68927357839763     -1.04974750152871      1.05664950096243
  H   -0.05158386147104     -1.40139892662125      1.15537336473451
  N   -1.49786050180039      1.14556824852551     -0.09815898986805
  H   -1.80505538202767      1.56969234296625      0.76709079544385
  H   -1.24587930725303      1.85136534691754     -0.77487943489001
  N   1.59574024783318     -0.90193507132030     -0.35415897024683
  H   1.79495965208908     -1.38186905738439     -1.22315712619826
  H   2.47789114942949     -0.58360841535816      0.02730380841234
