12
Coordinates from ORCA-job run
  C   -0.33200887682882      0.21318671300976      0.13144208500652
  C   0.65925800028299      0.17781671630587     -0.78119572116955
  H   0.62315109909000      0.83060317712889     -1.65034208595942
  N   -0.29747825869868     -0.68667122503349      1.23963102075213
  H   -0.55150313364823     -0.18465917035062      2.08212443762085
  H   -0.94979997733673     -1.45251286784488      1.11691607435966
  N   -1.34559388060883      1.20775678224046      0.17104516958088
  H   -2.27374632639456      0.80624940385343      0.09942706419465
  H   -1.22053653060945      1.90152597944937     -0.55490629580335
  N   1.84958309988374     -0.55633666227747     -0.62071172033342
  H   2.07400047806685     -1.11483853601307     -1.43237906880355
  H   1.76467430680173     -1.14312031046823      0.19994904055460
