12
Coordinates from ORCA-job run
  C   -0.35028643798383     -0.11421429148771      0.19283470543029
  C   0.61652587677339     -0.51607978723022     -0.65601603740893
  H   0.48752190843787     -1.42631339319881     -1.23711696855765
  N   -1.46639053334229     -0.90992475848181      0.56598388359405
  H   -2.34591110085560     -0.45874640770872      0.34085016401603
  H   -1.43636829318270     -1.82542104121843      0.13595657050668
  N   -0.18975612701671      1.11032779347790      0.90960636361006
  H   -0.47742479107142      0.97164869620714      1.87104138536061
  H   -0.75613348325968      1.85068798051547      0.51188727695242
  N   1.88425330974440      0.08910542454674     -0.74670545035877
  H   1.88459539990845      0.93435269864120     -0.18942104683394
  H   2.14937427184811      0.29457708593725     -1.69990084631087
