12
Coordinates from ORCA-job run
  C   -0.37738010239227     -0.09986050925792      0.14253159177604
  C   0.66938955274848     -0.53149483014555     -0.58869495845123
  H   0.74275524761738     -1.57951679480685     -0.86972950198723
  N   -0.43203308862603      1.26781337344244      0.55039301228683
  H   -0.18908074607951      1.37263108796703      1.52873123969763
  H   -1.37447927823688      1.61517171731173      0.41826323521654
  N   -1.53926748872489     -0.87313551486599      0.40705795262245
  H   -1.49852049894454     -1.77909535313887     -0.04182610903318
  H   -1.69704161109012     -0.99405190993701      1.40115702810841
  N   1.63278624716513      0.32090049806134     -1.16003147992581
  H   1.48588529189585      1.26047745772976     -0.81280583554415
  H   2.57898647466739      0.01916077763989     -0.97404617476632
