12

C	0.0	0.0	0.0
C	-0.217786	-0.63198	-1.386707
F	1.382652	0.0	0.0
H	0.3554	-0.033007	-2.09623
H	-0.372851	-0.621464	0.8036
H	0.202043	-1.63749	-1.346133
C	-0.487026	1.372564	0.130055
N	-0.553783	2.540975	0.256815
N	-1.564325	-0.784024	-1.993698
O	-2.086991	-1.892482	-1.917704
O	-1.962172	0.14227	-2.692681
F	-2.28589	0.0	0.0
