12

C	0.0	0.0	0.0
C	-0.217367	-0.625225	-1.389399
F	1.382548	0.0	0.0
H	0.351518	-0.019771	-2.096766
H	-0.372698	-0.624502	0.800979
H	0.206976	-1.629167	-1.35433
C	-0.486903	1.372396	0.135673
N	-0.555057	2.540286	0.268355
N	-1.564503	-0.781619	-1.99435
O	-2.082495	-1.892375	-1.918068
O	-1.966758	0.142854	-2.693087
F	-2.284096	0.0	0.0
