16
Coordinates from ORCA-job run
  C   0.73099132902247      0.28222936421257     -0.46215487931421
  C   -0.78186931635381     -0.02669204654530     -0.49941495398936
  F   1.21696534487461     -0.04175819660428     -1.71771351101502
  H   -1.18088080778258      0.21459651784088     -1.48483641709777
  C   0.87752772578852      1.74091720944928     -0.30278376393472
  N   1.01152917210866      2.90306681864871     -0.19659383926621
  C   1.53056758983842     -0.46860556285653      0.58338120000875
  H   2.55773785555621     -0.10337143433565      0.56415479043161
  H   1.10907935795681     -0.31167346166080      1.57514139476617
  H   1.53264332859487     -1.52993768554061      0.33678996084817
  N   -1.54307785754378      0.76570196824608      0.51005330671309
  O   -2.53605941774137      1.35648618997661      0.09730179887264
  O   -1.11383429284394      0.74537852902913      1.65914029431710
  N   -1.06689069518951     -1.49014634774494     -0.26030661258235
  O   -1.91899129342542     -1.78079785518785      0.56775547792417
  O   -0.42643802286018     -2.25339400692730     -0.97091424668207
