16
Coordinates from ORCA-job run
  C   0.75493089222610     -0.03514594226321     -0.37009034599356
  C   -0.64132286282845     -0.54919263294304     -0.01818992797707
  F   1.22988366146641     -0.92281199731744     -1.32229627806876
  H   -0.57735613354337     -1.55328245778291      0.39818837139298
  C   0.73337129692604      1.32120387104943     -0.93669030626920
  N   0.81072021486989      2.43409577777627     -1.30334922959653
  C   1.68252626955213     -0.07925217164434      0.83145903944554
  H   1.39360218469136      0.64937829631779      1.58833794520708
  H   2.69110903341344      0.15132334879972      0.48597055664140
  H   1.67405086596474     -1.07848676188767      1.26947892997487
  N   -1.57312988477905     -0.62962836562207     -1.19269407554866
  O   -2.55702296897025     -1.33609101732086     -0.99818823145386
  O   -1.29678461768513      0.00193870691078     -2.20338234203073
  N   -1.29507953797348      0.32718322824050      1.00737611887211
  O   -1.92979957226326      1.28888024448299      0.58917014358295
  O   -1.09969884106712      0.00988787320404      2.17589963182143
