16
Coordinates from ORCA-job run
  C   0.68795131574769      0.30017550208604     -0.50192684743886
  C   -0.80930117281432     -0.05263670091624     -0.44697812738835
  F   1.11781688701479     -0.19756891753808     -1.72550994045910
  H   -1.28650742039405      0.18581682630321     -1.39672803890114
  C   0.80895523641783      1.76605969070000     -0.55745277787417
  N   0.92399147045603      2.93142410129821     -0.64893251500065
  C   1.54874221747819     -0.30713466998516      0.58448528266615
  H   1.51176702297334     -1.39470931444997      0.50970900967424
  H   1.21496124679317      0.00691785098933      1.57102770857604
  H   2.57811207952010      0.01640897599750      0.42551295270436
  N   -1.57377485497078      0.64263041269931      0.63514439017736
  O   -0.94504753939732      1.15971601084875      1.55256039542286
  O   -2.79171919781856      0.59758971870332      0.50414314159514
  N   -0.97364101710119     -1.52946636543158     -0.22010466981865
  O   -0.93447838613026     -2.22315590119248     -1.22799429193696
  O   -1.07782788777468     -1.90206722011214      0.94304432800173
