16
Coordinates from ORCA-job run
  C   0.71962219487312      0.28818861243484     -0.46135221163556
  C   -0.78042772015298     -0.05313984149526     -0.49640447363332
  F   1.22049071281092     -0.23057150206825     -1.64868096728993
  H   -1.19522601947162      0.17723498208354     -1.47692222104117
  C   0.85588823822281      1.75237031517895     -0.52812153448904
  N   0.99100753129050      2.91552392585569     -0.62016766931051
  C   1.50791149869612     -0.30779776854273      0.68471175011860
  H   1.11660639692160      0.02392498086960      1.64383895858998
  H   2.54707109875061      0.00759051344022      0.58379240939896
  H   1.46806163398729     -1.39606444630760      0.62514084200890
  N   -1.60646540543669      0.65944385670915      0.52760979569461
  O   -1.03373753022663      1.18153674835915      1.47817398191024
  O   -2.81398245020296      0.62285669306414      0.31892245075455
  N   -0.97077033644896     -1.52607404689886     -0.26422499064431
  O   -0.89418035398343     -2.23043547948659     -1.26274509816539
  O   -1.13286948962968     -1.88558754319599      0.89642897773339
