16
Coordinates from ORCA-job run
  C   0.66186731093392      0.35430195546753     -0.25404920176527
  C   -0.74057381075098     -0.04607998179579      0.21251515677390
  F   0.76278631556830      0.14516398670110     -1.61074524256879
  H   -0.85083554065366      0.06129419645613      1.29139425827759
  C   0.85217376631742      1.78382997267434      0.04712791604058
  N   1.05894538537101      2.89455191651677      0.36735688198950
  C   1.73976494189027     -0.46522844015788      0.43748616830666
  H   1.67232912971976     -0.37496064516858      1.52250841262671
  H   2.71180066906536     -0.09702864548793      0.10811457396033
  H   1.64547974375648     -1.51393406599259      0.15680553982589
  N   -0.99294944531498     -1.48899697780923     -0.11841318521137
  O   -0.70140805120764     -2.28760882775167      0.76634286458757
  O   -1.42391698609427     -1.73539552138242     -1.23682568972609
  N   -1.85458623606128      0.74202120186494     -0.42120478858621
  O   -1.57455554455191      1.56649723923076     -1.28135627488966
  O   -2.96632164798780      0.46157263663452      0.01194261035865
