16
Coordinates from ORCA-job run
  C   0.65992314202863      0.42944443805844     -0.22513175653616
  C   -0.73223193608110     -0.19760720281745     -0.34159207638726
  F   0.69659191293227      1.34271596395131     -1.27545883457314
  H   -0.82845465221630     -0.72739721685967     -1.28888099486451
  C   0.85287858062170      1.18005853747405      1.02317110160575
  N   1.09756207499779      1.80687477016803      1.98572599528040
  C   1.76766602921253     -0.58256112103479     -0.44106132228964
  H   1.59911953535535     -1.10871902341742     -1.38300091006520
  H   1.81661466587644     -1.29239496373706      0.38236817887349
  H   2.71431385096298     -0.04451739902110     -0.50648930648071
  N   -1.79129423390014      0.86710148269733     -0.32818945667424
  O   -2.30266875743407      1.13623356033840     -1.40740559350064
  O   -2.02420786611078      1.37292259834285      0.76418918792387
  N   -1.08031524626336     -1.15909324458364      0.75434375244546
  O   -2.16411034202782     -1.71345735000892      0.61607154119333
  O   -0.28138675795412     -1.31060382955038      1.67234049404919
