16
Coordinates from ORCA-job run
  C   0.65400527260705      0.35504843594535     -0.27599165963758
  C   -0.72684314245497     -0.03799866798494      0.25642361699351
  F   0.66454885746794      0.22414239297017     -1.64604674170576
  H   -0.76825192494283      0.01805896497680      1.34405283148329
  C   0.90289865485236      1.75924760412225      0.09337647183999
  N   1.15520031967002      2.84717928179576      0.45628520760428
  C   1.74871692709506     -0.53091300455264      0.29730304758635
  H   1.60903841231735     -1.55746978835453     -0.04075650540376
  H   2.70936176923610     -0.16660936998534     -0.06781724326856
  H   1.74848865741003     -0.50752038169400      1.38791265126036
  N   -1.03384754781169     -1.45711631395632     -0.12657313458344
  O   -0.71954706512023     -2.30386995794733      0.70387592362382
  O   -1.52677687915202     -1.63923002780778     -1.23172802184145
  N   -1.85796519312271      0.80443213225753     -0.26796443714677
  O   -2.95022893722834      0.51647093688837      0.20749622915799
  O   -1.60779818082305      1.67614776332661     -1.08984823596226
