16
Coordinates from ORCA-job run
  C   0.64137534973979      0.45397100648596     -0.30086894507734
  C   -0.74667430087519     -0.18509430692180     -0.34791625166965
  F   0.70123825539096      1.25442010486153     -1.43072661479336
  H   -0.85102947546171     -0.78968775904189     -1.24748074021293
  C   0.84310834721046      1.28493545353375      0.89487042242926
  N   1.11597243830301      1.88688746920062      1.86551992879749
  C   1.73797144813693     -0.59221221914744     -0.39582581993335
  H   2.69005031465856     -0.07223387112070     -0.50944232006709
  H   1.57022604562186     -1.22614478203459     -1.26784898393881
  H   1.77915410409255     -1.21263051696428      0.49896284078145
  N   -1.87336851770472      0.80730810555617     -0.36474372841825
  O   -1.64728356869513      1.95618687643712     -0.01025521144873
  O   -2.94415001819854      0.33534633242902     -0.73313289789055
  N   -0.96531309437295     -1.08404825012513      0.83169775716229
  O   -1.41291415922688     -0.56370634452485      1.84733922446447
  O   -0.63836316861906     -2.25529729862343      0.67185133981503
