16
Coordinates from ORCA-job run
  C   0.66327643925772      0.42944227462620     -0.13138898382524
  C   -0.76222739571442     -0.04738747951222      0.16468715454961
  F   0.81401224001373      0.60600332675923     -1.48733198994638
  H   -0.95277310922151     -0.09040752549200      1.23768887091072
  C   0.87567387270862      1.71215377149906      0.56091547699573
  N   1.10348164163549      2.68752975582710      1.17381811912069
  C   1.69050556983445     -0.58935500195319      0.33698800275667
  H   2.68580111649840     -0.17318634479441      0.17980440972223
  H   1.59561987156584     -1.50107277301529     -0.25384407865807
  H   1.56418132217256     -0.82751295753820      1.39409576247713
  N   -0.95566834202265     -1.43124155285874     -0.37299839112752
  O   -1.11325526447996     -1.53435559685206     -1.58285177069529
  O   -0.89548306008248     -2.33569146856401      0.45482693634918
  N   -1.83709678534569      0.82384453970223     -0.43437966624974
  O   -1.51390404790437      1.92984099682234     -0.84567948623264
  O   -2.96114406891573      0.34039603534396     -0.39535036614707
