16
Coordinates from ORCA-job run
  C   0.67302934170791      0.46638534906143     -0.20316387228807
  C   -0.72683805797418     -0.10773665284712     -0.41936870890759
  F   0.84077255021694      1.38811464570052     -1.22484515297922
  H   -0.79001787404521     -0.57687891219803     -1.40008258526293
  C   0.81646563913820      1.14735281163528      1.09170773663944
  N   1.04297564404958      1.63363423720410      2.13630740674679
  C   1.73821875849525     -0.60662713566277     -0.34544816780062
  H   2.71233895171065     -0.11598825392056     -0.33754311826418
  H   1.61041802288661     -1.13338906470889     -1.29236775879604
  H   1.69792754516933     -1.32315954760515      0.47464359805712
  N   -1.82612982865357      0.91410096036129     -0.36072023760064
  O   -2.89889185853174      0.51186855180848     -0.79878600104237
  O   -1.57785351928285      2.01678106116060      0.10755629002279
  N   -1.04079590871287     -1.15225050345177      0.60767116707693
  O   -1.49660724356536     -0.75435596405961      1.67410789282398
  O   -0.77401216260869     -2.30685158247781      0.29133151157464
