16
Coordinates from ORCA-job run
  C   0.63183715747773      0.47734994180480     -0.28493721707681
  C   -0.72670474983099     -0.21913667943108     -0.37070877992322
  F   0.69679913635398      1.26900485136624     -1.42046635135543
  H   -0.77624282226570     -0.83610180446629     -1.26653267612129
  C   0.75853935843908      1.32687793774338      0.90816525356315
  N   0.97508638504436      1.94818189979937      1.88082460972459
  C   1.77300674768104     -0.52331011599167     -0.33246512161632
  H   2.70635952736896      0.03467364075222     -0.41745933163631
  H   1.80825404747846     -1.13531793449108      0.56834100352244
  H   1.66178458992856     -1.16976756397410     -1.20436203198424
  N   -1.89157060159323      0.72598302301038     -0.43508523843318
  O   -1.72414437609062      1.88659028561873     -0.08637050025870
  O   -2.92981084507294      0.20670264746350     -0.83204230400991
  N   -0.94718998128274     -1.11486865431271      0.81089278855680
  O   -0.56865373192891     -2.27345521770970      0.67395210967198
  O   -1.44734984170713     -0.60340625718204      1.80625378737643
