16
Coordinates from ORCA-job run
  C   0.67932555042393      0.37933581018663     -0.18870259915341
  C   -0.75892118013095      0.00981323674600      0.18820169226986
  F   0.79631325376214      0.42100810706536     -1.55876236700429
  H   -0.91771108607511      0.07577711594484      1.26518448835220
  C   0.97851600091824      1.70700662918090      0.37485148713419
  N   1.27277069837929      2.71620771022048      0.89818649680560
  C   1.66714074267724     -0.64553973646784      0.34639306392432
  H   2.67698055600908     -0.30048549541383      0.12350584300928
  H   1.50664748000662     -1.60209453527590     -0.15215032907648
  H   1.56256162854120     -0.77630487914791      1.42440611564281
  N   -1.04035238496607     -1.40493197156725     -0.21278238375923
  O   -1.23498576812582     -1.61080783056409     -1.40396984881722
  O   -0.99420953606099     -2.23231374536315      0.69294177923423
  N   -1.80527911711983      0.87966785281886     -0.46089690827408
  O   -1.43789230875118      1.92226247443389     -0.98527283107089
  O   -2.95090452948772      0.46239925720303     -0.35013369921684
