16
Coordinates from ORCA-job run
  C   0.67471524203624      0.45860174936268     -0.08159307937324
  C   -0.64923526174518     -0.19809752961056     -0.48147771572071
  F   0.87441813050255      1.42050297769664     -1.06853508549203
  H   -0.55317933870239     -0.67544851377463     -1.45617170812791
  C   0.60749782649457      1.15601064032988      1.20983559149031
  N   0.64562219496871      1.74809943283409      2.22338161294966
  C   1.83681168871600     -0.51361839592626     -0.12820647688640
  H   1.75879363669807     -1.25688015041689      0.66289801454263
  H   1.86156626037451     -1.00298958498673     -1.10411610183349
  H   2.76035096880086      0.05207896982544      0.00210576890776
  N   -1.73320729936458      0.83391079923576     -0.60728300823814
  O   -2.18658459287870      1.26256256171359      0.44827493228762
  O   -2.04308471268036      1.15712002151023     -1.74670258385029
  N   -1.15225923319481     -1.22912370846376      0.48256554154733
  O   -2.15681359240649     -1.82359752101261      0.10989486140537
  O   -0.54341191761900     -1.38913174831686      1.53512943639156
