16
Coordinates from ORCA-job run
  C   0.75137910223839      0.28179579053381     -0.41363035511608
  C   -0.76598837726456      0.04765250780055     -0.51872173309499
  F   1.25426738103758     -0.15415567487159     -1.63309685717593
  H   -1.13433231266934      0.39985414855158     -1.48142417596955
  C   0.98503753895277      1.73285394374104     -0.33376336531661
  N   1.19747261947914      2.88759494149011     -0.30156775000917
  C   1.46238867710985     -0.47315427684447      0.68850588802333
  H   1.35226002725491     -1.54555849368018      0.52311916108968
  H   2.52288846778727     -0.22246504813713      0.64395442647577
  H   1.06452599732016     -0.20740748170537      1.66537603964810
  N   -1.57543514005532      0.71253897952405      0.54970670267653
  O   -0.99950834799510      1.10452843967413      1.55914015768180
  O   -2.77607147177705      0.77556701804479      0.30986688688333
  N   -1.05929209355107     -1.42409802544956     -0.43735001774549
  O   -0.99807596844792     -2.03263715246215     -1.49804380398236
  O   -1.28151609941972     -1.88190961620962      0.67792879593163
