16
Coordinates from ORCA-job run
  C   0.78064018736734      0.02575265448319     -0.25667244899277
  C   -0.62435920422973     -0.54871247533325     -0.05689788312122
  F   1.34055884689559     -0.80400881947685     -1.22433578974356
  H   -0.56336651117880     -1.57730058670732      0.29672830508411
  C   0.77524487992448      1.39252497187332     -0.79571030565657
  N   0.86870474814572      2.47425039114382     -1.24344422851450
  C   1.62484352787013     -0.07477970120493      0.99833867892651
  H   1.26078052104927      0.59968061026901      1.77111022540352
  H   1.61458193891070     -1.10473369348403      1.36105296578142
  H   2.65036765207460      0.19553027309586      0.74324486987245
  N   -1.37447816584999     -0.57950149355712     -1.35829710994622
  O   -1.81803826526832      0.49599511286528     -1.74540647775787
  O   -1.45128496117841     -1.66922224993379     -1.91110777690055
  N   -1.47771109691721      0.21381551672161      0.90995311482365
  O   -2.54016001177658     -0.33088650642011      1.18663984361797
  O   -1.06732408583877      1.29259599566527      1.32480401712362
