16
Coordinates from ORCA-job run
  C   0.78064406487036      0.21787001633626     -0.38759797597909
  C   -0.72422059563740     -0.05457852657744     -0.56149282502064
  F   1.39122908237361     -0.47045810077606     -1.42362111083902
  H   -1.09760986214858      0.40612997143588     -1.47455659436556
  C   0.99001452285675      1.65839976786423     -0.62172175782549
  N   1.18495023738387      2.80515444389879     -0.78523194331316
  C   1.39743507756562     -0.18495487622537      0.93685853892677
  H   1.23462524848531     -1.24287207088052      1.12143756538452
  H   2.46800038056188      0.01734780686415      0.87878137147349
  H   0.97773264574678      0.40181970836055      1.75488072773538
  N   -1.49767342650582      0.52410665510315      0.58689965872956
  O   -1.67157218792822     -0.20103015339912      1.55976573760890
  O   -1.84749200866835      1.69109773523389      0.45055937095866
  N   -1.08594242138443     -1.50925276932187     -0.65458513624103
  O   -2.16099478682230     -1.71250751273353     -1.21067913363334
  O   -0.33712597074913     -2.34627209518298     -0.16969649359983
