16
Coordinates from ORCA-job run
  C   0.76743819158703      0.22676860080812     -0.39895049859539
  C   -0.74087564227849     -0.05130583359525     -0.54556988110320
  F   1.36691182086616     -0.48373452510499     -1.42664710726581
  H   -1.14825959927932      0.44198102545876     -1.42636019928591
  C   0.98345405262404      1.66036831534440     -0.66259657438778
  N   1.18532957962755      2.80263955399029     -0.84745910973717
  C   1.38903716566825     -0.15650998975579      0.92906928810542
  H   0.99026493107833      0.46231359017699      1.73449629219626
  H   2.46312826703917      0.02093831440199      0.85712085545044
  H   1.20513553721356     -1.20577393941017      1.14269727156639
  N   -1.47986188351590      0.47648722804013      0.65092925398094
  O   -1.72022740287304      1.67808769648630      0.61777140721558
  O   -1.73043581978016     -0.31228174892150      1.55364733652632
  N   -1.07611088849834     -1.50606978387187     -0.69049217024157
  O   -0.35994364645121     -2.33673649722274     -0.14811341121603
  O   -2.09598466302764     -1.72017200682469     -1.33954275320846
