16
Coordinates from ORCA-job run
  C   0.74382012197011      0.22858216988648     -0.43692746480658
  C   -0.76622069302843     -0.07109947244900     -0.50684834458985
  F   1.30418919022173     -0.49850118530898     -1.47502832706944
  H   -1.22181757961700      0.40068397854601     -1.37567691234403
  C   0.92979767116615      1.65778160307742     -0.74372877244866
  N   1.11378747131574      2.79308946290219     -0.98203996584818
  C   1.43114892875061     -0.11727175885813      0.86868569793389
  H   1.05711271167056      0.50977029555505      1.67967656652962
  H   1.27601546614984     -1.16528074918200      1.10977571998128
  H   2.49746702640110      0.07802821315470      0.74584927779820
  N   -1.45406456318149      0.47026799790573      0.71394901282998
  O   -1.69903507910890      1.67060168714460      0.67410493661394
  O   -1.66409355493443     -0.30618793475814      1.63746585809529
  N   -1.08504761452911     -1.53256358642013     -0.61123908335804
  O   -0.34556286673775     -2.34042304036160     -0.06529458168708
  O   -2.11549663650873     -1.77647768083420     -1.23272361763036
