16
Coordinates from ORCA-job run
  C   0.65974708455323      0.46528951538609     -0.14174040454556
  C   -0.68633119449227     -0.20989391573544     -0.41933389509440
  F   0.75688990525273      1.42771050485362     -1.14331215156089
  H   -0.66966031771093     -0.69679466420942     -1.39396971013697
  C   0.69898425066511      1.16432119152809      1.14998442421227
  N   0.81130609876674      1.76111053008116      2.15522065893270
  C   1.82583614878818     -0.49139511232715     -0.29251197233184
  H   1.82616798127491     -1.23767895506155      0.49958810030322
  H   1.77142567353321     -0.97775322308919     -1.26871479596977
  H   2.75026122535212      0.08540441741032     -0.24103559931714
  N   -1.78826504240383      0.80973191493473     -0.46025986156424
  O   -2.20069637623197      1.11675175944121     -1.57125178832536
  O   -2.15044228125513      1.24704228246550      0.62647099906526
  N   -1.09255654483800     -1.23659661085206      0.59429989975848
  O   -0.38145574429740     -1.39512011636324      1.58080371128095
  O   -2.13021086695668     -1.83012951846263      0.32576238529329
