16
Coordinates from ORCA-job run
  C   0.77703679263629      0.20126796908489     -0.37592474036480
  C   -0.73122616471240     -0.07120411352666     -0.55937943629048
  F   1.40596371747864     -0.61517545392384     -1.30388321531099
  H   -1.11574565590946      0.40091787258149     -1.46226175738956
  C   1.04697275186392      1.59552048040243     -0.76492319508966
  N   1.30423681096940      2.70015542873965     -1.07017315584442
  C   1.32581820044039     -0.07700860184816      1.00900149135903
  H   1.10964380904735     -1.10240132432903      1.29826411457516
  H   2.40558723288685      0.07540472009715      0.97942809103324
  H   0.90023659092604      0.61612197492690      1.73667532676411
  N   -1.50007843519354      0.49221957389335      0.60423252260415
  O   -1.49553759226337      1.71648219593427      0.65783440042147
  O   -2.02357355863285     -0.28810566771804      1.38717333607370
  N   -1.04463257523700     -1.53021374899177     -0.68064493773372
  O   -0.44489390513598     -2.31467819879515      0.04243148351898
  O   -1.91980801916429     -1.79930310652743     -1.49885032832621
