16

C	-0.559969	0.00351	-1.403657
C	0.0	0.0	0.0
Br	0.248755	-1.427922	-2.464605
H	1.085456	0.0	0.0
H	-0.398044	0.860994	0.54168
C	-2.064882	-0.072254	-1.532522
H	-2.505801	0.746171	-0.955345
H	-2.367326	0.011663	-2.574239
H	-2.422929	-1.012607	-1.117469
N	-0.097612	1.311649	-2.068275
O	0.798674	1.935788	-1.513275
O	-0.644648	1.626636	-3.121141
N	-0.464908	-1.213997	0.718105
O	0.338524	-2.136901	0.843901
O	-1.592519	-1.184525	1.230808
Br	2.756979	0.0	0.0
