16

C	-0.45723	-0.014083	-1.439046
C	0.0	0.0	0.0
Br	0.011131	1.638927	-2.325504
H	1.088342	0.0	0.0
H	-0.349311	-0.906715	0.497381
C	0.222526	-1.171814	-2.155797
H	1.304069	-1.047004	-2.064345
H	-0.067523	-1.186313	-3.208217
H	-0.072329	-2.110476	-1.680063
N	-1.967828	-0.254121	-1.535515
O	-2.383568	-1.138849	-0.789921
O	-2.633456	0.344388	-2.366906
N	-0.552589	1.124728	0.79667
O	-1.609752	1.630181	0.413707
O	0.046618	1.426314	1.821974
Br	3.475882	0.0	0.0
