16

C	-0.510111	-0.006489	-1.422649
C	0.0	0.0	0.0
Br	0.077268	1.685715	-2.209251
H	1.088546	0.0	0.0
H	-0.347446	0.876969	0.543581
C	-0.000846	-1.148833	-2.266664
H	-0.285957	-1.018085	-3.308727
H	-0.421431	-2.084066	-1.898272
H	1.08738	-1.167952	-2.172181
N	-2.03494	0.077728	-1.444614
O	-2.617598	-0.480264	-2.367491
O	-2.568147	0.733606	-0.556472
N	-0.482928	-1.172353	0.780531
O	-1.341511	-1.906373	0.280749
O	-0.009925	-1.306883	1.90155
Br	3.471732	0.0	0.0
