16

C	0.0	0.0	0.0
C	-0.580936	0.013161	-1.433264
Cl	1.742837	0.0	0.0
H	-1.656008	0.18677	-1.448035
C	-0.50907	1.123456	0.750783
N	-0.934271	2.029028	1.400461
N	-0.509524	-1.357494	0.745112
O	0.251895	-1.948472	1.477005
O	-1.700278	-1.60118	0.562029
N	-0.38968	-1.272082	-2.16931
O	0.294185	-2.151899	-1.652518
O	-1.041846	-1.359008	-3.208168
N	0.014117	1.117003	-2.264439
O	0.915141	0.844442	-3.047215
O	-0.447215	2.223324	-2.001124
H	-1.540747	0.0	0.0
