16

C	0.0	0.0	0.0
C	-0.480984	-0.031002	-1.472045
Cl	1.753637	0.0	0.0
H	-1.571091	-0.184118	-1.35818
C	-0.66786	1.096824	0.711609
N	-0.657015	2.113453	1.328095
N	-0.415922	-1.303529	0.691601
O	-0.444275	-2.302747	-0.017764
O	-0.507856	-1.26699	1.909706
N	0.108292	-1.041323	-2.408605
O	-0.631113	-1.941669	-2.788655
O	1.259613	-0.843993	-2.796997
N	-0.279666	1.276456	-2.170987
O	-0.869097	1.35642	-3.248343
O	0.406437	2.154018	-1.658354
H	-2.360002	0.0	0.0
