18

C	0.0	0.0	0.0
C	-0.410421	0.206299	-1.481996
F	1.401841	0.0	0.0
H	-1.498708	0.297396	-1.497932
N	-0.466872	1.087438	0.781292
H	-0.687699	0.729855	1.702781
H	-1.327294	1.454155	0.393239
N	-0.426716	-1.249627	0.548418
H	-1.447423	-1.257622	0.510938
H	-0.050285	-2.031431	0.029094
C	0.076	-0.89695	-2.397412
H	-0.459667	-1.815872	-2.160813
H	-0.13716	-0.650208	-3.438874
H	1.147816	-1.050741	-2.289163
N	0.111752	1.525383	-1.955829
O	1.231781	1.563211	-2.468225
O	-0.616361	2.505488	-1.805753
Cl	-3.517378	0.0	0.0
