18

C	0.0	0.0	0.0
C	-0.224553	-0.049868	-1.539975
F	1.411882	0.0	0.0
H	0.196131	0.878676	-1.933466
N	-0.50062	1.172315	0.627787
H	-0.269341	1.999048	0.092135
H	-1.515431	1.07194	0.682096
N	-0.531351	-1.11209	0.664281
H	-0.181623	-1.983529	0.299322
H	-0.416117	-1.027333	1.663277
C	-1.626774	-0.288518	-2.041874
H	-1.614648	-0.346054	-3.136291
H	-2.048378	-1.19495	-1.615745
H	-2.292713	0.512462	-1.726686
N	0.672319	-1.097601	-2.139144
O	1.475852	-0.739537	-2.999019
O	0.529618	-2.262525	-1.765517
Cl	-4.211304	0.0	0.0
