16

C	-0.41483	-0.030189	-1.470696
C	0.0	0.0	0.0
Br	-0.359016	1.805249	-2.261024
H	1.09638	0.0	0.0
H	-1.466928	-0.307137	-1.580091
N	0.410143	-0.879396	-2.279148
H	0.099342	-1.839766	-2.209224
H	1.378027	-0.809845	-1.968164
C	-0.442542	-1.313297	0.640162
H	-0.02704	-2.174109	0.114275
H	-1.535517	-1.379541	0.661442
H	-0.071286	-1.360858	1.667469
N	-0.616351	1.096477	0.74811
H	-0.283519	1.019423	1.704377
H	-0.234192	1.967772	0.394012
Br	3.64526	0.0	0.0
