16

C	-0.509272	0.011804	-1.433645
C	0.0	0.0	0.0
Br	0.296899	-1.515983	-2.484012
H	1.093734	0.0	0.0
H	-0.108129	0.890949	-1.933573
N	-1.933867	0.005533	-1.506273
H	-2.239729	0.160394	-2.458657
H	-2.292132	-0.894169	-1.210041
C	-0.484093	-1.200485	0.809465
H	-0.028684	-1.160654	1.801919
H	-0.189182	-2.145038	0.346983
H	-1.573542	-1.185684	0.939669
N	-0.407739	1.295435	0.553047
H	-1.380878	1.257069	0.83751
H	0.168458	1.495658	1.363111
Br	3.699777	0.0	0.0
