16

C	-0.221764	0.014672	-1.510628
C	0.0	0.0	0.0
Br	-2.154585	0.201352	-1.987727
H	1.102238	0.0	0.0
H	0.031249	-0.961233	-1.940604
N	0.486984	1.129946	-2.077463
H	0.500628	1.057396	-3.087948
H	1.449804	1.076418	-1.735802
C	-0.531603	-1.246242	0.672752
H	-0.20408	-1.25193	1.713397
H	-0.155937	-2.149654	0.185059
H	-1.626673	-1.267245	0.649933
N	-0.459821	1.193147	0.692478
H	-1.461897	1.284139	0.54212
H	-0.023058	1.997749	0.254702
Br	3.633572	0.0	0.0
