16

C	-0.487422	0.007964	-1.446973
C	0.0	0.0	0.0
Br	0.248331	-1.574219	-2.462823
H	1.093638	0.0	0.0
H	-0.042781	0.853977	-1.970599
N	-1.912591	0.079552	-1.538176
H	-2.321242	-0.774189	-1.178332
H	-2.202644	0.178955	-2.503239
C	-0.526476	-1.176463	0.8054
H	-0.054853	-1.14633	1.787785
H	-1.609718	-1.100496	0.957237
H	-0.290128	-2.132127	0.333887
N	-0.405007	1.254037	0.64898
H	-1.316167	1.531601	0.294984
H	0.268752	1.976149	0.412092
Br	3.707984	0.0	0.0
