16

C	-0.580498	0.023998	-1.40179
C	0.0	0.0	0.0
Br	0.132032	1.54163	-2.434267
H	1.10045	0.0	0.0
H	-1.647484	0.271393	-1.312628
N	-0.289352	-1.17844	-2.155088
H	-0.794465	-1.950489	-1.734096
H	-0.618416	-1.069494	-3.106684
C	-0.461469	-1.265148	0.716148
H	0.009689	-2.147597	0.28065
H	-1.553294	-1.360797	0.695047
H	-0.144338	-1.2224	1.761162
N	-0.541265	1.16442	0.72741
H	-0.135268	1.993926	0.303433
H	-0.142659	1.12881	1.661225
Br	3.75327	0.0	0.0
