16

C	-0.340254	-0.042529	-1.476593
C	0.0	0.0	0.0
Br	-2.514935	-0.201622	-1.621976
H	1.097612	0.0	0.0
H	-0.094043	-0.987698	-1.95354
N	0.106916	1.035681	-2.197502
H	-0.063023	1.925702	-1.758662
H	-0.099345	1.027275	-3.18352
C	-0.475593	-1.226488	0.758582
H	0.022536	-1.238884	1.729
H	-0.214895	-2.145341	0.224833
H	-1.556352	-1.203471	0.912281
N	-0.42548	1.21808	0.674988
H	-1.35313	1.49862	0.380854
H	0.242629	1.963314	0.536271
Br	3.605748	0.0	0.0
