16

C	-0.467047	-0.047782	-1.449395
C	0.0	0.0	0.0
Br	-0.126161	1.705651	-2.338483
H	1.104339	0.0	0.0
H	-1.555662	-0.1437	-1.494596
N	0.154923	-1.06783	-2.244202
H	-0.286104	-1.959791	-2.05678
H	1.142584	-1.122349	-2.00611
C	-0.458078	-1.278768	0.696045
H	-1.54972	-1.366761	0.66566
H	-0.145017	-1.253152	1.74354
H	0.000647	-2.162749	0.250934
N	-0.592531	1.137641	0.711805
H	-0.217048	1.985981	0.300374
H	-0.226064	1.112448	1.658918
Br	3.667823	0.0	0.0
