16

C	-0.470009	0.011082	-1.463962
C	0.0	0.0	0.0
Br	0.152912	-1.597497	-2.404757
H	1.094921	0.0	0.0
H	0.028746	0.833615	-1.977467
N	-1.894909	0.125949	-1.711131
H	-2.392654	-0.578818	-1.178853
H	-2.211335	1.043037	-1.414304
C	-0.525387	-1.16299	0.822968
H	-0.100677	-1.087321	1.824127
H	-0.240133	-2.122778	0.392393
H	-1.618275	-1.129082	0.92104
N	-0.378918	1.255209	0.660822
H	0.200766	2.01118	0.315954
H	-1.353656	1.480139	0.49661
Br	3.676802	0.0	0.0
