18

C	0.0	0.0	0.0
C	-0.519346	-0.002341	-1.430174
Br	1.98239	0.0	0.0
H	-0.134863	-0.893024	-1.939574
H	-1.610155	-0.11919	-1.297189
C	-0.486382	1.216887	0.763239
H	-1.586467	1.180706	0.7028
H	-0.113929	2.148965	0.333572
H	-0.172705	1.168238	1.809955
C	-0.470865	-1.263049	0.698447
H	-0.102914	-1.308402	1.727516
H	-0.137214	-2.157415	0.164381
H	-1.571355	-1.212991	0.693907
C	-0.236208	1.247506	-2.253379
H	0.828479	1.506287	-2.254673
H	-0.806123	2.099473	-1.872729
H	-0.548945	1.086183	-3.290947
H	-3.380989	0.0	0.0
