12
Coordinates from ORCA-job run
  C   -0.81545265705544     -0.05517985185458      0.56400460762300
  C   0.22847998025529      0.40489176907023     -0.17822144959309
  H   -1.33387437901904      0.68396132365789      1.17060025501793
  N   -1.39062641017598     -1.29910574267461      0.56969832268644
  H   -0.84336264870557     -2.03102648568482      0.14406023095064
  H   -1.88590862941212     -1.54541366378152      1.40971832091603
  N   0.57092805872051      1.75530428340506     -0.34972934224459
  H   0.00476818017836      2.35990691702339      0.22765133936995
  H   1.55690110358737      1.91998432329274     -0.19785436873928
  N   1.06702064724311     -0.48974673213785     -0.93008169488855
  O   2.11792900729420     -0.02524038156766     -1.38083585148338
  O   0.72419774708932     -1.67633575874827     -1.04801036961509
