12
Coordinates from ORCA-job run
  C   -0.82578034379257     -0.11664169835185      0.60465113304461
  C   0.20596217980196      0.42822505658537     -0.09751675876125
  H   -1.40771652560838      0.58334632648557      1.19909833103655
  N   -1.17607655601464     -1.42917735875243      0.74811741453858
  H   -0.81712390214454     -2.05960866338424      0.04878543555579
  H   -2.11056226497229     -1.60134750145447      1.07596088864839
  N   0.50158686626146      1.80629455461390     -0.09533303194505
  H   0.62252761213341      2.15652998578842      0.84418874175670
  H   1.33965304726387      1.97303682179435     -0.63579546503801
  N   1.00630686254210     -0.36742382242924     -0.98476581699933
  O   0.73917579766749     -1.57305371686317     -1.11174256862968
  O   1.92204722686213      0.19882001596781     -1.59464830320731
