12
Coordinates from ORCA-job run
  C   -0.91759197856897     -0.03090284193296      0.43135154580914
  C   0.28389101795695      0.39340684109822     -0.04833954123651
  H   -1.51589118915656      0.71965473155635      0.94240585208552
  N   -1.44699676178688     -1.29294488614280      0.44498898661182
  H   -2.44408184364819     -1.34582459833805      0.56277592107855
  H   -1.03632437685325     -1.94535826533626     -0.20388235148812
  N   0.72648718859940      1.73046294708186     -0.00617354980325
  H   1.73391799173713      1.76318985039688     -0.08578834635292
  H   0.42589908823147      2.18983344346491      0.84150680397131
  N   1.15622120838655     -0.48953284504852     -0.76698783886597
  O   2.24757249384427     -0.03733883406218     -1.13383710949245
  O   0.78689716125807     -1.65564554273745     -0.97802037231712
