12
Coordinates from ORCA-job run
  C   -1.01671431017735     -0.12453286165083      0.26507437433341
  C   0.16599222685878      0.42975517683707     -0.12518132575677
  H   -1.85496959203940      0.56484180320007      0.26417697605398
  N   -1.27910664696188     -1.37525679648483      0.70011260242736
  H   -0.55961324258949     -2.07180923305002      0.59440706839828
  H   -2.23665136035751     -1.66849028308114      0.76397269515711
  N   0.22978089285383      1.78920906896987     -0.48689470694588
  H   0.87300520600041      2.28914478635771      0.11566893218714
  H   0.57778817146945      1.88995851665645     -1.43304667892812
  N   1.37420003750143     -0.36275230566114     -0.19772266583358
  O   1.32331465412482     -1.56152930383614      0.12127189832629
  O   2.40197396331690      0.20146143174293     -0.58183916941923
