12
Coordinates from ORCA-job run
  C   -0.59172283068994     -0.84210464175682      0.21220032312371
  C   0.33485980132977      0.08324630557035     -0.12787590966436
  H   -0.39724871732612     -1.89260177467430      0.03223722657572
  N   -1.74746909334325     -0.51758623496893      0.85291702628688
  H   -2.51861143230782     -1.15709020497554      0.77494789457948
  H   -1.97382709457043      0.46626865815025      0.84128065479145
  N   0.12061524574841      1.45686035358206      0.09533414021893
  H   0.74868359079523      1.81048078129254      0.80849668692183
  H   0.30734779769423      1.98432182438785     -0.74928359403425
  N   1.57811910283235     -0.35909242397758     -0.74679808894325
  O   2.36970562276969      0.53089298083395     -1.07375413171243
  O   1.76854800706788     -1.56259562346382     -0.92070222814372
