12
Coordinates from ORCA-job run
  C   -0.68970705080955     -0.22345639448964      0.76984887698067
  C   0.19451736017673      0.43520350500897     -0.03175523998287
  H   -1.04751312146607      0.36016676582311      1.61210682814786
  N   -1.21840580102019     -1.45829501859817      0.63774154571500
  H   -1.70049509252866     -1.85891946108855      1.42144680277519
  H   -0.81944878410434     -2.07127303986181     -0.05436867656781
  N   0.56287457350815      1.76306456510917      0.25445950163580
  H   1.56562861568282      1.83968419675439      0.37546945059543
  H   0.31358856817817      2.37663994917021     -0.51215407950134
  N   0.78249525911508     -0.21335351324640     -1.18455759658712
  O   1.60176391711144      0.43234161971561     -1.84296532944649
  O   0.45470155615641     -1.38180317429688     -1.44527208376432
