12
Coordinates from ORCA-job run
  C   -0.97556763262220     -0.00217600547955      0.29530277109509
  C   0.29083775540575      0.37040789815733     -0.05210545445171
  H   -1.68722710552197      0.79671808351141      0.48356418407819
  N   -1.43554850559050     -1.26985809600435      0.60229639364388
  H   -0.89335359536361     -2.01205111843898      0.18326734894586
  H   -2.42827078884412     -1.38798749446672      0.46754813164254
  N   0.73910658457831      1.66992476009164     -0.05066591032150
  H   0.21599198339632      2.37578576174533      0.42753466248463
  H   1.48238082403418      1.94848500536970     -0.66040619375409
  N   1.28253414766842     -0.57744270778324     -0.48496316984189
  O   1.03579944558847     -1.78777459835407     -0.37085311769801
  O   2.37331688727095     -0.12303148834853     -0.84251964582297
