12
Coordinates from ORCA-job run
  C   -1.00396465680994     -0.10265726763928      0.09873367459303
  C   0.23890775432501      0.40658347261455     -0.12405853302229
  H   -1.82633709748462      0.60507028978681      0.02581668691450
  N   -1.36504591643414     -1.36297048343744      0.49212217947576
  H   -0.67267621432854     -2.08052279766252      0.34693922637297
  H   -2.32014240725343     -1.61888149842962      0.30995926273119
  N   0.49166228793400      1.73156592049520     -0.53103041710136
  H   1.44155417576501      1.98896724854948     -0.29915524641737
  H   -0.16051370161194      2.37628458159250     -0.10803710335905
  N   1.40619795509118     -0.42567804018922     -0.08432034573582
  O   1.26835172587323     -1.64114599176776      0.12638141549854
  O   2.50200609493417      0.12238456608730     -0.25435079995011
