12
Coordinates from ORCA-job run
  C   -0.87960790813844     -0.10089665983842      0.52892668883976
  C   0.26551968992007      0.40527548322941     -0.00688327260461
  H   -1.41160318792409      0.56282990273469      1.20597841262278
  N   -1.40537396681768     -1.35661957072754      0.41645044787458
  H   -1.06794224465115     -1.90527338436788     -0.35851432600430
  H   -2.38053441319481     -1.44663129811122      0.64336666235900
  N   0.73554088699010      1.70640010649015      0.26211324506961
  H   1.62325751595172      1.84833342651558     -0.20036165171933
  H   0.83367211405346      1.86605796568218      1.25439440772762
  N   1.02373773048435     -0.33053075190718     -0.97925485042405
  O   0.61956747530728     -1.45018326211604     -1.33119131465713
  O   2.04276630801918      0.20323804241627     -1.43502444908391
