12
Coordinates from ORCA-job run
  C   -0.55069266215115     -0.85732086999877      0.25839867039352
  C   0.33343008261958      0.09206079668003     -0.12541355907168
  H   -0.24175013556391     -1.89450454020658      0.30880403931247
  N   -1.85783551420515     -0.57742153885681      0.51382248317689
  H   -2.36317935951516     -1.21604357768503      1.10254298085344
  H   -2.06153502848105      0.40432048307729      0.63293888675841
  N   -0.03329900171285      1.44916518737680     -0.20768223309650
  H   0.63830374600389      2.02537278552470      0.28576674239504
  H   -0.04014826795500      1.76483282702443     -1.17128850213297
  N   1.69754712972844     -0.30479486113172     -0.44960453353354
  O   2.47345019073501      0.60865430480406     -0.74829663127693
  O   2.00570882049734     -1.49532099660840     -0.39898834377815
