12
Coordinates from ORCA-job run
  C   -0.48767045034158     -0.82659432454557      0.36708559350435
  C   0.27702988318544      0.12087169456337     -0.22407541749474
  H   -0.08358403998505     -1.81690102095332      0.53805035107749
  N   -1.72505505909179     -0.56269480039298      0.89975753588226
  H   -2.23159573663214      0.19267807771981      0.46597705665885
  H   -2.28803756871823     -1.37833597833930      1.07885649529220
  N   -0.07225806526965      1.48417720487621     -0.25960200544740
  H   0.66106633411541      2.01720486127870      0.19388543743350
  H   -0.12659191661696      1.82344672051229     -1.21421013401627
  N   1.65857720865184     -0.26376044504607     -0.55306727971218
  O   1.96721910575469     -1.45396738435273     -0.54116895418163
  O   2.44890030494802      0.66387539467960     -0.75148867899643
