12
Coordinates from ORCA-job run
  C   -0.86419600757752     -0.06273804014457      0.48493608554556
  C   0.25823633823517      0.40647518868526     -0.12504049931262
  H   -1.40693519333757      0.65029584962658      1.10140621505828
  N   -1.48341893981248     -1.27727045586935      0.34151779683110
  H   -2.05780493080131     -1.56483989006301      1.11562222592408
  H   -0.92533738732233     -1.99816070345422     -0.08905659726945
  N   0.66322665661171      1.74973880101290     -0.15999781128505
  H   0.06634651542674      2.33512360248948      0.40601215943021
  H   1.63566611923464      1.86159535522322      0.09315667460821
  N   1.12815249022686     -0.46444134292598     -0.86982455726009
  O   0.75472404403017     -1.62303130592750     -1.10945513750893
  O   2.23134029508591     -0.01274705865281     -1.18927655476131
