12
Coordinates from ORCA-job run
  C   -0.48803579836044     -0.77515424937442      0.51499061492294
  C   0.33723178822083      0.09301588860916     -0.11380572872408
  H   -0.10611437971323     -1.72778549544581      0.86191997311291
  N   -1.78181680831833     -0.47143538963180      0.80856476661001
  H   -2.41744937962978     -1.23645607849774      0.95188616450149
  H   -2.14689738739010      0.33179890005084      0.31762831074365
  N   -0.12043378024153      1.34159610280282     -0.57606960796699
  H   0.14906738549526      1.47971142727464     -1.54288629022979
  H   0.29268488155212      2.09930652027198     -0.04376846345504
  N   1.72842582449533     -0.28668383475202     -0.32718615127629
  O   2.12823171833320     -1.37048475942620      0.09748113762297
  O   2.42410593555668      0.52357096811855     -0.94775472586178
