12
Coordinates from ORCA-job run
  C   -0.86827938297484     -0.06591812541674      0.42535747805050
  C   0.24076361064252      0.44420437581855     -0.14716511320286
  H   -1.54885957309029      0.63387011980831      0.90710997007059
  N   -1.23807527476859     -1.41533915435380      0.38547900133951
  H   -0.54374451498272     -2.04438008825905      0.75782212332772
  H   -2.14787891656378     -1.57938729069700      0.78304710385027
  N   0.60162936260228      1.78353422912108     -0.29681099270465
  H   1.47675467795282      2.01961316863242      0.15121723121660
  H   -0.13037778313292      2.41555079546486     -0.00919541555820
  N   1.15446924001674     -0.48617631988240     -0.81782854771277
  O   1.55499436236824     -0.19181553941400     -1.93968829603990
  O   1.44760419193054     -1.51475617082222     -0.20034454263681
