12
Coordinates from ORCA-job run
  C   -1.02190330669050     -0.26353394957863     -0.07238430552983
  C   0.15882063454238      0.40772736145934     -0.19177691972678
  H   -1.87764064398253      0.26059187093916     -0.48572981717838
  N   -1.26608106876703     -1.49016964204009      0.43336075237971
  H   -0.52344558700111     -1.95804839847013      0.92653879541244
  H   -2.21671960366815     -1.76198037616179      0.60326056737571
  N   0.19942263866694      1.67124635490694     -0.81205387510677
  H   0.57405607917703      2.36730638881669     -0.17832394073942
  H   0.81005725156248      1.65312096402775     -1.62043452401269
  N   1.38972501392471     -0.14881985561541      0.32611498731635
  O   1.35953170194277     -1.26433698879293      0.87046957425835
  O   2.41517689029302      0.52589627050909      0.20195870555131
