12
Coordinates from ORCA-job run
  C   -0.89264159257079     -0.12271697156476      0.55504990713033
  C   0.18497904992631      0.43491841189400     -0.06610811651127
  H   -1.56911200460933      0.59567244804537      1.00689696186707
  N   -1.20368215142654     -1.42422311873068      0.73518610941174
  H   -0.67270097718824     -2.10980280388641      0.22313297004777
  H   -2.13090255438368     -1.65555281085530      1.04149062804775
  N   0.35152159137483      1.83313822158430     -0.08343473190586
  H   1.22083532794263      2.09487477659374      0.36652713702213
  H   0.40151563783368      2.17408431107388     -1.03616122018770
  N   1.17111348976377     -0.38749940804367     -0.73313321321133
  O   2.10829929630464      0.18892556890012     -1.29127180746799
  O   1.02977488703272     -1.62081862501060     -0.71917462424264
