12
Coordinates from ORCA-job run
  C   -0.61531641368996     -0.84559540504316      0.10781515488829
  C   0.35186835162962      0.08437150990181     -0.06459180135810
  H   -0.38864515708991     -1.89450793172112     -0.04099666664201
  N   -1.86377656275973     -0.52808292239865      0.54763179661550
  H   -2.60761819374386     -1.16805757699795      0.33037118686530
  H   -2.08771538712979      0.45537670387317      0.49866420717759
  N   0.09744382057147      1.45644387357744      0.12242133196381
  H   0.59116474374197      1.81002593872945      0.93436236291304
  H   0.42449901595763      1.98690551111893     -0.67629302798666
  N   1.68153503598205     -0.35006472648519     -0.47474102936182
  O   1.90523673931692     -1.55237196547537     -0.61397582381177
  O   2.51032400721358      0.54455699092063     -0.67066769126318
