12
Coordinates from ORCA-job run
  C   -0.61000569104876     -0.84573245974649      0.13013150211934
  C   0.35069061599323      0.08496554542651     -0.07247884949258
  H   -0.34537566134629     -1.89572910071175      0.16549000860682
  N   -1.93024335664611     -0.52679409271501      0.21506676688941
  H   -2.53520027600324     -1.17387669307179      0.68948783916214
  H   -2.11744451451481      0.45492098480461      0.35876933128798
  N   0.04515276464490      1.45823841508027     -0.13005724683016
  H   0.65839834546216      1.98147857472690      0.48365556723986
  H   0.18521424328680      1.82192927506274     -1.06616950023327
  N   1.73334387641161     -0.35070212437061     -0.22222113032337
  O   2.57404436340372      0.54416261023701     -0.35696674552165
  O   1.99142529035678     -1.55386093472240     -0.19470754290453
