12
Coordinates from ORCA-job run
  C   -0.86130381830371     -0.12544278417821      0.60173089053432
  C   0.17134637159418      0.43680710876542     -0.08812127124787
  H   -1.46650416171982      0.58432545544723      1.15656455069579
  N   -1.26564069261703     -1.41264371378801      0.64798524940013
  H   -0.65843461206269     -2.11185259303605      0.25246323555114
  H   -1.92458477500944     -1.68166942438579      1.35533938558174
  N   0.38088023604568      1.82861685012121     -0.04633776783695
  H   0.31587277276076      2.22798688862494     -0.97534865415269
  H   1.31064024892603      2.03854490633761      0.29704309504691
  N   1.08484746878564     -0.37754166743612     -0.86039120007897
  O   2.00974969981545      0.19880079729873     -1.43876234053643
  O   0.90313126178493     -1.60493182377094     -0.90216517295712
