12
Coordinates from ORCA-job run
  C   -0.91671657280678     -0.10158954808926      0.50721186950554
  C   0.17290414048343      0.43118974872050     -0.11317039380461
  H   -1.63656795580572      0.63216396115323      0.85681308525206
  N   -1.18319674186406     -1.39138586583107      0.82555524407996
  H   -0.62457002817276     -2.09665504376929      0.37164872267009
  H   -2.13232394528204     -1.62186070679583      1.05993784677862
  N   0.33294059183545      1.82640414515650     -0.20433544161390
  H   0.94516990876645      2.17619788392948      0.52317949808729
  H   0.74808361141559      2.07257355118196     -1.09362610007496
  N   1.16835563929559     -0.41671788770989     -0.73503479381979
  O   2.07403723026830      0.13639036045479     -1.36495378976832
  O   1.05288412186656     -1.64771059840110     -0.63222574729197
