12
Coordinates from ORCA-job run
  C   -0.59531727962318     -0.76066523984207      0.17481018140440
  C   0.40963768488003      0.05859717938945     -0.19990672777711
  H   -0.42820737771915     -1.82991809125639      0.17939251224309
  N   -1.88551350117252     -0.31162785643941      0.43347483432460
  H   -2.45724385842389     -0.98299798954634      0.92007162024688
  H   -1.92868365965653      0.59630470398699      0.87523027618416
  N   0.31930830523036      1.40976930779800     -0.50828073981756
  H   0.92080059061090      2.02660135804642      0.01476054664834
  H   -0.62501705257177      1.74338570274818     -0.61253964187138
  N   1.73826587290813     -0.51212617771447     -0.39177463952722
  O   1.86942986124602     -1.73497118094720     -0.40519164673814
  O   2.66254041429160      0.29864828377683     -0.48004657532008
