13
Coordinates from ORCA-job run
  C   -0.69370764102309     -0.09077032992154      0.04133549330673
  C   0.76167303904698     -0.08806992015856     -0.42424065042944
  Cl  -1.62127977190063     -0.76392319746111     -1.41268992115083
  H   1.06178515197769     -1.09601802989703     -0.70605870066890
  H   0.90465393195087      0.61071402801821     -1.24628994831160
  N   -0.82842416710913     -0.84237516157529      1.22430457879050
  H   -1.77397237761179     -0.85203036884967      1.58254009449613
  H   -0.46729704200701     -1.78352417108881      1.13318612282987
  C   -1.21966540994989      1.26066370671186      0.25068118386714
  N   -1.67355221079907      2.33043158642906      0.42066600944549
  N   1.63954738442736      0.33422027103352      0.70513380814050
  O   1.65036221077481      1.53234185320729      0.97136959677355
  O   2.25987690222292     -0.55166026644792      1.28706233291086
