13
Coordinates from ORCA-job run
  C   -0.62046010999719     -0.09767669577163      0.26038635338995
  C   0.87941071905664     -0.28267210414225      0.47585201424518
  Cl  -0.92275046565353     -0.13048275784078     -1.54711003607136
  H   1.17571715283111     -1.28028602004639      0.15560231386307
  H   1.10878999979652     -0.12387006259452      1.53057042629080
  N   -1.28039645721194     -1.14151234941985      0.96757905683052
  H   -1.05308727855085     -2.04764633209512      0.57531726315223
  H   -2.28533524830423     -1.01784244407757      0.96302947169320
  C   -1.12202083539798      1.18865505939248      0.75163866094016
  N   -1.59778445527632      2.17055269745538      1.18604865029055
  N   1.69911007807557      0.68092254553324     -0.31003842547417
  O   1.46185564883744      1.87183110761214     -0.13367406695871
  O   2.55695125179475      0.20902735599487     -1.05020168219141
