13
Coordinates from ORCA-job run
  C   -0.70156153072741     -0.12427206886190      0.08032027573810
  C   0.72246027360252     -0.04483999936511     -0.46730937213160
  Cl  -1.67577204046645     -0.83441070697282     -1.32614813140719
  H   1.05603636872589     -1.03454522962176     -0.77490234231451
  H   0.78308175874558      0.66531136701327     -1.28979127663664
  N   -0.73074848417122     -0.88876438473433      1.26145862478680
  H   -0.32254416537077     -1.80754871574353      1.14580992244128
  H   -1.65225536940945     -0.95144394764039      1.67285791229056
  C   -1.28307772522110      1.19709652924985      0.33070228274649
  N   -1.78052448261441      2.24048956260696      0.53856880240031
  N   1.64142652467314      0.41529150162046      0.61383978149141
  O   2.33690673805269     -0.44136008789281      1.15306369806720
  O   1.60757213418098      1.61099618034210      0.88852982252779
