13
Coordinates from ORCA-job run
  C   -0.68928613981655     -0.09734866208691      0.03260753326767
  C   0.77092720168364     -0.07075838361090     -0.41605966449540
  Cl  -1.59223501073754     -0.76581181283069     -1.43935891313738
  H   1.08740244569904     -1.07186759286366     -0.70381902490077
  H   0.91325166766012      0.63717823035112     -1.23022564181172
  N   -0.82791016632391     -0.86410066956568      1.20566584207543
  H   -1.77823446941111     -0.89115078955528      1.55077663230908
  H   -0.45425617894245     -1.79982867877536      1.10792953643369
  C   -1.23568285993845      1.24442845029274      0.25186163084872
  N   -1.70547424681105      2.30567662122015      0.43127707197575
  N   1.63040950901244      0.35297235754590      0.72666167299262
  O   2.25432036119346     -0.52975933205264      1.30943733244290
  O   1.62676788673236      1.54937026193121      1.00024599199940
