13
Coordinates from ORCA-job run
  C   -0.66947294442417     -0.01014746208993      0.04788383047407
  C   0.69697847707199      0.67876109816937      0.14430750287758
  Cl  -1.00546876180822     -0.49982328737646     -1.64260351441968
  H   0.82185775935059      1.39019830770143     -0.66946302048896
  H   0.79655219032079      1.16507189605845      1.11511590158116
  N   -0.68617296776512     -1.18787147162949      0.86332357028464
  H   -0.37218779996035     -0.99356340595528      1.80722658714112
  H   -1.60565308142188     -1.61061198513512      0.87928648265906
  C   -1.68166657509612      1.00516551357934      0.40278841524322
  N   -2.46195937711307      1.81277410193421      0.75142414386309
  N   1.78909869112525     -0.32986271309364      0.05939636416860
  O   2.20042213542887     -0.77653042629790      1.12821224140979
  O   2.17767225429144     -0.64256016586498     -1.06089850479370
