13
Coordinates from ORCA-job run
  C   -0.70214815564241     -0.01760339760850      0.19175184188515
  C   0.79347792468379     -0.35341590329760      0.26784872885971
  Cl  -1.07307768937750      0.38555977069226     -1.51607484678945
  H   1.07336417799946     -0.52367588541891      1.30975688656046
  H   0.99351606540225     -1.23202533627113     -0.34345560456297
  N   -1.53703037629383     -1.12624475388928      0.57939625770187
  H   -1.47967546204645     -1.29815733475187      1.57613944620045
  H   -1.29806773360561     -1.96258487780862      0.06002204494093
  C   -1.05651470114179      1.12567736236395      1.04011266390026
  N   -1.38369500163269      1.98321609288823      1.77264907149627
  N   1.67221193767324      0.73633345911295     -0.24630007150340
  O   1.60685844406070      1.81239709289216      0.34142766825037
  O   2.38978056992084      0.47052371109637     -1.20627408693966
