13
Coordinates from ORCA-job run
  C   -0.74172020854480     -0.03021659796830      0.18894253382181
  C   0.66905304437744      0.59439395051696      0.11775903535626
  Cl  -1.05508818149143     -0.77381409441895     -1.42274402979126
  H   0.71857969674365      1.37281578730715     -0.64068027518748
  H   0.93968635109415      0.98294353720919      1.10206578401381
  N   -0.99538327966632     -1.00170828517568      1.20786706078720
  H   -1.12529745127021     -0.55944786104781      2.10935505214862
  H   -0.23735717907286     -1.67155366507369      1.25226601006730
  C   -1.67245397377338      1.09201596916505      0.36214664815022
  N   -2.37439111117689      2.01575065332456      0.54549253120860
  N   1.69919690177719     -0.41975466686187     -0.24556745577029
  O   2.39332998281695     -0.19027840208671     -1.22911426079609
  O   1.78184540818650     -1.41114632488991      0.47921136599129
