13
Coordinates from ORCA-job run
  C   -0.61972693378354     -0.11416330205214      0.28051740409776
  C   0.89127425646217     -0.26082853198279      0.44317187262448
  Cl  -0.98174721614496     -0.12955394640212     -1.51629924834960
  H   1.20265907627517     -1.24637788802122      0.10060455763745
  H   1.15135213627354     -0.10892713496297      1.49175237209583
  N   -1.22671111989283     -1.18551926950927      0.99364360601718
  H   -2.23424041637354     -1.09006012439888      1.02471915775568
  H   -0.98787257198780     -2.07959256948672      0.58112995556569
  C   -1.13793366427101      1.15127945384813      0.80708995355421
  N   -1.61287139329509      2.12115825936052      1.26852884741446
  N   1.65807724758079      0.73359066141734     -0.35721628479566
  O   1.40118862167148      1.91571252824264     -0.15168281537000
  O   2.49655197748561      0.29328186394742     -1.13795937824745
