13
Coordinates from ORCA-job run
  C   -0.61391554991749     -0.13123204459823      0.16012853745006
  C   0.88725391879550     -0.35522339674078      0.32750841132274
  Cl  -0.98575247063438     -0.03019799798582     -1.58388539933880
  H   1.14701777192969     -0.36929168482959      1.38870260751727
  H   1.14729643684398     -1.29157548099353     -0.15944921148090
  N   -1.26746716652760     -1.31374068729877      0.68519731146218
  H   -1.16726578068066     -1.33353792778599      1.69588745551120
  H   -2.25818050224160     -1.27920406539901      0.47029211546360
  C   -1.08594262018108      1.10998805140608      0.79615010342958
  N   -1.50751638306363      2.02014416945318      1.40934343626524
  N   1.69922139407083      0.72346851696504     -0.30156293346860
  O   2.46785225263351      0.38983474163021     -1.19867159469327
  O   1.53739869897295      1.85956780617722      0.13535916055973
