13
Coordinates from ORCA-job run
  C   -0.79463951928284     -0.09324648973607      0.02504682000054
  C   0.66864085055409     -0.10760531097980     -0.46355712263582
  Cl  -1.75688788820478     -0.51617370848603     -1.43255363828501
  H   0.95278515517914     -1.12961190749165     -0.71630832738073
  H   0.81341062514429      0.56735750905895     -1.30431878289153
  N   -1.15321197019264     -1.00799186817761      1.06992045130859
  H   -0.62670229351584     -0.79988692206725      1.91132235532638
  H   -0.94647856978288     -1.95867116177226      0.78468517006882
  C   -1.14730948290460      1.27029377811419      0.44138137656640
  N   -1.38641867733471      2.36547872950737      0.79212323499610
  N   1.57374775937396      0.35418357137838      0.62787557023363
  O   1.68987804363090     -0.39316430184875      1.59985685971374
  O   2.11218596733591      1.44903808250052      0.49052603297885
