13
Coordinates from ORCA-job run
  C   -0.79536157517285     -0.08690116285664      0.02734806097798
  C   0.66387354357165     -0.08851784786547     -0.47329246453004
  Cl  -1.76837619049678     -0.48058022517333     -1.43141989136611
  H   0.94568185721578     -1.10375455065995     -0.75410926023114
  H   0.80181434800457      0.60758646221222     -1.29782521015358
  N   -1.14311508771733     -1.02423653640393      1.05544199285237
  H   -0.61756983665649     -0.82790359794992      1.90017286841385
  H   -0.92993757401352     -1.96776586731561      0.75195364152770
  C   -1.14834900675986      1.26602136964299      0.47667049172657
  N   -1.39977699060531      2.34553201695250      0.86531325157674
  N   1.57705873093467      0.34511987673232      0.62267838947924
  O   1.71114064528943     -0.43322144107370      1.56763542494603
  O   2.10291713640605      1.44962150375851      0.51643270478037
