13
Coordinates from ORCA-job run
  C   -0.63291598117052     -0.05777395531371      0.20238303268836
  C   0.85286364426569     -0.35027372905016      0.00154895611701
  Cl  -1.25218355479123      0.80649317816657     -1.23210055948361
  H   0.96596573389765     -0.92913138926189     -0.91157856580541
  H   1.24353300458638     -0.88452866356968      0.86994430453678
  N   -1.29956376521795     -1.34213882288773      0.27041872667182
  H   -1.06512317869716     -1.79875423569960      1.14688141237306
  H   -2.30452303764166     -1.20725092713210      0.24610791721088
  C   -0.89423749738599      0.78863387607179      1.37934097361585
  N   -1.18453461453371      1.36586793326758      2.36154304067088
  N   1.65764058186244      0.89412801049381     -0.13815737661406
  O   1.79031511117974      1.57526492590985      0.87636707797590
  O   2.12276355364636      1.13946379900528     -1.24769893995746
