13
Coordinates from ORCA-job run
  C   -0.72160796141321     -0.14793302105784     -0.00652724168790
  C   0.74563359408230     -0.19937275401364     -0.42047701097987
  Cl  -1.63573759508553     -0.65384697307735     -1.46774863268713
  H   0.92967799627920      0.39791322972687     -1.31212543563471
  H   1.02276984218635     -1.23923364778411     -0.60121703980764
  N   -1.00135155236094     -1.10090087727777      1.03373733496238
  H   -0.52219568270378     -0.80995831376704      1.87872489677928
  H   -1.99826130210107     -1.13944533990126      1.21265167906355
  C   -1.12762358484553      1.23865657761523      0.29049779826950
  N   -1.45921054304606      2.33240343284965      0.56521884685405
  N   1.68214197624256      0.31992822385953      0.62848117418562
  O   2.82471488753855      0.54306543594744      0.25091500437853
  O   1.26104992522712      0.45872402688030      1.77586862630434
