13
Coordinates from ORCA-job run
  C   -0.71106680041869      0.01670916442597      0.31187139902754
  C   0.75636626708740     -0.31966862683146      0.01238577645803
  Cl  -1.32603872108465      0.99738350160524     -1.05775275575231
  H   1.18696022319948     -0.84843818126278      0.86543642598307
  H   0.80584555165114     -0.92259347783029     -0.89298645178168
  N   -1.53517873914169     -1.16025430422692      0.42265446230197
  H   -1.43243824005097     -1.75556478954411     -0.39061313640381
  H   -1.32597044872734     -1.67618330686898      1.26911854460183
  C   -0.85904128767990      0.78523481771223      1.55271998742711
  N   -0.99908430497755      1.33832598538129      2.57910798321528
  N   1.60332777885308      0.88431321354618     -0.22626959878984
  O   2.12213796510370      0.99320082727162     -1.33363289759061
  O   1.71418075618596      1.66753517662200      0.71296026130341
