13
Coordinates from ORCA-job run
  C   -0.70570898070204     -0.04132249522073      0.23227286385967
  C   0.79733506509373     -0.34575421139413      0.29169500669784
  Cl  -1.16502926094646      0.04538023587871     -1.49950998069178
  H   1.12987703227432     -0.32448982633694      1.33185190571487
  H   0.98256389638345     -1.31831090228869     -0.16163620120202
  N   -1.50187052985985     -1.06905000312890      0.85338386704098
  H   -1.39378403351402     -1.05933099044796      1.86061476997230
  H   -1.27501974599324     -1.98301479870498      0.47993627571360
  C   -1.03859958977000      1.23291424734362      0.87878254612983
  N   -1.34499600946963      2.20533304817796      1.46150102092093
  N   1.63177379125014      0.64100221162150     -0.45246757813478
  O   1.57542270049824      1.80478288825978     -0.06512031236977
  O   2.30803566475536      0.21286059624076     -1.38330418365165
