13
Coordinates from ORCA-job run
  C   -0.63681495864458     -0.06372834902045      0.22021957716126
  C   0.84436671125121     -0.30980956235097     -0.06221133915848
  Cl  -1.33285834467852      0.89296010583053     -1.11664539989970
  H   1.27700489941652     -0.90823702141948      0.74185126142356
  H   0.92986564167815     -0.80696844692723     -1.02516790168430
  N   -1.27691325487710     -1.36331778923693      0.21833296441423
  H   -0.99983373367801     -1.87806966325664      1.04889561235740
  H   -2.28434084901875     -1.24831720047484      0.24176621575257
  C   -0.86061320082674      0.68656116584388      1.46791740317287
  N   -1.10950794426291      1.18387247872334      2.50372501598626
  N   1.62268555021504      0.95743020801574     -0.12491207530283
  O   1.81549563166236      1.53291833813016      0.94411437255199
  O   2.01146385176327      1.32270573614286     -1.23088570677489
