12
Coordinates from ORCA-job run
  C   -0.70872800761383     -0.10670050403262     -0.31460884928133
  C   0.67309729868928      0.23982510045474      0.20228406292728
  F   -0.86437903681225      0.43719104728278     -1.57812990712811
  H   0.78196305896849      1.31778527186109      0.06246312035843
  H   -0.79645504795195     -1.19351920642400     -0.45535708038285
  H   0.71235116343241      0.04875317397338      1.28372904938464
  N   -1.72200239740642      0.48853674308915      0.51949964034465
  H   -2.63904017120997      0.26493518624446      0.15334300173341
  H   -1.66059501231330      0.12472440589878      1.46169980306710
  N   1.69610794342399     -0.48423559963314     -0.54632127033983
  H   2.05843296756893     -1.25977254831887     -0.01060576590992
  H   2.46924724122461      0.12047692960424     -0.77899580477348
