12
Coordinates from ORCA-job run
  C   -0.72932728582504     -0.29458198501227      0.52462608923368
  C   0.70219923527847     -0.51541951090451      0.06993748560336
  F   -1.21344841577664     -1.52773015198501      0.96347694509781
  H   0.65320549066263     -1.25104796926652     -0.73612955564184
  H   -0.76749137122738      0.34760999770396      1.41746513623820
  H   1.26641602738106     -0.95814938248864      0.89995212723191
  N   -1.51263397628566      0.16689019169085     -0.56936684584037
  H   -0.94185795677880      0.78531966697035     -1.13249213762347
  H   -2.34486127956837      0.65064607635724     -0.26331003337791
  N   1.25918772641489      0.72918550308335     -0.45929540144962
  H   1.54776174540777      1.33273436941421      0.30112238634510
  H   2.08085006031707      0.53554319443699     -1.01598619581684
