12
Coordinates from ORCA-job run
  C   -0.74841969097165     -0.35087415649713     -0.21193840388426
  C   0.60106220762042      0.31379013344839      0.01812623265824
  F   -0.99241710034206     -0.33213772312901     -1.57661546110285
  H   0.71280865590718      0.47901356028709      1.10059363441931
  H   -0.71683318954806     -1.40344208842198      0.08855435143288
  H   0.54601577154712      1.29770213722495     -0.45950272928311
  N   -1.84119149995807      0.28569968647864      0.45813415236756
  H   -2.02309089356804     -0.11588624409107      1.36486671955116
  H   -1.70660242903033      1.28397899905489      0.54456183659637
  N   1.68771331043040     -0.44395284010736     -0.58893682261738
  H   2.00204429100789     -1.17206259981365      0.03915937677233
  H   2.47791056690521      0.15717113556624     -0.77700288691026
