17
Coordinates from ORCA-job run
  C   -0.53015322310389     -0.21204719961278      0.43513941746931
  C   0.64299992848352      0.01325951679192     -0.53992254550345
  Br  0.04500227233490     -1.19243398398253      1.99732501142844
  H   0.20986993358836      0.55322895663700     -1.39011099668487
  C   -1.71013293507822     -0.91922689592069     -0.20635274297869
  H   -2.03149579160692     -0.36482874323321     -1.08987965499579
  H   -1.41799402081792     -1.92935044252815     -0.49472409173387
  H   -2.53944096653915     -0.98383067482451      0.50011541850000
  N   -0.99452578511006      1.19411718762297      0.83663740550876
  O   -0.96473734352460      1.54735419700683      2.00494692487989
  O   -1.36606660612194      1.87447749651646     -0.11750653907492
  C   1.11731302763312     -1.27861305391895     -1.03379351772774
  N   1.51103712835393     -2.30607169493971     -1.44444083482503
  C   1.79198894523824      0.84388767750789      0.03611709283372
  H   2.55556117742093      0.98760824997445     -0.73008805279572
  H   2.24637951514631      0.34477679454936      0.89169117066452
  H   1.43339474370340      1.82769261235365      0.34484653503544
