17
Coordinates from ORCA-job run
  C   -0.60056810784151     -0.31047603908900      0.40419273797462
  C   0.91415456908891     -0.19180317214181      0.15772048487651
  Br  -1.08640150018319     -2.19268849471790      0.55673014643391
  H   1.41598564729326     -0.72441134872408      0.96947650734573
  C   -1.46450795499686      0.36601570992907     -0.63132144071897
  H   -2.51559267329618      0.27892460456030     -0.36515489275110
  H   -1.20667671213650      1.42623006068084     -0.69210158061621
  H   -1.30735882919660     -0.10403004982471     -1.60200208719868
  N   -0.88043444949316      0.28026556419048      1.79370123825691
  O   -1.90454506272260      0.93863212776872      1.92808385309970
  O   -0.05966464565371      0.03057114370400      2.66858055998643
  C   1.27704715438836      1.22522270398871      0.26641529375320
  N   1.55117171002806      2.36640510189241      0.31632712464976
  C   1.37192522267605     -0.74507968931129     -1.19460509101408
  H   0.96293817176984     -0.16514638480536     -2.02249266215664
  H   1.07321728191332     -1.78789368631872     -1.30173377437363
  H   2.46031017836252     -0.69073815178164     -1.25181641754746
