17
Coordinates from ORCA-job run
  C   -0.58086813126009     -0.33107878245193      0.41658989112196
  C   0.92213710762496     -0.17976633700076      0.12117193954717
  Br  -1.02997010502919     -2.22451553944589      0.53789424897519
  H   1.46084884259283     -0.72350835319244      0.90125650571390
  C   -1.49162767487879      0.35600186073816     -0.57070830139663
  H   -1.25280253497618      1.42152137717693     -0.61435488351431
  H   -1.36188621346625     -0.08780925248624     -1.55770684628154
  H   -2.53095412572258      0.24506346496787     -0.26968751352228
  N   -0.82158302925210      0.22002169323634      1.82975668399920
  O   -1.85113351821201      0.85685570202549      2.01638728464109
  O   0.03376628482450     -0.03629073258042      2.66886932367668
  C   1.26459195061524      1.24041606151193      0.25306244878462
  N   1.52051380831564      2.38477061490876      0.32224411096935
  C   1.34139486096013     -0.69134124714750     -1.25973942233460
  H   1.05756788432183     -1.73661931056597     -1.38219554532388
  H   0.89307648386995     -0.09926048871125     -2.05812406477171
  H   2.42592810967209     -0.61546073098309     -1.35371586028422
