17

C	-0.458083	0.008265	-1.470608
C	0.0	0.0	0.0
F	-0.13107	-1.274513	-1.971682
H	1.092337	0.0	0.0
C	-1.950429	0.162252	-1.674521
H	-2.483304	-0.656699	-1.191393
H	-2.164181	0.13202	-2.746348
H	-2.298337	1.109417	-1.263133
N	0.283169	1.037632	-2.089587
H	1.281501	0.914544	-1.926554
H	0.087242	1.08659	-3.081262
N	-0.488732	-1.250296	0.677377
O	-1.642716	-1.235701	1.114543
O	0.277686	-2.202972	0.714186
C	-0.508936	1.159781	0.715145
N	-0.918327	2.098026	1.290502
Br	3.403716	0.0	0.0
