17

C	-0.390675	0.091047	-1.493317
C	0.0	0.0	0.0
F	-0.145243	-1.206705	-2.01057
H	1.092263	0.0	0.0
C	-1.849017	0.377716	-1.773422
H	-2.00398	0.376149	-2.855872
H	-2.130002	1.350549	-1.371064
H	-2.476587	-0.39412	-1.32923
N	0.464462	1.065648	-2.0455
H	1.441278	0.871541	-1.824827
H	0.333825	1.14702	-3.045267
N	-0.52697	-1.272634	0.587026
O	-1.715501	-1.280097	0.918034
O	0.242326	-2.220482	0.660141
C	-0.515102	1.132648	0.752058
N	-0.932714	2.052224	1.351292
Br	3.420564	0.0	0.0
