17

C	-0.342365	0.068052	-1.49582
C	0.0	0.0	0.0
F	-1.726771	-0.012952	-1.663395
H	1.107705	0.0	0.0
C	0.100676	1.407101	-2.055158
H	1.170972	1.534311	-1.876285
H	-0.089748	1.413098	-3.132089
H	-0.45242	2.231273	-1.600948
N	0.243	-1.078736	-2.124186
H	0.321129	-0.914491	-3.120272
H	1.175665	-1.246161	-1.751966
N	-0.494824	-1.289631	0.580649
O	0.25144	-2.257081	0.490493
O	-1.620231	-1.289338	1.078398
C	-0.55572	1.114501	0.746718
N	-0.978899	2.045575	1.324431
Br	3.379582	0.0	0.0
