17

C	-0.47516	-0.037339	-1.45834
C	0.0	0.0	0.0
F	-1.901231	0.069737	-1.422422
H	1.088867	0.0	0.0
C	0.056627	1.192472	-2.166978
H	-0.375098	2.099479	-1.744697
H	1.144151	1.215546	-2.070754
H	-0.217658	1.1393	-3.224322
N	-0.056327	-1.199504	-2.13448
H	-0.301542	-1.146	-3.112826
H	-0.424184	-2.034711	-1.705752
N	-0.428302	-1.163071	0.858021
O	-0.764756	-2.213423	0.314089
O	-0.364807	-0.993038	2.069846
C	-0.474434	1.213266	0.658374
N	-0.854726	2.213257	1.142027
Br	3.354209	0.0	0.0
