15

C	0.0	0.0	0.0
C	-0.540267	0.244595	-1.422562
Cl	1.792474	0.0	0.0
H	-1.628622	0.375557	-1.272568
C	-0.416107	0.979345	1.012368
N	-0.564703	1.719124	1.91346
C	-0.404726	-1.343066	0.431579
N	-0.605163	-2.444585	0.788215
N	-0.252953	-0.84602	-2.271053
H	-0.977709	-0.954172	-2.96568
H	0.644223	-0.743771	-2.725768
N	0.011067	1.570519	-1.929457
O	-0.119468	2.545542	-1.197923
O	0.524681	1.582964	-3.047643
Cl	-3.324992	0.0	0.0
