15

C	0.0	0.0	0.0
C	-0.420111	-0.203985	-1.509719
Cl	1.786304	0.0	0.0
H	0.508956	-0.29815	-2.07531
C	-0.400884	1.331659	0.468996
N	-0.588059	2.40088	0.918856
C	-0.434595	-0.991591	0.98784
N	-0.643015	-1.703965	1.898893
N	-1.166731	0.866082	-2.021223
H	-1.304793	0.748771	-3.017606
H	-2.074865	0.872157	-1.539416
N	-1.007597	-1.61563	-1.737389
O	-1.818403	-1.727182	-2.646322
O	-0.481662	-2.53701	-1.119036
Cl	-3.229264	0.0	0.0
