15

C	0.0	0.0	0.0
C	-0.556314	0.022052	-1.474027
Cl	1.790291	0.0	0.0
H	-1.540192	0.48796	-1.390482
C	-0.402703	1.171887	0.785663
N	-0.573006	2.126137	1.451533
C	-0.423513	-1.240459	0.653632
N	-0.566498	-2.302818	1.137972
N	-0.683354	-1.225698	-2.117998
H	0.117767	-1.831922	-1.989889
H	-1.531716	-1.665565	-1.778064
N	0.322354	0.956679	-2.262017
O	1.033277	0.495058	-3.149106
O	0.270296	2.137698	-1.92688
Cl	-3.241584	0.0	0.0
