16

C	0.060139	-0.011762	0.037516
C	-0.53222	-0.132921	-1.365232
F	1.457939	-0.134951	-0.06239
H	-1.632963	-0.131631	-1.242748
C	-0.191682	1.340329	0.56838
N	-0.326524	2.388673	1.078378
C	-0.468655	-1.071811	0.978368
H	-1.558652	-0.996884	1.017234
H	-0.187241	-2.057465	0.602062
H	-0.041807	-0.932858	1.973311
C	-0.142287	-1.434151	-1.935116
N	0.200234	-2.439429	-2.438588
N	-0.137972	0.99451	-2.19338
H	-0.840605	1.147733	-2.904796
H	0.75532	0.826495	-2.637645
Br	-3.908253	-0.176278	-0.667144
