15
Coordinates from ORCA-job run
  C   0.96281773197594      0.11683975391780      0.47134871970101
  C   -0.33288564037045     -0.21911671468033     -0.31222330645198
  Cl  0.79798031643241      1.50864045626402      1.58086531538651
  H   -0.16605970539851     -1.18871122726685     -0.78757443031139
  C   1.27828377509829     -1.06292306011755      1.28438228686215
  N   1.48726444715436     -2.02685829500299      1.92374700678627
  C   2.06354329605327      0.37011766116203     -0.46221090168282
  N   2.93138650906967      0.55131171116238     -1.23406721782435
  N   -0.51441988846648      0.73397502352801     -1.45795360014083
  O   -0.82248971534295      0.22955713017471     -2.53366314042398
  O   -0.38820209752976      1.93084523269405     -1.21946339684977
  C   -1.58971197865618     -0.22870932897269      0.53488095674372
  H   -1.81378926057468      0.77267949056300      0.90036638812997
  H   -2.42371785221637     -0.58427085158638     -0.07264662271999
  H   -1.46799993722856     -0.90337698183923      1.38421194279550
