15
Coordinates from ORCA-job run
  C   1.05088948938010     -0.31643313741200      0.17597184620431
  C   -0.30400555771345     -0.14217783624427     -0.54597318144474
  Cl  1.53020021108065     -2.03881827823146     -0.03296714745537
  H   -0.18421038371376     -0.50019499300600     -1.57076408278158
  C   2.08485688333851      0.50916200463673     -0.45036010478748
  N   2.91177854336738      1.14103965026253     -0.99630984139404
  C   0.95689898685123     -0.04346429530265      1.61002394844590
  N   0.86347537424038      0.11582752138147      2.77053394664715
  N   -0.62422931613277      1.32244343189083     -0.66844436187186
  O   -0.13419429413524      2.08364239686452      0.16300646959324
  O   -1.39724102740664      1.62285342705328     -1.57018650890110
  C   -1.47044369045310     -0.81545273126933      0.15433039449750
  H   -1.62969752760541     -0.37552561137119      1.14093945263350
  H   -2.36958509439513     -0.67847752666319     -0.44743288959375
  H   -1.28449259670272     -1.88342402258926      0.26563206020829
