15
Coordinates from ORCA-job run
  C   0.93697000898288      0.16054368629048      0.44160151479351
  C   -0.32812634609522     -0.22242998319853     -0.37185013636821
  Cl  0.73950108726036      1.75704676011879      1.22696166562695
  H   -0.08660362208254     -1.14647795752396     -0.90408918412926
  C   1.12839601160141     -0.85596324217393      1.48020817417054
  N   1.25652792186104     -1.68903513863892      2.29948304064697
  C   2.13612667366950      0.20104078985939     -0.40038387047904
  N   3.12108004308118      0.21627884403148     -1.04192016484716
  N   -0.50974858976201      0.80434809140864     -1.46062345744890
  O   -1.33155198574204      1.69543780281219     -1.27249054150962
  O   0.19919099297464      0.66147573073045     -2.45474812921908
  C   -1.57805139104292     -0.36335721209394      0.46573690628064
  H   -1.80686517251011      0.55967333983525      0.99430230897419
  H   -1.45490982169333     -1.17669366193936      1.18278698176087
  H   -2.42093581050285     -0.60288784951803     -0.18397510825240
