15
Coordinates from ORCA-job run
  C   1.10285925769802     -0.16646150472203      0.08017133604800
  C   -0.33161466926799     -0.31927771908157     -0.46858160525121
  Cl  2.27516748897982     -0.28222821585251     -1.26742609701941
  H   -0.40116799361964     -1.30150053714885     -0.93922804277542
  C   1.31233320245396      1.08503668509430      0.81246310573986
  N   1.49208412758274      2.04517930894124      1.46613828212846
  C   1.33737003191538     -1.28807781576655      0.99519487148502
  N   1.47981383722486     -2.20059702800749      1.72237364308277
  N   -0.55604973547775      0.66397211674211     -1.57927866855267
  O   -1.06554562774377      0.22034334425430     -2.60350575610717
  O   -0.25374329012510      1.83172262035076     -1.35666622491505
  C   -1.39587420792671     -0.10756710884864      0.59233643733318
  H   -1.27449032016107     -0.82797350448723      1.40301554244714
  H   -1.33892293714018      0.90425372526738      0.99697334121279
  H   -2.38121916439256     -0.25682436673521      0.14701983514371
