15
Coordinates from ORCA-job run
  C   1.02311404211607     -0.31070023975998      0.30429395611442
  C   -0.26257818080804     -0.20706740916181     -0.54664356645118
  Cl  1.46742554574364     -2.05390899866516      0.36033994846517
  H   -0.06957608698894     -0.69785632899035     -1.50296414158133
  C   2.12812424002363      0.40731638438217     -0.33328997737480
  N   3.01294024173875      0.94972505474173     -0.88467372544125
  C   0.82050363924702      0.14967064248447      1.67787729545742
  N   0.63958759602119      0.46064944743118      2.79657811960611
  N   -0.52764898723246      1.23503323094782     -0.88309443913469
  O   -0.08480539692876      2.08884591122900     -0.11808166513308
  O   -1.21335881664150      1.42985828963853     -1.87951017194660
  C   -1.50166731305372     -0.76147916976825      0.13242489619995
  H   -1.72985958728161     -0.19261273225001      1.03613251645343
  H   -2.34396909331588     -0.69006828130296     -0.55661393284981
  H   -1.35523184263939     -1.80840580095638      0.39722488761626
