15
Coordinates from ORCA-job run
  C   1.10668779533629     -0.14777134375452      0.08376269645740
  C   -0.32189913075758     -0.31855125989194     -0.47395455905186
  Cl  2.28687709560099     -0.23210491664451     -1.25942711923629
  H   -0.37102530782475     -1.29568113660469     -0.95758870618158
  C   1.29395757097170      1.09913546902041      0.82958741155788
  N   1.45901110550671      2.05455786437872      1.49398486942630
  C   1.35395410848227     -1.27514421022663      0.98838928762082
  N   1.49632223067857     -2.19858120822152      1.70173866545451
  N   -0.56014006345594      0.67502672184019     -1.57237555845153
  O   -0.27613829926537      1.84461819277665     -1.33523816994561
  O   -1.06881557952680      0.23705323707255     -2.59930431450422
  C   -1.39608303686391     -0.14023987622479      0.58342488901646
  H   -1.35387473675105      0.86406184640457      1.00843315563223
  H   -2.37612765908646     -0.29184106758060      0.12709117542623
  H   -1.27270609304465     -0.87553831234389      1.38047627677932
