15
Coordinates from ORCA-job run
  C   1.09052734306401     -0.22534693959435      0.06308827132870
  C   -0.36217323610985     -0.31476866347670     -0.45144381666600
  Cl  2.22386780870542     -0.44032945898657     -1.30588780639468
  H   -0.49229121681678     -1.30319900635919     -0.89539048961505
  C   1.38537886368943      1.03352821522330      0.75177337492009
  N   1.63546011288876      2.00296934127240      1.36766853132538
  C   1.28570016159374     -1.33169032978811      1.00538767989661
  N   1.39622475652957     -2.22982093347915      1.75568342954016
  N   -0.55113243622045      0.65053671029383     -1.58449275048861
  O   -0.24626627143128      1.81965782156587     -1.37045493271519
  O   -1.02888305520120      0.19428347249797     -2.61842797722865
  C   -1.38873779383062     -0.01617046894572      0.62467296513967
  H   -1.26199819139524      0.99925316013703      1.00329081519714
  H   -2.39128633835738     -0.11374028999734      0.20365414868060
  H   -1.29439050710810     -0.72416263036328      1.44987855707980
