15
Coordinates from ORCA-job run
  C   0.92178523318131     -0.45601185478116      0.42110216328859
  C   -0.42771256448665     -0.35108996372588     -0.32407609294346
  Cl  0.81997562220788     -1.91405194102279      1.47152696627664
  H   -0.60925794631909     -1.30690402301146     -0.82013631240786
  C   2.02245841158152     -0.66541966923850     -0.52112794166333
  N   2.88611289649697     -0.87712063982877     -1.28955902644779
  C   1.17786723635427      0.70213171517353      1.27710405646507
  N   1.35225954179443      1.60418589606081      2.00982388712288
  N   -0.31312117552704      0.65989156498918     -1.43208858162906
  O   -1.10794335794480      0.52771172966967     -2.35493667912473
  O   0.52166924493449      1.55259641872682     -1.30362650195310
  C   -1.59294020791149      0.05716475694294      0.55882277788103
  H   -1.71795266100105     -0.65088980019621      1.37770433124626
  H   -1.42986600312883      1.05524858219329      0.97062535438941
  H   -2.50433427023187      0.06255722804854     -0.04015840050051
