15
Coordinates from ORCA-job run
  C   0.98565112556151      0.07606210522736      0.35036516511303
  C   -0.37865023494407     -0.18531006049492     -0.34199129643555
  Cl  0.99222322527602      1.65813311296900      1.18769533731684
  H   -0.26310371733783     -1.10837659254649     -0.91640918242956
  C   1.19667732940249     -0.98305763056897      1.34150758582012
  N   1.33704596738525     -1.84988712951779      2.12293839214179
  C   2.09574885322091      0.05041379515289     -0.60651435150273
  N   3.00931983940825      0.01022262598291     -1.34509613226998
  N   -0.58463014066427      0.88539523261161     -1.38314472155127
  O   -1.30936548692533      1.83151781235524     -1.09203566822286
  O   0.00830881061806      0.71876018326598     -2.44704934894245
  C   -1.54872223377939     -0.25679421245021      0.61191498580115
  H   -1.65054901922237      0.66326794879109      1.18360776749422
  H   -2.46682565969994     -0.40886918147707      0.04291206120759
  H   -1.42212865829928     -1.10047800930063      1.29229940645964
