15
Coordinates from ORCA-job run
  C   1.04653103539017     -0.34163867257508      0.14416530076491
  C   -0.32839539454142     -0.14438881552717     -0.53249940672954
  Cl  1.47366880338545     -2.07906111091190     -0.05041626309807
  H   -0.25402701653121     -0.52266385923244     -1.55429238271602
  C   2.07842435504199      0.44625987595111     -0.53233929541683
  N   2.90392069314707      1.04755158734039     -1.11389287283927
  C   1.01230045474323     -0.04088653515870      1.57531932463798
  N   0.97658299453207      0.14393533987937      2.73529690579599
  N   -0.61468688231278      1.32619142252128     -0.67043090302128
  O   -0.07592867900948      2.08851154256378      0.12903964546218
  O   -1.41050603980765      1.63133508294990     -1.55048324360442
  C   -1.48579842414529     -0.77386681403972      0.22097493382240
  H   -1.59892353970449     -0.31135617662828      1.20369720056900
  H   -1.32285111767613     -1.84397110818629      0.34689567063547
  H   -2.40231124251148     -0.62495175894624     -0.35103461426254
