15
Coordinates from ORCA-job run
  C   1.09696745852525     -0.18946659772079      0.06928170187573
  C   -0.34799560904371     -0.32115606521180     -0.45794018739636
  Cl  2.24747270213416     -0.35077827200012     -1.29256259910648
  H   -0.44257614893185     -1.30829880348621     -0.91354832128499
  C   1.34291618201628      1.07099340939970      0.77422718083580
  N   1.55462419251352      2.04116668053007      1.40313431435211
  C   1.32237069482867     -1.29876327528363      1.00121360291518
  N   1.45768477374390     -2.20063362248707      1.74291619183927
  N   -0.55967751235609      0.65016445865531     -1.58138612568929
  O   -1.00534068973979      0.18912241840428     -2.62746714186172
  O   -0.30301591094661      1.82728142943887     -1.34888236855062
  C   -1.39209719985939     -0.07006796331731      0.61359830517591
  H   -2.38732611746634     -0.19482946357985      0.18247652945339
  H   -1.30173073598842      0.94329178194243      1.00781001193254
  H   -1.28127607942962     -0.78702611528381      1.42912890550955
