13

C	-0.494581	0.046377	-1.443602
C	0.0	0.0	0.0
F	-0.19226	-1.188481	-2.023649
H	1.093809	0.0	0.0
H	-1.587936	0.134744	-1.477912
H	-0.342588	-0.925753	0.471224
C	0.173653	1.140717	-2.243521
H	1.25791	1.035139	-2.161381
H	-0.11474	2.121863	-1.857562
H	-0.126756	1.073122	-3.291849
C	-0.5149	1.141274	0.74722
N	-0.954076	2.074852	1.307838
Br	3.568312	0.0	0.0
