13

C	-0.513056	-0.028648	-1.436687
C	0.0	0.0	0.0
F	-0.134305	1.176661	-2.029407
H	1.093035	0.0	0.0
H	-0.002805	-0.825308	-1.986452
H	-0.341819	0.924657	0.47594
C	-2.016587	-0.149339	-1.566028
H	-2.304296	-0.078889	-2.617391
H	-2.501074	0.664377	-1.019645
H	-2.36985	-1.10135	-1.165478
C	-0.499342	-1.144196	0.753755
N	-0.921903	-2.08166	1.320611
Br	3.573202	0.0	0.0
