15

C	0.0	0.0	0.0
C	-0.55284	-0.024274	-1.403001
F	1.389098	0.0	0.0
H	-0.366075	0.924882	-1.901873
H	-1.659782	-0.192029	-1.258078
C	-0.451632	1.278876	0.678325
H	-1.548765	1.28644	0.674573
H	-0.060353	1.303652	1.697936
H	-0.041129	2.124095	0.117443
C	-0.396334	-1.177578	0.8024
N	-0.585436	-2.089083	1.51762
N	0.07524	-1.054156	-2.251715
O	0.188382	-2.193859	-1.800819
O	0.427382	-0.713623	-3.386091
H	-3.068324	0.0	0.0
