15

C	0.0	0.0	0.0
C	-0.35786	0.014427	-1.538961
F	1.385902	0.0	0.0
H	-1.410428	-0.223655	-1.63006
H	0.310139	-0.678734	-2.061566
C	-0.329162	1.287449	0.831807
H	0.169347	2.163689	0.405953
H	-1.40187	1.430685	0.855828
H	0.028161	1.099001	1.851158
C	-0.689493	-1.184792	0.543873
N	-0.795302	-2.243645	1.099966
N	-0.167307	1.350223	-2.126147
O	-1.10293	2.147636	-2.048301
O	0.962626	1.657092	-2.519225
H	-2.248094	0.0	0.0
