15

C	0.0	0.0	0.0
C	-0.600971	-0.005341	-1.377091
F	1.389092	0.0	0.0
H	-0.422922	0.93845	-1.889173
H	-1.719522	-0.138893	-1.153101
C	-0.483465	1.247177	0.71548
H	-0.091346	1.262536	1.734395
H	-0.129328	2.129099	0.17446
H	-1.581995	1.20018	0.719508
C	-0.37744	-1.189568	0.80031
N	-0.510744	-2.08527	1.547796
N	-0.073724	-1.060076	-2.248707
O	0.054032	-2.193982	-1.781445
O	0.17401	-0.758149	-3.422786
H	-3.022079	0.0	0.0
