15

C	0.0	0.0	0.0
C	-0.614216	0.014693	-1.369721
F	1.389212	0.0	0.0
H	-1.736592	-0.117901	-1.126448
H	-0.448389	0.96627	-1.871548
C	-0.477604	1.238334	0.73626
H	-0.079805	1.238375	1.753056
H	-1.575779	1.196358	0.746069
H	-0.123315	2.12673	0.205943
C	-0.375109	-1.199353	0.787067
N	-0.52742	-2.102654	1.521541
N	-0.106521	-1.026708	-2.264491
O	0.083552	-2.15486	-1.80334
O	0.059783	-0.723759	-3.45249
H	-3.012693	0.0	0.0
