15

C	0.0	0.0	0.0
C	-0.606099	0.043805	-1.383819
F	1.385883	0.0	0.0
H	-0.321638	-0.829188	-1.968138
H	-1.72875	0.071407	-1.146671
C	-0.469527	1.101844	0.927434
H	-0.083112	0.908938	1.930866
H	-1.566775	1.074739	0.920201
H	-0.104687	2.061256	0.565989
C	-0.380699	-1.31949	0.564881
N	-0.521974	-2.389463	1.027902
N	-0.195386	1.212689	-2.169173
O	0.357628	1.004393	-3.257257
O	-0.463862	2.338526	-1.738931
H	-3.035575	0.0	0.0
