16

C	-0.455936	0.067677	-1.460694
C	0.0	0.0	0.0
Cl	-0.467915	-1.547521	-2.262387
H	1.090851	0.0	0.0
H	-1.490709	0.421382	-1.518111
C	0.527018	0.979564	-2.177297
H	1.536549	0.66678	-1.894581
H	0.377486	1.997472	-1.811067
H	0.381909	0.956206	-3.259948
N	-0.577665	-1.223168	0.663801
O	0.111455	-2.233277	0.75111
O	-1.747465	-1.143601	1.069086
N	-0.454185	1.202536	0.646724
H	0.186345	1.415732	1.401175
H	-1.389995	1.072959	1.012458
F	2.632372	0.0	0.0
