16

C	-0.237104	-0.009063	-1.502647
C	0.0	0.0	0.0
Cl	-2.008805	-0.049374	-1.938124
H	1.092305	0.0	0.0
H	0.099339	0.977502	-1.827516
C	0.547664	-1.069438	-2.244606
H	1.562039	-1.00399	-1.834778
H	0.148035	-2.065649	-2.060784
H	0.543552	-0.86881	-3.319238
N	-0.550136	-1.250532	0.601588
O	0.027415	-2.306716	0.334625
O	-1.561731	-1.178422	1.300634
N	-0.487663	1.13816	0.711658
H	0.229246	1.84894	0.690384
H	-1.361197	1.490668	0.34371
F	2.602127	0.0	0.0
