16

C	-0.461129	0.005528	-1.467715
C	0.0	0.0	0.0
Cl	0.040556	1.559246	-2.217609
H	1.090765	0.0	0.0
H	0.106154	-0.764403	-1.986627
C	-1.954242	-0.168616	-1.676118
H	-2.204953	-0.130527	-2.73868
H	-2.277401	-1.134028	-1.279684
H	-2.514182	0.622831	-1.171464
N	-0.496973	-1.311893	0.522011
O	-0.10818	-2.319981	-0.073924
O	-1.303068	-1.337896	1.454712
N	-0.445775	1.059923	0.841789
H	-1.370181	1.408425	0.625334
H	0.235738	1.801368	0.780561
F	2.566621	0.0	0.0
