16

C	-0.26336	-0.008067	-1.495905
C	0.0	0.0	0.0
Cl	-2.045199	0.006912	-1.901016
H	1.09228	0.0	0.0
H	0.098841	0.9645	-1.834321
C	0.461608	-1.099356	-2.249295
H	0.036704	-2.080583	-2.042481
H	1.489454	-1.066034	-1.873586
H	0.428885	-0.911989	-3.324838
N	-0.552182	-1.246339	0.609995
O	-1.56988	-1.166702	1.300766
O	0.030727	-2.304571	0.359865
N	-0.474428	1.139332	0.719998
H	-1.362923	1.482725	0.379699
H	0.23659	1.856039	0.670931
F	2.59138	0.0	0.0
