16

C	-0.317583	-0.047799	-1.479767
C	0.0	0.0	0.0
Cl	-2.09006	-0.348771	-1.7959
H	1.092987	0.0	0.0
H	-0.161788	0.981042	-1.803174
C	0.566377	-0.980886	-2.280047
H	1.576024	-0.831137	-1.880001
H	0.522378	-0.73052	-3.343472
H	0.281141	-2.021402	-2.139935
N	-0.438595	-1.267293	0.687119
O	-0.067839	-2.339945	0.213689
O	-1.124591	-1.172283	1.710319
N	-0.516468	1.171206	0.629882
H	-1.476956	1.029486	0.918961
H	0.034887	1.354694	1.458037
F	2.595874	0.0	0.0
