18

C	-0.179355	-0.098359	-1.516212
C	0.0	0.0	0.0
Cl	0.030656	1.823983	-2.179495
H	1.090158	0.0	0.0
N	0.908848	-0.820308	-1.979762
H	1.768733	-0.548103	-1.449143
H	1.02479	-0.788309	-2.982338
N	-1.443071	-0.511569	-1.978627
H	-1.486732	-0.474997	-2.989703
H	-2.136533	0.117791	-1.592895
C	-0.518109	-1.241184	0.708824
H	-0.038653	-2.109021	0.256135
H	-1.602332	-1.342038	0.627548
H	-0.227369	-1.195486	1.761981
N	-0.664661	1.175748	0.590695
O	-1.868742	1.317664	0.340572
O	-0.030947	1.899309	1.349747
F	2.663538	0.0	0.0
