18

C	-0.139609	0.172589	-1.52172
C	0.0	0.0	0.0
Cl	-1.798764	1.217307	-1.89139
H	1.0956	0.0	0.0
N	0.953984	0.888084	-2.005338
H	1.779604	0.708714	-1.394038
H	1.142208	0.705068	-2.980932
N	-0.360119	-1.083357	-2.161905
H	-1.276357	-1.447262	-1.925713
H	-0.326551	-0.953583	-3.167213
C	-0.63679	-1.228167	0.589398
H	-0.437522	-1.26316	1.660195
H	-0.184085	-2.104446	0.125209
H	-1.722487	-1.244058	0.453305
N	-0.417613	1.230049	0.715608
O	0.154897	2.278249	0.436327
O	-1.300893	1.131918	1.575694
F	2.638797	0.0	0.0
