15

C	-0.403048	-0.001016	-1.452024
C	0.0	0.0	0.0
Cl	-2.155084	0.305225	-1.753108
H	1.102428	0.0	0.0
H	-0.174535	-0.955218	-1.913527
N	0.355492	1.020678	-2.252467
O	0.944111	0.610438	-3.250154
O	0.332415	2.18591	-1.871163
N	-0.482236	-1.274831	0.56027
H	-0.91693	-1.039373	1.443997
H	0.354106	-1.808512	0.781408
N	-0.451278	1.137146	0.778852
H	-1.264748	1.574492	0.362634
H	0.300164	1.814779	0.773047
F	2.619739	0.0	0.0
