15

C	-0.588778	-0.021601	-1.410255
C	0.0	0.0	0.0
Cl	0.054472	1.273424	-2.424054
H	1.099011	0.0	0.0
H	-1.6731	0.085419	-1.376713
N	-0.350487	-1.351406	-2.072648
O	-1.254402	-2.178152	-1.905724
O	0.697905	-1.563587	-2.662255
N	-0.425276	-1.154592	0.776541
H	-1.24626	-1.614434	0.402546
H	0.344462	-1.812517	0.785178
N	-0.531103	1.237913	0.609326
H	-0.72128	0.980812	1.571205
H	0.251076	1.885477	0.636228
F	2.638187	0.0	0.0
