15

C	-0.480832	-0.036292	-1.433448
C	0.0	0.0	0.0
Cl	0.154998	-1.407753	-2.350589
H	1.099206	0.0	0.0
H	-0.204411	0.885334	-1.93561
N	-1.989211	-0.080607	-1.493111
O	-2.555024	-1.153136	-1.288137
O	-2.56192	0.995265	-1.662308
N	-0.44728	-1.15349	0.798795
H	-0.865269	-1.869013	0.215081
H	0.405209	-1.544727	1.18742
N	-0.438955	1.276362	0.559726
H	-1.223942	1.090981	1.173852
H	0.32655	1.618309	1.130131
F	2.625372	0.0	0.0
