15

C	-0.645549	0.045935	-1.371355
C	0.0	0.0	0.0
Cl	0.062546	1.282781	-2.420153
H	1.092676	0.0	0.0
H	-1.719293	0.231102	-1.325029
N	-0.529232	-1.288559	-2.055419
O	-1.589675	-1.890722	-2.238981
O	0.581945	-1.690311	-2.363109
N	-0.376282	-1.266374	0.62276
H	-1.204734	-1.183876	1.201383
H	0.40728	-1.552942	1.19609
N	-0.392306	1.225546	0.695629
H	0.407617	1.515644	1.246996
H	-1.173761	1.057459	1.320445
F	2.618998	0.0	0.0
