15

C	-0.49601	-0.062161	-1.425259
C	0.0	0.0	0.0
Cl	-2.274462	-0.176904	-1.580091
H	1.097587	0.0	0.0
H	-0.067738	-0.91419	-1.950019
N	-0.010371	1.136223	-2.200786
O	-0.672263	2.165598	-2.191054
O	1.062956	0.973486	-2.775416
N	-0.463663	-1.228897	0.697501
H	-0.086915	-2.023086	0.182321
H	0.074443	-1.226535	1.562298
N	-0.466782	1.185778	0.667792
H	0.242371	1.472479	1.329271
H	-1.338296	0.998257	1.150495
F	2.629261	0.0	0.0
