15

C	-0.524073	-0.000887	-1.444303
C	0.0	0.0	0.0
Cl	0.026851	1.393784	-2.386243
H	1.094218	0.0	0.0
H	-1.617262	-0.004957	-1.479023
N	-0.138278	-1.265644	-2.171207
O	0.965254	-1.35819	-2.685725
O	-0.99037	-2.160499	-2.136067
N	-0.451425	-1.212007	0.6776
H	0.37246	-1.782152	0.820069
H	-1.121467	-1.75216	0.144105
N	-0.446124	1.193285	0.696764
H	0.163861	1.95973	0.439494
H	-1.405765	1.438275	0.472571
F	2.629579	0.0	0.0
