15

C	-0.432106	-0.020996	-1.440956
C	0.0	0.0	0.0
Cl	-2.218894	0.081388	-1.671085
H	1.094596	0.0	0.0
H	-0.102859	-0.937635	-1.917249
N	0.184127	1.094704	-2.238982
O	1.011207	0.764717	-3.084694
O	-0.160055	2.247715	-1.99018
N	-0.437617	-1.272644	0.575915
H	-1.232117	-1.078922	1.176331
H	0.324537	-1.574131	1.173104
N	-0.444694	1.167486	0.754425
H	0.375049	1.743738	0.903007
H	-1.115561	1.719173	0.235806
F	2.611759	0.0	0.0
