15

C	-0.67015	0.039658	-1.357244
C	0.0	0.0	0.0
Cl	-0.069357	1.357572	-2.393087
H	1.097378	0.0	0.0
H	-1.750235	0.159524	-1.269583
N	-0.476728	-1.261316	-2.076578
O	0.659813	-1.594467	-2.373781
O	-1.501414	-1.9056	-2.301855
N	-0.432833	-1.233279	0.637364
H	0.348347	-1.582698	1.176528
H	-1.21804	-1.047515	1.249748
N	-0.503131	1.170926	0.761079
H	-0.214248	2.001993	0.249689
H	0.087386	1.186905	1.591102
F	2.63984	0.0	0.0
