15

C	-0.444203	0.079531	-1.426962
C	0.0	0.0	0.0
Cl	-2.210224	0.363675	-1.659791
H	1.104932	0.0	0.0
H	-0.20401	-0.847051	-1.934422
N	0.265966	1.155233	-2.202047
O	0.199535	2.310113	-1.791323
O	0.861718	0.797753	-3.213645
N	-0.432894	-1.295079	0.511736
H	-1.265494	-1.139219	1.069712
H	0.303937	-1.624762	1.123621
N	-0.508125	1.104949	0.831975
H	-0.571815	1.936478	0.255082
H	0.247542	1.298249	1.483288
F	2.61354	0.0	0.0
