16
Coordinates from ORCA-job run
  C   0.92731785207618      0.25719367266084      0.30833029827614
  C   -0.56902516949973     -0.09880549895155      0.32616020350672
  Cl  1.33786422351457      1.49988317463418      1.50410996799466
  H   -0.77790417193697     -0.39538063605920      1.35720115307848
  C   1.34760392505030      0.67708772830620     -1.02079521363131
  N   1.58422621854570      1.05912643897235     -2.10686737041973
  N   1.70093864454739     -1.01259561521852      0.69574977967695
  O   2.61832010068017     -1.35508830923978     -0.03382269937307
  O   1.32145638994914     -1.56165713496598      1.71828876564658
  N   -0.69186773745603     -1.25688154919964     -0.54404473301121
  H   -1.25429251184778     -1.98455481835493     -0.12756747544291
  H   -1.07771600280297     -1.01090632294484     -1.44610587418335
  C   -1.44325915371359      1.07990947825412     -0.07651953927286
  H   -2.49086379467248      0.77816653536795     -0.01429897602395
  H   -1.23399211366702      1.37795638131284     -1.10787788568881
  H   -1.29680669876689      1.94654647542597      0.56905959886767
