11
Coordinates from ORCA-job run
  C   -1.23056389108721     -0.04514272109509      0.18648137851462
  C   0.21102071971839     -0.09023019589989     -0.30489946036206
  F   -2.05216060486046      0.40241666120237     -0.83008187875103
  H   0.23127573729517     -0.66201203358598     -1.24413003109438
  H   -1.31275733803278      0.62774988971660      1.04051725738202
  H   -1.55005568928035     -1.05100695716878      0.47195728461075
  N   1.02941403188396     -0.65783719966031      0.76667725357433
  H   2.01004613234703     -0.46747654178331      0.60508799781301
  H   0.90978881244384     -1.66361090119330      0.78465313065294
  C   0.68069299592220      1.26408840405871     -0.61636034430116
  N   1.07229909365023      2.34306159540897     -0.85890258803903
