11
Coordinates from ORCA-job run
  C   -1.21241739101008     -0.02180145048473      0.09973460710340
  C   0.25073089251569     -0.05502435670209     -0.31413662945052
  F   -1.59402515603566     -1.32221001905022      0.40289947095923
  H   0.32833696406663     -0.70179178544772     -1.20191359018323
  H   -1.84643796048092      0.34305524424953     -0.71002457449490
  H   -1.32963012791162      0.58914349863650      0.99587640155291
  N   1.04776113504167     -0.50025898131748      0.82224238697143
  H   0.70811448030544     -1.41038842072712      1.11015706660072
  H   2.01965035411674     -0.59811240311091      0.55527904507693
  C   0.65862101312651      1.29729254114450     -0.71387527523249
  N   0.96929579626561      2.37909613280974     -1.04523890890350
