11
Coordinates from ORCA-job run
  C   -1.24276273306919     -0.07421089607001      0.09638647452538
  C   0.22409293628917     -0.08926232336970     -0.31209133258146
  F   -1.44755596367760      0.78670544959069      1.14755257303989
  H   0.28108049903268     -0.67854136775739     -1.24365837995201
  H   -1.54322224091981     -1.07962262742816      0.40843440285158
  H   -1.86183706139763      0.24774111149126     -0.74482117105619
  N   1.05071868167701     -0.60410734389110      0.77350929114866
  H   0.81936716723355     -1.57543976881093      0.94446402678818
  H   2.03085797913541     -0.55452769072315      0.52525783427210
  C   0.66383287170675      1.27184442007194     -0.64792574771976
  N   1.02642786398966      2.34642103689654     -0.94710797131638
