11
Coordinates from ORCA-job run
  C   -1.14184328329716     -0.15544731236499      0.14019265273419
  C   0.28157745265494     -0.03673664366084     -0.40259530667216
  F   -2.03005331849485      0.46246397333910     -0.71792760634808
  H   0.29664282928364     -0.47887094170123     -1.40388798386924
  H   -1.41149399871131     -1.21265103833321      0.21663437608959
  H   -1.21693890844295      0.31894320086080      1.12269799437702
  N   1.28324397648699     -0.71577630158246      0.40784398468894
  H   1.10665471693489     -1.71252098079100      0.42379835081621
  H   1.27354128599243     -0.36779380548224      1.35901628060751
  C   0.64372307798927      1.38058713914822     -0.53935632613087
  N   0.91494616960411      2.51980271056784     -0.60741641629310
