11
Coordinates from ORCA-job run
  C   -1.15787341178590     -0.16577835993423      0.03532389858338
  C   0.29534737628895     -0.06061317331159     -0.41813189595535
  F   -1.27823577502958      0.42474680737176      1.28249943642595
  H   0.38049953268623     -0.56698782656163     -1.38692759500454
  H   -1.83806698906776      0.34135907655645     -0.65320513454780
  H   -1.43610283071125     -1.21916208856338      0.13158832282526
  N   1.26413189696566     -0.65546386138706      0.49240141629263
  H   1.11595698170724     -0.28398860568049      1.42331357969263
  H   1.12797333336109     -1.65851762548702      0.52880421948767
  C   0.64137882125413      1.35390922396213     -0.63265204975993
  N   0.88499106433117      2.48849643303506     -0.80301419803990
