11
Coordinates from ORCA-job run
  C   -1.25416331551922     -0.13225419077468      0.04881088738242
  C   0.19610798134217     -0.16187524321972     -0.39854211110825
  F   -1.32939443902989      0.52569831150628      1.26705130638708
  H   0.23350624690229     -0.69425938492105     -1.35545639815801
  H   -1.88393594787583      0.39926042516753     -0.66714381790186
  H   -1.60180393083613     -1.15651860092620      0.19187325654703
  N   0.97645120482046     -0.90956481575623      0.57549840307131
  H   1.95036813602661     -0.94285324985327      0.30111515769712
  H   0.92193913186075     -0.44014931014404      1.47157131856441
  C   0.68268705030339      1.21587423572290     -0.63295002691452
  N   1.10723788200539      2.29764182319848     -0.80082797556672
