11
Coordinates from ORCA-job run
  C   -1.14322099692407     -0.11574425464334      0.13392061959540
  C   0.27479661385524     -0.00835368562995     -0.42410102953135
  F   -1.45536035155682     -1.46423750181453      0.22794515740173
  H   0.27308602136250     -0.46708727850970     -1.41896332652486
  H   -1.87375718149953      0.36301201601509     -0.52249038485063
  H   -1.19542803345631      0.31861727546535      1.13577546258831
  N   1.29867796075271     -0.67670044679631      0.36569960061139
  H   1.34290110974909     -0.27192469243646      1.29407091097635
  H   1.04454970375094     -1.65245242093336      0.46272185997928
  C   0.60680231875203      1.41277944184094     -0.58307324460143
  N   0.82595283521422      2.56209154744226     -0.67150562564419
