11
Coordinates from ORCA-job run
  C   -1.24653976790883     -0.15623669492579      0.12228298935479
  C   0.17326702057595     -0.14745580820186     -0.41436762827948
  F   -1.25623047690255      0.46289919566053      1.36315549136449
  H   0.15928038211696     -0.65353561900733     -1.38600763037895
  H   -1.56920820479210     -1.19030138115662      0.25406736096407
  H   -1.92762496765876      0.38605763787224     -0.53640464232253
  N   1.02490636669933     -0.90706165526658      0.48823086087942
  H   1.01841673814457     -0.46308641425315      1.39876023856705
  H   1.98022017006232     -0.91507066296986      0.15326283979714
  C   0.62270868248692      1.24433073757476     -0.63970488047225
  N   1.01880405717618      2.33746066467365     -0.80327499947375
