11
Coordinates from ORCA-job run
  C   -1.24779692971637     -0.06002205678142      0.14879995774507
  C   0.18812673398687     -0.14727169154281     -0.35526198874269
  F   -1.79375572588305     -1.32364087667932      0.18934708883250
  H   0.16887500841832     -0.72196565567266     -1.28634687069144
  H   -1.85004496772879      0.55808181587489     -0.52115761072024
  H   -1.27057248546915      0.36175402169880      1.15792912643598
  N   1.02613543840716     -0.85735437606457      0.59630446126914
  H   1.93067867415224     -1.06007171925791      0.18992499272196
  H   1.17781612425902     -0.29029444145856      1.42218258746285
  C   0.65333205244745      1.22117454968805     -0.67080924782127
  N   1.01820607712631      2.31961043019551     -0.87091249649186
