11
Coordinates from ORCA-job run
  C   -1.15358716893321     -0.18137971442949      0.07798842035068
  C   0.27807970316140     -0.04334709179559     -0.43096607488031
  F   -1.22912858444291      0.36982771613905      1.34651773832999
  H   0.32939826480978     -0.51706785119844     -1.41855722925416
  H   -1.41538738715882     -1.24062290856733      0.15352416938818
  H   -1.86773683574748      0.33714420250259     -0.56633801349969
  N   1.29095491858841     -0.65385861786232      0.41915719036564
  H   1.17020542363470     -1.65954654555278      0.42659047436411
  H   1.17556929806695     -0.31610807403067      1.36741065688778
  C   0.59865976523718      1.38148878984384     -0.61517926234067
  N   0.82297260278397      2.52347009495114     -0.76114806971154
