17

C	0.0	0.0	0.0
C	-0.532129	0.211871	-1.436343
Cl	1.771994	0.0	0.0
H	-1.578431	0.51064	-1.22651
N	-0.363114	1.279131	0.814538
O	-0.501894	2.315697	0.176436
O	-0.412898	1.176382	2.029381
N	-0.546104	-1.083438	0.705591
H	-1.584525	-0.898265	0.577884
H	-0.261561	-1.948294	0.262129
C	-0.580021	-1.118683	-2.190893
H	-0.841909	-0.94322	-3.236332
H	0.380577	-1.643643	-2.163334
H	-1.362995	-1.729245	-1.742019
C	0.19339	1.203486	-2.218805
N	0.759449	1.938642	-2.940974
F	-2.757009	0.0	0.0
