17

C	0.0	0.0	0.0
C	-0.45703	0.097152	-1.504331
Cl	1.764719	0.0	0.0
H	0.463031	0.173358	-2.090643
N	-0.267047	1.403015	0.727323
O	-0.728566	1.341232	1.858203
O	0.081487	2.432697	0.160432
N	-0.596097	-1.03948	0.671211
H	-1.649837	-0.803296	0.516279
H	-0.357495	-0.998329	1.6554
C	-1.373624	1.251428	-1.948251
H	-2.244047	1.235135	-1.292154
H	-0.835133	2.19742	-1.918938
H	-1.680785	1.049046	-2.978902
C	-1.063429	-1.176719	-1.906141
N	-1.497397	-2.153175	-2.394825
F	-2.77262	0.0	0.0
