17

C	0.0	0.0	0.0
C	-0.340342	0.087444	-1.523001
Cl	1.797093	0.0	0.0
H	0.309746	-0.702987	-1.92241
N	-0.428227	1.223929	0.820273
O	-0.389261	2.310299	0.253056
O	-0.689909	1.049882	1.997372
N	-0.469383	-1.148931	0.66599
H	-1.509319	-0.983119	0.589105
H	-0.201935	-1.959278	0.117641
C	0.023667	1.363628	-2.294257
H	1.01182	1.728629	-2.013631
H	0.02028	1.123078	-3.36123
H	-0.706357	2.147041	-2.107828
C	-1.690167	-0.331571	-1.953213
N	-2.454159	-0.705809	-2.772242
F	-2.581535	0.0	0.0
