15
Coordinates from ORCA-job run
  C   0.78363121435839     -0.00323531352213      0.02066997455959
  C   -0.57468006029933     -0.03647610929763      0.10794280877132
  C   1.56780580479363     -0.07944977041141      1.20559396705580
  N   2.24381480903945     -0.13797571872481      2.16880011469494
  C   1.49422812143225      0.10620735118355     -1.30628814410855
  H   2.57401732162118      0.03480513557865     -1.17704593100937
  H   1.18323821733049     -0.69661116346428     -1.98293456847695
  H   1.28575033326661      1.06400835205265     -1.79787316649016
  C   -1.33079815030990     -0.18245033780366      1.39310820731497
  H   -1.97483955198744     -1.06556835378118      1.34655815289209
  H   -0.66054262004774     -0.28389220219700      2.24525895347203
  H   -1.97135590345432      0.68991864763817      1.56057545066542
  N   -1.36296407675175     -0.03146600671685     -1.02908903908739
  H   -0.94545196844993      0.35167235061124     -1.86274938832450
  H   -2.31385349054161      0.27251313885471     -0.89152739192926
