15
Coordinates from ORCA-job run
  C   0.78402449531505     -0.01083708261223      0.02220417138885
  C   -0.57465213664924     -0.03783809786462      0.10577620765930
  C   1.56483297596752     -0.10423059976910      1.20789123384048
  N   2.23742410285936     -0.17461879351761      2.17271119177069
  C   1.49773466396905      0.10642966177941     -1.30232502704953
  H   1.20362139035612     -0.70510334325785     -1.97618381654400
  H   2.57798896717956      0.05561102655216     -1.16914645056007
  H   1.27315664327450      1.05782452423701     -1.79942835387674
  C   -1.33497796824699     -0.18213027693379      1.38851816202940
  H   -1.93775582472144      0.71253718216308      1.57649207923846
  H   -0.66860918441625     -0.33052034626610      2.23692332535279
  H   -2.01487057147941     -1.03663817540588      1.32409686483712
  N   -1.36013061340985     -0.01666027110741     -1.03299690076466
  H   -2.30916287964487      0.29299363075142     -0.89435363315270
  H   -0.93762406035311      0.37318096125152     -1.86117905416940
