15
Coordinates from ORCA-job run
  C   0.71964526060329      0.05444870911277     -0.35280847819360
  C   -0.62814064232970      0.07317806668503     -0.13855008596326
  C   1.16437250344620      0.40403479735937     -1.66357258371853
  N   1.49798309330716      0.70868763747396     -2.75212060117395
  C   1.79198899352709     -0.34345496210292      0.62933191847161
  H   1.42963758996104     -0.33984445709560      1.65640927339109
  H   2.63082282130435      0.35435437234138      0.57397387664470
  H   2.18106346467431     -1.34229768911365      0.40943944118323
  C   -1.28239609942883     -0.27347157930509      1.16591180778321
  H   -1.93058619321131     -1.14318764825871      1.02777135196783
  H   -0.56904764031853     -0.49680372481058      1.95421261240705
  H   -1.91280507348617      0.55569368481948      1.50464040029593
  N   -1.53657203419362      0.31673141203416     -1.15482673741710
  H   -1.15747642364517      0.72337537043728     -1.99854313137751
  H   -2.39848962021010      0.74955601042310     -0.86126906430068
