15
Coordinates from ORCA-job run
  C   0.77024897720180      0.20421018103113     -0.12595167555674
  C   -0.55792183230036      0.28203387238616      0.17504553871150
  C   1.48215979988601      1.43515084637834     -0.24988075548609
  N   2.04407358986340      2.46559712362662     -0.35637124956712
  C   1.55499668799167     -1.05516351587773     -0.40370263462022
  H   1.10476745146073     -1.93260018874334      0.05852815445309
  H   2.57232892173863     -0.96669458889229     -0.01543309993091
  H   1.63315320061530     -1.22812496316756     -1.48286198993418
  C   -1.46256783261359     -0.90772243860640      0.29739222411358
  H   -0.97965980168999     -1.84228102337045      0.02268891813109
  H   -2.33627786730148     -0.78390511563887     -0.35036578935507
  H   -1.82280089186522     -0.98579448032065      1.32690094735240
  N   -1.17697164346332      1.47188254457626      0.51675874142567
  H   -0.67001431036041      2.31983841293482      0.30320311283186
  H   -2.15551444916318      1.52357333368395      0.28304955743114
