15
Coordinates from ORCA-job run
  C   0.73341783325315     -0.24090194761241     -0.23345853654765
  C   -0.60218935562589     -0.23877884733128      0.04377304492202
  C   1.24897786960348     -1.37032199976972     -0.93760311953063
  N   1.64637340556897     -2.31002345341172     -1.52759754449803
  C   1.71615056642153      0.86222556928830      0.07602952607519
  H   1.86614622151209      1.49968713730454     -0.80266365124021
  H   1.38945831871008      1.48527169796403      0.90758238577647
  H   2.68989803965352      0.44469334488417      0.34295425210605
  C   -1.31432844790905      0.88535323237836      0.73522860661338
  H   -1.69802149816749      0.53546040216267      1.69796153633777
  H   -2.17057526470685      1.21224411408563      0.13680550484621
  H   -0.68130448284378      1.75291666520858      0.90385928879186
  N   -1.41234856694615     -1.33802642109792     -0.18189202590930
  H   -1.03510155566037     -2.05817826014212     -0.78237224871170
  H   -2.37655308286326     -1.12162123391109     -0.37760701903145
