15
Coordinates from ORCA-job run
  C   0.77874516857466      0.15947129481530     -0.13123651614522
  C   -0.55282733828150      0.31916933016587      0.12047331431238
  C   1.53612712729889      1.34498851752996     -0.36766172847171
  N   2.13186237456100      2.34199693330358     -0.56909721741904
  C   1.52393014196632     -1.14886964154865     -0.21354890093035
  H   1.00301177515287     -1.94884907215497      0.31103334412917
  H   1.67480086196826     -1.45716591446023     -1.25325103470203
  H   2.51247174467456     -1.04936847298299      0.24184189631117
  C   -1.50724418725863     -0.81975437287502      0.32379748770848
  H   -2.39788435847994     -0.66716333522497     -0.29552353810310
  H   -1.83964298966195     -0.85933780829587      1.36513014346555
  H   -1.08023169636448     -1.77990333813723      0.04793719109858
  N   -1.12630446672196      1.56184768265257      0.32277896850280
  H   -2.09172086665500      1.64307548618516      0.04401793991429
  H   -0.56509329077308      2.35786271102749      0.05430865032904
