15
Coordinates from ORCA-job run
  C   0.78109578457965     -0.06348055179152     -0.00113871832045
  C   -0.56836889192364      0.06474326665099      0.12627383605823
  C   1.58637201522790     -0.22025063210265      1.16146549005154
  N   2.27830367898185     -0.35495754662000      2.10564207488265
  C   1.46057009490110     -0.03978359898742     -1.34846236341081
  H   1.18240495507128     -0.90822623986849     -1.95680619772663
  H   1.19285363479625      0.86453688469827     -1.90453232070380
  H   2.54432979425654     -0.05388102571088     -1.23706616556095
  C   -1.28835044871946      0.09423166178315      1.43976325945671
  H   -0.60246120369600     -0.02381018663782      2.27725224835991
  H   -1.81909661056087      1.04409675039601      1.55267558501355
  H   -2.02978438333713     -0.71045903494018      1.48701336182306
  N   -1.37191516570412      0.28246101902663     -0.97901187601996
  H   -1.00206045879135     -0.01792261537372     -1.86732345752514
  H   -2.34289279508199      0.04170184947764     -0.85774475637790
