15
Coordinates from ORCA-job run
  C   0.65825820089063     -0.17889897526506     -0.43325604863982
  C   -0.63397452530422     -0.14246215039122      0.00326260600399
  C   0.94496383759689     -1.04966449636138     -1.52609533514738
  N   1.14624202897421     -1.78852408022785     -2.42216503137765
  C   1.80348440185010      0.64820904374382      0.09484746678177
  H   2.01033373542370      1.50642680062336     -0.55229424481682
  H   1.60946543110944      1.01565848068490      1.10203696818291
  H   2.71306078954791      0.04475877563658      0.13919273023602
  C   -1.10638078703052      0.71664036213471      1.14092075753541
  H   -2.07701305010455      1.15245282029702      0.89226563325463
  H   -1.22904541097060      0.11755565351672      2.04970782435823
  H   -0.42035627016746      1.53066153451405      1.36050061699775
  N   -1.64770405998480     -0.85493958880586     -0.61236587777799
  H   -2.41597335650232     -1.11164579749120     -0.01265541135365
  H   -1.35436096532839     -1.60322838260859     -1.22490265423741
