15
Coordinates from ORCA-job run
  C   0.78261065342441      0.02958329712073      0.02637716045336
  C   -0.57581574744650     -0.01382509593000      0.10790011040806
  C   1.56502477962908     -0.16298534392199      1.19925868605467
  N   2.23896624394245     -0.32182738107573      2.15259090557017
  C   1.49566690568666      0.27601248572397     -1.28048889179448
  H   1.13218061348631      1.19210907630942     -1.75721984897374
  H   2.56847655243531      0.38571807721545     -1.12377312007146
  H   1.35102150442931     -0.55348324858281     -1.98268146095134
  C   -1.33404600196159     -0.21125259370719      1.38473840106124
  H   -1.98308290822907      0.64968077165513      1.56945261763117
  H   -0.66477624918141     -0.33207363443051      2.23520572872161
  H   -1.96969400548719     -1.10059415926639      1.31827954852155
  N   -1.36485429753861      0.22736161410662     -1.00297630922863
  H   -0.93602878683773      0.06584752531518     -1.90068129432983
  H   -2.30464925635144     -0.13227139053190     -0.94798223307234
