15
Coordinates from ORCA-job run
  C   0.76540402777221      0.22557709066094     -0.12395241570141
  C   -0.56814446452745      0.27439725118306      0.16164555776330
  C   1.45250082645514      1.47252897250600     -0.21031657737945
  N   1.98375309281917      2.52278616495252     -0.27551881374749
  C   1.57225169826794     -1.02149877731379     -0.39002564304450
  H   1.13767764366501     -1.89545333677394      0.09495668909199
  H   2.58386951781173     -0.90336039509126      0.00403380670143
  H   1.65941091929047     -1.22732699520726     -1.46133896428381
  C   -1.44160840808668     -0.94281018142549      0.24137290267850
  H   -2.39205475904671     -0.75617476404121     -0.26833794169104
  H   -1.67203975477999     -1.17406957744295      1.28533302507553
  H   -0.98431612325851     -1.81356049070914     -0.22198049249733
  N   -1.20868080093350      1.44291296663671      0.53056600474536
  H   -0.70438255867153      2.30024343440224      0.35306120658379
  H   -2.18364085677731      1.49680863766356      0.28150165570515
