15
Coordinates from ORCA-job run
  C   0.74415532706260      0.18070058317854     -0.25235431138612
  C   -0.53790751633263      0.31362704557695      0.19500407000262
  C   1.52252729353204      1.37168630356821     -0.35271645963007
  N   2.14105609085860      2.37302553722954     -0.41898810431559
  C   1.42458812086710     -1.11381744360531     -0.62527880556213
  H   0.70763508822289     -1.87134695291202     -0.94143493572593
  H   2.01112416512846     -1.51776457293195      0.20584482550367
  H   2.10993960724531     -0.94843589905581     -1.45906865913235
  C   -1.46751843758617     -0.84635230619585      0.39691560485398
  H   -2.00166468668069     -0.73867537162075      1.34615701105759
  H   -0.94443076527384     -1.79931209516021      0.41945398231373
  H   -2.21798364700846     -0.87123332628878     -0.39843438301198
  N   -1.13716948118720      1.54620119730696      0.38280587423947
  H   -1.83900983335118      1.57806654513115      1.10545470893373
  H   -0.51534132549684      2.34263075577933      0.39763958185937
