15
Coordinates from ORCA-job run
  C   0.78335220579014      0.01544033309388      0.02434448038314
  C   -0.57540644034238     -0.00872364316347      0.10939492348377
  C   1.56501510744898     -0.19277923850919      1.19517847398870
  N   2.23861915938179     -0.36553776278768      2.14634422954102
  C   1.49651001150326      0.26302740427355     -1.28210765506807
  H   2.57069230722460      0.35970371345727     -1.12621841519648
  H   1.34054388325045     -0.55918317650865     -1.99027014281478
  H   1.14247592313005      1.18688490541135     -1.75126115984114
  C   -1.33375965142515     -0.20318813725390      1.38663968816650
  H   -1.96055854644246      0.67144041043148      1.58302280580133
  H   -0.66522705426313     -0.35009008315764      2.23357142496896
  H   -1.99179936214998     -1.07527462390593      1.31155368623531
  N   -1.36351584465731      0.25312290581574     -0.99731193284585
  H   -2.30874867436459     -0.09183783636547     -0.94374859088746
  H   -0.93919302408427      0.09699482916865     -1.89813181591496
