15
Coordinates from ORCA-job run
  C   0.76606284682875      0.22463095865539     -0.11223385638189
  C   -0.57045803187218      0.27281729672400      0.15836026732365
  C   1.50945190104724      1.42613953350502      0.08535702772798
  N   2.09462114184091      2.43334659407013      0.26567965471549
  C   1.53866081178616     -0.98707101120584     -0.57173375983657
  H   2.05174165247395     -1.47901009948432      0.26051600416201
  H   2.30071103482774     -0.69204932983342     -1.29649388322856
  H   0.89345814305312     -1.71770501474906     -1.05854135272198
  C   -1.48148499602325     -0.91409925283340      0.04664030469666
  H   -2.10322448777003     -0.82941027614866     -0.84933969984083
  H   -2.15443360892829     -0.95292846534831      0.90890849448531
  H   -0.93717739437009     -1.85480998250154      0.01143514294356
  N   -1.23041136764706      1.45510876505970      0.44027396451526
  H   -2.03165456779171      1.36809927254412      1.04507059116110
  H   -0.64486307745527      2.24694101154619      0.66610110027883
