15
Coordinates from ORCA-job run
  C   0.71758197671933     -0.31352274137363     -0.04236740413976
  C   -0.55565023470074      0.14124482373148      0.11876055033968
  C   1.26040769811165     -1.23524202175021      0.89581039480105
  N   1.73828207942672     -1.99570295206302      1.65843208162954
  C   1.58380071921253      0.13516024457190     -1.19377244472003
  H   2.52001412912701     -0.42201485465797     -1.21715474950824
  H   1.07490545984140     -0.02457169421671     -2.14994197845657
  H   1.83770481544471      1.19904187596613     -1.11679520523409
  C   -1.47389280200730     -0.30492506053218      1.21523795252515
  H   -1.80695862049183      0.55327671726290      1.80870167356623
  H   -0.98787109734143     -1.01543570328503      1.88196645757457
  H   -2.36217688668609     -0.77827192081141      0.78650427363411
  N   -1.13138248832162      0.99269668534421     -0.80775452556171
  H   -0.49709255172228      1.54089088724712     -1.36754340485796
  H   -1.91667219661203      1.52637571456642     -0.47008367159197
