15
Coordinates from ORCA-job run
  C   0.76565327634592      0.22314612852577     -0.15731169081086
  C   -0.56976905129561      0.30450817652148      0.10834841221109
  C   1.44896753657274      1.44066981048660     -0.44328618158283
  N   1.98686419780527      2.45814911486075     -0.69821873910818
  C   1.56138986642830     -1.06156506543638     -0.19384419829317
  H   1.33043874515705     -1.70345612872462      0.65842010300802
  H   1.37896250584480     -1.62952632389257     -1.11113404756969
  H   2.62877200754762     -0.84016286568932     -0.15395951506478
  C   -1.41315647770842     -0.90288357515841      0.38997393234973
  H   -1.67865429742474     -0.93790567333966      1.45060893446762
  H   -2.34648831793772     -0.85589901459334     -0.18003862180577
  H   -0.90687692161640     -1.82848263283057      0.12422342600964
  N   -1.23369042001766      1.50701888585819      0.26218453900871
  H   -2.20859301465063      1.49755609879690      0.00739460414617
  H   -0.74381963505052      2.32783306461518     -0.06536095696569
