15
Coordinates from ORCA-job run
  C   0.78079233640809      0.21134073049722     -0.08193615486924
  C   -0.57076154892854      0.30047884197398      0.08049541993236
  C   1.50812225454024      1.43667157966306     -0.12705332326124
  N   2.07164976930323      2.47114464868843     -0.17087522966324
  C   1.56865098994090     -1.07558101341884     -0.16444097193461
  H   2.54944910735356     -0.88228519197090     -0.60161802235886
  H   1.07327109211318     -1.81498772990168     -0.79605100699927
  H   1.72975893242252     -1.51991239556460      0.82258747750705
  C   -1.46756634565725     -0.89802889991314      0.16932558575253
  H   -2.02787563348117     -0.86743822500509      1.10763400950700
  H   -2.19427081389237     -0.89393274005004     -0.65033987798607
  H   -0.91592212545749     -1.83412108949293      0.12953728440092
  N   -1.22435663263151      1.50278284916056      0.27887282521237
  H   -0.70190597735333      2.33519474387428      0.04430817151463
  H   -2.18003540468004      1.52967389145970     -0.04044618675433
