15
Coordinates from ORCA-job run
  C   0.78353304633030     -0.02157483847829      0.01931369971583
  C   -0.57517505867344     -0.03224697478471      0.10690850027856
  C   1.56696294073209     -0.13270664327071      1.20206729884820
  N   2.24123464984881     -0.21603776005381      2.16460797628956
  C   1.49530855775000      0.11446743061645     -1.30443426819342
  H   1.30341640662752      1.09007959032461     -1.76660357730244
  H   2.57345188529005      0.02041426124598     -1.17724702645610
  H   1.17051406305558     -0.66237660274395     -2.00428357322929
  C   -1.33342902951770     -0.20112093018137      1.38793659267809
  H   -1.96386848623722      0.67439407464626      1.57549083437553
  H   -1.98761046771154     -1.07503037312330      1.32145739638450
  H   -0.66422844494536     -0.32899733611331      2.23708845899150
  N   -1.36296735483385      0.01897361245774     -1.02936269800268
  H   -2.30877951027633      0.33406286467945     -0.88290753552745
  H   -0.93836319743888      0.41969962477896     -1.85103207885039
