15
Coordinates from ORCA-job run
  C   0.78313307898416      0.01005532883573      0.02612447572694
  C   -0.57584012829213     -0.00584611751950      0.10809118535342
  C   1.56257798169304     -0.21592190791204      1.19499085386962
  N   2.23456020264598     -0.40112936460825      2.14485951162114
  C   1.50033325259497      0.26982708159140     -1.27627155700778
  H   1.32942580300032     -0.53680676425182     -1.99895324636827
  H   2.57589933321809      0.34377617567828     -1.11876852357756
  H   1.16184674663637      1.20833335253546     -1.72728031500341
  C   -1.33751872930209     -0.21460295985850      1.38137696253333
  H   -1.96893434240221      0.65551068494100      1.58391726062454
  H   -1.99145819340477     -1.08895140278746      1.29615797546000
  H   -0.67073052970680     -0.36636949327162      2.22860295587226
  N   -1.36041041521394      0.27630084232149     -0.99598252008152
  H   -2.30711553870299     -0.06561705830190     -0.94890870756494
  H   -0.93476852174802      0.13044160260774     -1.89795631145779
