15

C	0.0	0.0	0.0
C	-0.518708	-0.102859	-1.43103
Cl	1.783934	0.0	0.0
H	-1.608765	-0.241327	-1.312545
H	-0.340709	-0.864481	0.567656
C	-0.430412	1.235057	0.650822
N	-0.651639	2.232771	1.229327
N	0.003683	-1.386245	-2.003601
O	-0.050643	-2.38057	-1.2822
O	0.42143	-1.384697	-3.161713
C	-0.194877	1.079542	-2.310031
H	-0.662776	1.965972	-1.877976
H	0.881293	1.23947	-2.39592
H	-0.602027	0.926545	-3.308044
Br	-3.530063	0.0	0.0
