18

C	0.0	0.0	0.0
C	-0.29367	0.091893	-1.518323
F	1.42325	0.0	0.0
H	0.323681	0.935503	-1.856355
C	-0.413109	1.245979	0.759389
H	-0.016738	1.182444	1.779828
H	-1.505652	1.228085	0.760723
H	-0.018883	2.152815	0.288401
N	-0.513617	-1.223053	0.526994
H	-0.320021	-1.2191	1.526337
H	-1.54474	-1.022979	0.425864
C	-1.652422	0.379661	-2.020674
N	-2.438467	0.59919	-2.873471
C	0.187771	-1.175865	-2.23817
H	0.169266	-1.015222	-3.319663
H	-0.467615	-2.009498	-1.988958
H	1.200657	-1.421809	-1.918796
F	-2.781815	0.0	0.0
