18

C	0.0	0.0	0.0
C	-0.219556	0.266043	-1.537107
F	1.416315	0.0	0.0
H	0.598804	-0.315845	-1.975416
C	-0.465179	1.106015	0.919764
H	-0.169681	0.851705	1.943828
H	-1.55762	1.108029	0.834113
H	-0.028048	2.071301	0.657348
N	-0.554916	-1.283376	0.300096
H	-1.57944	-1.069693	0.229442
H	-0.372896	-1.469949	1.283622
C	0.085223	1.665321	-1.849823
N	0.32776	2.777765	-2.140523
C	-1.513792	-0.172546	-2.226734
H	-2.384023	0.197735	-1.680801
H	-1.559886	-1.262644	-2.191289
H	-1.484545	0.143144	-3.275338
F	-2.985065	0.0	0.0
