18

C	0.0	0.0	0.0
C	-0.594395	-0.044658	-1.404169
F	1.418611	0.0	0.0
H	-1.695456	-0.110901	-1.117167
C	-0.522439	1.184642	0.771533
H	-1.619864	1.068455	0.71738
H	-0.179196	2.122856	0.330863
H	-0.153298	1.136449	1.801575
N	-0.373537	-1.231252	0.6532
H	0.298868	-1.943414	0.394933
H	-0.364119	-1.108314	1.656336
C	-0.166745	-1.260624	-2.084066
N	0.184713	-2.227188	-2.654759
C	-0.280363	1.184392	-2.25709
H	-0.61032	1.031546	-3.287585
H	0.793308	1.39822	-2.26685
H	-0.81448	2.05032	-1.862838
F	-2.962196	0.0	0.0
