18

C	0.0	0.0	0.0
C	-0.379028	-0.077877	-1.524835
F	1.395311	0.0	0.0
H	0.59233	-0.181977	-2.023808
C	-0.409366	1.308813	0.657087
H	-0.049074	1.297288	1.691985
H	0.026682	2.170819	0.145975
H	-1.501503	1.329504	0.624856
N	-0.506933	-1.157476	0.672787
H	-1.534592	-0.98587	0.577054
H	-0.284645	-1.045482	1.659107
C	-0.948781	1.172281	-2.03382
N	-1.336894	2.166379	-2.524685
C	-1.269666	-1.252704	-1.948711
H	-1.374709	-1.255657	-3.03854
H	-2.236033	-1.107803	-1.459966
H	-0.809209	-2.18753	-1.625095
F	-2.845431	0.0	0.0
