13
Coordinates from ORCA-job run
  C   -0.69804324191059     -0.19851636193335     -0.16461375424650
  C   0.72389389992976     -0.23960101588042     -0.72222817817485
  Cl  -1.74992452157335     -0.71197967571912     -1.59953980568139
  H   0.80383617153797      0.42269252436017     -1.58265627908802
  H   1.00972872554924     -1.25758880855642     -0.98016333791859
  N   -0.98705512013168      1.08025470985232      0.34835808138887
  H   -1.91292275251468      1.14687823733331      0.74949739359151
  H   -0.83324875468008      1.81740035401533     -0.32807010401889
  C   -0.92484115133340     -1.21090732082941      0.87009234697520
  N   -1.13981775129193     -2.01734223586826      1.69644953254574
  N   1.67365601694493      0.26391806596065      0.31175008946595
  O   2.09513384016059      1.40842253809880      0.16767912044852
  O   1.93760463931321     -0.50363101083360      1.23244489471245
