13
Coordinates from ORCA-job run
  C   -0.69961303013033     -0.18836339741031     -0.16914901593212
  C   0.72593123259214     -0.26030343689531     -0.71384627750027
  Cl  -1.74781163840581     -0.69940807358495     -1.60847550264063
  H   0.99653917970296     -1.28550870996188     -0.95918587132157
  H   0.82410992104725      0.39196581986439     -1.58004957758292
  N   -0.97024569324171      1.10016374288234      0.32767157796283
  H   -0.79177840413660      1.82924922692869     -0.35111511099707
  H   -1.89822513571644      1.18952325282285      0.71910404851911
  C   -0.95490256493356     -1.18538310596150      0.87375682314839
  N   -1.19405930346191     -1.97508482235165      1.70952232274082
  N   1.67569276089828      0.23642126546608      0.32361041380780
  O   2.11589517589512      1.37319618056281      0.17437419741982
  O   1.91946749989061     -0.52746794236157      1.25278197237581
