13
Coordinates from ORCA-job run
  C   -0.68730102530011     -0.23205350433235     -0.16469243691993
  C   0.73982400861145     -0.22715792620366     -0.71025943663878
  Cl  -1.70406565286954     -0.82651974639521     -1.59374906438359
  H   0.79849498920389      0.41663408629534     -1.58632823432017
  H   1.07068140973870     -1.23806970134571     -0.94067340032498
  N   -1.03410205809618      1.04622111945320      0.31239083940858
  H   -1.96603198574526      1.08472807746225      0.70308459659904
  H   -0.90344936419299      1.77201189656323     -0.38083746404497
  C   -0.88112664695858     -1.22565639524602      0.89451187220851
  N   -1.07143687213533     -2.01713022736024      1.74110175535633
  N   1.65882100357953      0.34136540401694      0.31773315198570
  O   2.03167413319831      1.49927401544209      0.14898758020427
  O   1.94801806096611     -0.39164709834984      1.25873024087001
