18

C	-0.456744	-0.014713	-1.449745
C	0.0	0.0	0.0
F	0.108495	1.044981	-2.104142
H	1.095598	0.0	0.0
N	0.095187	-1.269435	-2.11872
O	1.0764	-1.162379	-2.839438
O	-0.520195	-2.312948	-1.88847
C	-1.946398	0.029341	-1.710974
H	-2.135203	-0.009903	-2.78668
H	-2.454249	-0.802423	-1.228059
H	-2.327723	0.973021	-1.317536
C	-0.371272	-1.229568	0.831905
H	-1.436149	-1.483579	0.823449
H	0.205931	-2.083959	0.48046
H	-0.063314	-1.034364	1.860769
C	-0.51703	1.211347	0.605399
N	-0.940978	2.183086	1.116828
F	2.519855	0.0	0.0
