18

C	-0.218763	-0.006531	-1.508624
C	0.0	0.0	0.0
F	0.077465	-1.259354	-1.981473
H	1.096213	0.0	0.0
N	-1.696568	0.190686	-1.844538
O	-2.088352	1.347347	-1.991946
O	-2.41129	-0.80937	-1.882989
C	0.658281	1.000609	-2.201007
H	0.607901	0.86432	-3.283647
H	1.661321	0.801324	-1.805225
H	0.356701	2.01444	-1.943837
C	-0.549826	-1.221415	0.726077
H	-0.245749	-1.172625	1.774084
H	-1.640329	-1.296216	0.675539
H	-0.110223	-2.11746	0.288874
C	-0.469623	1.242376	0.582336
N	-0.849487	2.230867	1.095338
F	2.58485	0.0	0.0
