18

C	-0.309011	-0.175581	-1.485687
C	0.0	0.0	0.0
F	-1.545237	-0.746213	-1.705288
H	1.09303	0.0	0.0
N	-0.378206	1.198233	-2.13687
O	0.687281	1.794548	-2.234117
O	-1.474223	1.614626	-2.50057
C	0.78098	-0.970165	-2.169341
H	1.740572	-0.618365	-1.768447
H	0.7077	-0.874979	-3.255278
H	0.654648	-2.02123	-1.899906
C	-0.410768	-1.241608	0.796446
H	-0.086325	-1.114783	1.831327
H	-1.487752	-1.423124	0.775466
H	0.112536	-2.112963	0.398866
C	-0.587546	1.195505	0.57209
N	-1.061463	2.145919	1.078414
F	2.597134	0.0	0.0
