18

C	-0.223472	0.027485	-1.503366
C	0.0	0.0	0.0
F	0.178878	-1.174512	-2.021599
H	1.097094	0.0	0.0
N	-1.717567	0.10353	-1.820363
O	-2.33113	-0.952584	-1.955756
O	-2.221999	1.225012	-1.848009
C	0.548979	1.133994	-2.167084
H	1.572077	1.009002	-1.795406
H	0.158712	2.106376	-1.871758
H	0.49948	1.028923	-3.25322
C	-0.530378	-1.25197	0.688943
H	-0.100749	-2.127906	0.203224
H	-1.621979	-1.329441	0.665066
H	-0.198644	-1.246188	1.729403
C	-0.478416	1.217798	0.62283
N	-0.84346	2.195512	1.166236
F	2.570481	0.0	0.0
