18

C	-0.266648	0.024873	-1.490818
C	0.0	0.0	0.0
F	0.2393	-1.12107	-2.041731
H	1.09705	0.0	0.0
N	-1.76885	-0.044304	-1.761746
O	-2.398553	1.002527	-1.614654
O	-2.261846	-1.135587	-2.03829
C	0.366142	1.212911	-2.161963
H	1.408435	1.184155	-1.831304
H	0.294984	1.115182	-3.247546
H	-0.10848	2.138273	-1.840116
C	-0.477617	-1.274574	0.689064
H	-0.059331	-2.131841	0.161926
H	-0.085788	-1.286697	1.708184
H	-1.567497	-1.371981	0.726753
C	-0.48274	1.195333	0.65853
N	-0.834721	2.155532	1.240582
F	2.554621	0.0	0.0
