16

C	-0.294602	0.050495	-1.507276
C	0.0	0.0	0.0
F	-0.102669	-1.246938	-2.02571
H	1.097759	0.0	0.0
C	-1.710374	0.372335	-1.807447
N	-2.838796	0.619546	-2.022747
N	0.562929	1.004234	-2.093304
H	0.50141	0.984261	-3.1034
H	1.524256	0.837509	-1.786792
C	-0.538944	-1.209092	0.606343
N	-0.995295	-2.144992	1.149495
C	-0.478492	1.252995	0.732517
H	-0.050735	2.13208	0.250648
H	-1.569042	1.330595	0.730135
H	-0.128095	1.220318	1.765438
Br	3.459752	0.0	0.0
