16

C	-0.505432	0.033861	-1.443347
C	0.0	0.0	0.0
F	-1.932071	0.110489	-1.388669
H	1.095211	0.0	0.0
C	-0.109106	1.281907	-2.128092
N	0.134007	2.278377	-2.697451
N	-0.069657	-1.072177	-2.191014
H	-0.487181	-1.095546	-3.111441
H	-0.215534	-1.943979	-1.698323
C	-0.471478	-1.245382	0.603599
N	-0.872737	-2.247559	1.067829
C	-0.469088	1.208242	0.812216
H	-0.072336	1.129336	1.825164
H	-0.062761	2.119899	0.369438
H	-1.557673	1.272789	0.850823
Br	3.447633	0.0	0.0
