16

C	-0.299514	0.124249	-1.501356
C	0.0	0.0	0.0
F	-0.105074	-1.14266	-2.085249
H	1.095349	0.0	0.0
C	-1.717999	0.459725	-1.774622
N	-2.846366	0.743338	-1.932513
N	0.549992	1.111945	-2.041547
H	1.51267	0.94423	-1.7402
H	0.491307	1.135647	-3.0504
C	-0.537978	-1.239136	0.5431
N	-1.020427	-2.200655	1.015369
C	-0.476572	1.212161	0.799799
H	-1.567369	1.282427	0.81642
H	-0.110362	1.129942	1.824342
H	-0.061165	2.117715	0.356793
Br	3.457865	0.0	0.0
