16

C	-0.323716	-0.095474	-1.495339
C	0.0	0.0	0.0
F	-1.662108	-0.449185	-1.687626
H	1.097494	0.0	0.0
C	-0.204855	1.239253	-2.14385
N	-0.08812	2.282582	-2.670891
N	0.503151	-1.094024	-2.076469
H	1.455547	-1.016992	-1.718515
H	0.510648	-1.033385	-3.087126
C	-0.471522	-1.219253	0.650995
N	-0.855342	-2.165085	1.231614
C	-0.551253	1.241787	0.692291
H	-0.328041	1.190869	1.759055
H	-0.072563	2.136019	0.29037
H	-1.633893	1.318754	0.561477
Br	3.435333	0.0	0.0
