16

C	-0.33688	0.010826	-1.507802
C	0.0	0.0	0.0
F	-0.376785	-1.32101	-1.936432
H	1.098042	0.0	0.0
C	-1.688947	0.558648	-1.769469
N	-2.752921	1.011536	-1.972338
N	0.62628	0.721434	-2.254881
H	0.337122	1.616973	-2.608804
H	1.548089	0.715882	-1.824929
C	-0.556595	-1.152181	0.691331
N	-1.027528	-2.043161	1.29487
C	-0.411942	1.30559	0.683954
H	0.008702	2.149312	0.132983
H	-1.497331	1.415661	0.743527
H	0.006985	1.326747	1.691491
Br	3.457111	0.0	0.0
