15

C	-0.514073	0.087628	-1.406339
C	0.0	0.0	0.0
F	-1.877511	0.305801	-1.448496
H	1.089655	0.0	0.0
H	-0.272554	-0.777921	-2.012482
N	0.121255	1.27082	-2.088734
O	-0.372422	2.377858	-1.883356
O	1.084742	1.03125	-2.807563
N	-0.426013	-1.345028	0.540622
O	-0.471674	-2.286197	-0.259998
O	-0.623028	-1.459053	1.743759
N	-0.430395	1.057926	0.846763
H	-1.189277	1.601113	0.463522
H	0.362347	1.644087	1.062732
F	2.511319	0.0	0.0
