15

C	-0.586828	-0.032996	-1.381096
C	0.0	0.0	0.0
F	-1.954364	-0.185598	-1.352906
H	1.090465	0.0	0.0
H	-0.153844	-0.809519	-2.005569
N	-0.299832	1.279802	-2.060232
O	0.835371	1.40131	-2.504617
O	-1.201504	2.106385	-2.124761
N	-0.367958	-1.322382	0.6267
O	-0.23966	-2.335368	-0.06202
O	-0.722909	-1.328588	1.806546
N	-0.444631	1.125095	0.744201
H	0.228415	1.308397	1.475327
H	-1.35976	0.989359	1.152725
F	2.508798	0.0	0.0
