15

C	-0.343154	0.07304	-1.465298
C	0.0	0.0	0.0
F	0.159795	-0.968902	-2.166203
H	1.101387	0.0	0.0
H	0.077595	1.003163	-1.854808
N	-1.827045	0.154653	-1.799494
O	-2.303933	-0.613896	-2.618488
O	-2.439388	1.059979	-1.230028
N	-0.55161	-1.247154	0.604171
O	-0.145182	-1.55912	1.717071
O	-1.390903	-1.890834	-0.041066
N	-0.363979	1.123451	0.806573
H	-1.144653	1.65003	0.448273
H	0.455273	1.693341	0.957852
F	2.528955	0.0	0.0
