15

C	-0.471011	-0.04111	-1.444101
C	0.0	0.0	0.0
F	-0.433749	1.204282	-1.998203
H	1.090956	0.0	0.0
H	-1.468398	-0.458939	-1.582218
N	0.451733	-0.935979	-2.234812
O	1.01255	-0.485722	-3.222997
O	0.508298	-2.086463	-1.817194
N	-0.570571	-1.187822	0.72277
O	0.071828	-1.629324	1.666767
O	-1.68505	-1.607494	0.384132
N	-0.42483	1.171178	0.720777
H	-1.158046	1.687092	0.255525
H	0.391195	1.758611	0.824608
F	2.542917	0.0	0.0
