15

C	-0.454178	0.072862	-1.426228
C	0.0	0.0	0.0
F	-0.230799	-1.017155	-2.208403
H	1.093224	0.0	0.0
H	0.015977	0.942281	-1.881205
N	-1.949046	0.333731	-1.536064
O	-2.331579	0.950401	-2.529623
O	-2.679073	-0.122949	-0.657863
N	-0.460501	-1.218128	0.722242
O	-0.350278	-2.30093	0.150838
O	-0.868527	-1.083456	1.879113
N	-0.403964	1.225702	0.628786
H	0.331979	1.493023	1.269496
H	-1.258193	1.092529	1.154936
F	2.517477	0.0	0.0
