15

C	-0.53131	-0.320816	-1.369235
C	0.0	0.0	0.0
F	-1.873166	-0.618906	-1.353718
H	1.09977	0.0	0.0
H	0.011518	-1.133545	-1.844562
N	-0.357282	0.892162	-2.245479
O	-1.354858	1.542954	-2.535546
O	0.787912	1.116931	-2.610534
N	-0.357043	-1.184706	0.857303
O	-0.759924	-0.976228	2.003502
O	-0.169799	-2.30541	0.382522
N	-0.491563	1.235854	0.4975
H	0.130939	1.566295	1.219257
H	-1.42437	1.155512	0.876261
F	2.510094	0.0	0.0
