11
Coordinates from ORCA-job run
  C   -0.41941898511926     -0.12348227616766     -0.30109789611157
  C   0.76935041677257      0.16231238991927      0.22897025295308
  H   -0.46070623375492     -0.33955870229802     -1.36560005614332
  H   0.97238298075115      0.39755626274413      1.26594023595043
  C   -1.68561780747130     -0.16095879192603      0.49034791825173
  H   -2.14560185132614     -1.15084825182043      0.42644235357396
  H   -2.40872360139422      0.55308831085862      0.08697399174352
  H   -1.51623936045645      0.07463231420982      1.54206269253032
  N   1.98006930082490      0.18615591529870     -0.59127645554053
  O   3.01943794143363      0.46554466642622      0.00768669682109
  O   1.89406719974004     -0.06444183724464     -1.78944973402870
