11
Coordinates from ORCA-job run
  C   -0.25949058901209     -0.52520774750067      0.68391337753266
  C   1.00262351294377     -0.43852703955862      0.24756655118720
  H   -0.39047958897761     -1.20858314220248      1.52030869156528
  H   1.83455159743816     -0.97479291961521      0.68434290019218
  C   -1.48050283708129      0.17838784441899      0.17435434093054
  H   -2.32786314823714     -0.01062024881656      0.83302633324994
  H   -1.73293547617126     -0.16444269844809     -0.83119267552884
  H   -1.31830959119509      1.25375269953486      0.09695662804175
  N   1.43466690185478      0.41272959972798     -0.85291648967608
  O   2.65263071989475      0.50215846847947     -1.01228562047446
  O   0.58510849854303      0.97514518398034     -1.54307403702015
