11
Coordinates from ORCA-job run
  C   -0.35519322824515     -0.34382514920618     -0.19277502391880
  C   0.69988897201537      0.41017217366721      0.11434455096160
  H   -0.23556821141721     -1.08650775766745     -0.97743646555240
  H   0.73972431151197      1.18695233513442      0.86724358366642
  C   -1.68157982185733     -0.21746666970978      0.48231477861233
  H   -1.67777245983821      0.56115765381341      1.24652243129941
  H   -1.96123246770793     -1.16396852057802      0.95293532880603
  H   -2.46027875981925      0.01731884775942     -0.24841837849034
  N   1.97777520654201      0.24470930840668     -0.57784818773305
  O   2.88220827522394      0.99292454970179     -0.20451448411374
  O   2.07302818359179     -0.60146677132151     -1.46136813353745
