11
Coordinates from ORCA-job run
  C   -0.27630297181110     -0.66739507752281      0.53713943926057
  C   1.00846667061048     -0.42123511321864      0.25480359125186
  H   -0.42633013645322     -1.51573754528350      1.20165151553765
  H   1.83592164337205     -1.01192629640577      0.62470721468609
  C   -1.49861870069536      0.06161812524200      0.06829851123963
  H   -2.39751745603166     -0.47599676501288      0.36921657325341
  H   -1.49905855995508      0.18418798397489     -1.01505646796288
  H   -1.53336403965142      1.06887728602562      0.48858206369077
  N   1.46619040726642      0.65172968304707     -0.61782781757723
  O   0.65840028258202      1.49792979854709     -0.99964246484526
  O   2.66221286076687      0.62794792060692     -0.91087215853461
