11
Coordinates from ORCA-job run
  C   -0.31588720941836     -0.39586395974596     -0.15990172076591
  C   0.67175471699571      0.44292062612945      0.15171668325260
  H   -0.04991356981909     -1.33749682757960     -0.63338043118669
  H   0.56995864794898      1.41209765273367      0.62307859678305
  C   -1.75651175767331     -0.10626463727823      0.10807864077116
  H   -2.32753387265966     -0.11881044594796     -0.82428205902881
  H   -2.18592929242987     -0.87584644981859      0.75524232007265
  H   -1.89530379481817      0.86468583314645      0.58583645295144
  N   2.06750201653182      0.11140538616381     -0.13404342755345
  O   2.89190642313631      0.96496453390358      0.19603459330229
  O   2.32895769220565     -0.96179171170661     -0.66837964859832
