11
Coordinates from ORCA-job run
  C   -0.43499598734558     -0.03516516332770     -0.30229333598558
  C   0.78600808940959      0.04900233298959      0.22518181607204
  H   -0.51652008662461     -0.08806129609933     -1.38494293873205
  H   1.03015701973367      0.10832545285250      1.27813919146416
  C   -1.68464542777525     -0.06022543643747      0.51554980695336
  H   -2.33336806050419      0.77765263984546      0.24599183344522
  H   -2.24938277532682     -0.97593204250995      0.32049804835608
  H   -1.47369584839923     -0.00467802861457      1.58451748779595
  N   1.97839797888218      0.06997612697466     -0.62148591258628
  O   1.84660754486028      0.00654246879068     -1.83985590728721
  O   3.05143755308996      0.15256294553615     -0.02230008949569
