15
Coordinates from ORCA-job run
  C   0.67803200945914     -0.28993960523508      0.40583069851126
  C   -0.55641663987314     -0.31705262120104     -0.53717225778737
  Cl  0.92093837533323     -2.06723755449002      0.87978707307979
  H   -0.32773493038871     -0.98579199092978     -1.36748158376839
  C   0.38069675887546      0.40800013531394      1.65713629552704
  N   0.15934154359180      0.92118906780599      2.69087781679799
  N   1.78704319453465      0.29564767452138     -0.23095623972294
  H   2.60949076645056      0.33359078171327      0.35932112792923
  H   1.99830718153201     -0.13820541120552     -1.12059476299389
  N   -0.63828409203849      1.05676692838334     -1.14833573857804
  O   -1.10735044683777      1.93880928459337     -0.43840034487905
  O   -0.21016500012284      1.17883746087921     -2.29238866104254
  N   -1.81895859297779     -0.63476968846288      0.03117889882236
  H   -1.86933085770424     -1.61960309652243      0.25348761324694
  H   -2.00360926983386     -0.07924136516375      0.85871006485761
