15
Coordinates from ORCA-job run
  C   0.56470594174399     -0.05294483308469      0.61789895686171
  C   -0.49797359726193      0.07019496933912     -0.48736616688131
  Cl  -0.16445466035945     -0.56827979389473      2.15459589908240
  H   0.01293735504918      0.47560710616935     -1.37830138368779
  C   1.26810428432075      1.22234692127599      0.82709853091245
  N   1.95984468799897      2.16800476377948      0.92376804569908
  N   1.47482811660139     -1.10833835565255      0.19019196840799
  H   2.08105514326102     -1.36150118398485      0.96295915790609
  H   2.06139772965074     -0.76027270609444     -0.56341164420183
  N   -1.53712214625078      1.13042735406720     -0.18477137645544
  O   -1.33451604323725      1.92512505028323      0.72576654678441
  O   -2.50195033305729      1.12154369453497     -0.94084632309126
  N   -1.17910827712577     -1.16907020601749     -0.66591194340790
  H   -1.70248221235788     -1.17019571351605     -1.52983861038486
  H   -0.50226598897567     -1.92164706720455     -0.65183165754372
