15
Coordinates from ORCA-job run
  C   0.69448730407802     -0.29533612670470      0.49451113802373
  C   -0.49296685203678     -0.37600995890282     -0.47233826285896
  Cl  0.85977542949246     -1.94729917309126      1.19183055766082
  H   -0.22260258016510     -1.10920126526945     -1.24336698860491
  C   0.42345900870849      0.61768957097984      1.61653145293645
  N   0.29400454401709      1.36296117507885      2.51602277975383
  N   1.90883892360299     -0.02772529182078     -0.23594668495122
  H   2.71132285847305     -0.23048002589092      0.34877238392168
  H   1.92806765139066      0.95377134674529     -0.48942957669629
  N   -0.66722788036856      0.92266210149919     -1.22923963861887
  O   -1.52262515362113      0.88474961142258     -2.10623262708487
  O   0.00706888425090      1.90160959002579     -0.92180361117174
  N   -1.73823593896816     -0.57375802872140      0.21428916609428
  H   -2.48514336960499     -0.67145755978575     -0.46261391314656
  H   -1.69922282924894     -1.41217596556446      0.77901382474262
