15
Coordinates from ORCA-job run
  C   0.52904061889075      0.59595504178537     -0.40439013094527
  C   -0.07483141665771     -0.27315355414630      0.69343479241532
  Br  1.19322371629656      2.23593944203766      0.57417630613312
  H   0.67364052496541     -0.53906866167402      1.43723676889100
  C   -0.41043642897841      1.06216422879971     -1.41942289499290
  N   -1.06246105673143      1.40512502430805     -2.33658105556328
  N   1.54614483252435     -0.16051809452167     -1.03009551526771
  H   1.92652920565721      0.30345533066383     -1.84531846535132
  H   2.29160133154550     -0.41702041003491     -0.39345335600527
  N   -0.57723975479304     -1.56542158522272      0.10002248626151
  O   -1.59818794254394     -1.49076496551860     -0.57348669411435
  O   0.09155526363153     -2.56030952432105      0.34754242972636
  N   -1.22828412323301      0.33611704470225      1.43126902351791
  O   -1.37385092216447     -0.08353274056556      2.57575008989398
  O   -1.92544384840929      1.15103342370796      0.84131621540089
