15
Coordinates from ORCA-job run
  C   0.61069197061874      0.60254289846854     -0.14807317789262
  C   -0.57877695127036     -0.34718656761552      0.06908713502412
  Br  1.49995913017717      1.09699920333623      1.51400614214345
  H   -1.13187019797183     -0.45717698310349     -0.86741317760006
  C   0.12208459197966      1.83926683727810     -0.77489840490110
  N   -0.23183691302449      2.77201325744862     -1.39859161749568
  N   1.57031922053730     -0.12247132630061     -0.94971636798609
  H   2.41938359369197      0.42085817885049     -1.05314275683517
  H   1.19150387909492     -0.31981951447412     -1.87203614361881
  N   -1.58700480535302      0.10883661420497      1.08949953171021
  O   -2.30029428152783     -0.77085232580616      1.55195886622294
  O   -1.65498107907649      1.31247165033483      1.29956109439851
  N   -0.09613329228111     -1.71644549740611      0.43397314855987
  O   -0.15534888526464     -2.54861009936821     -0.46461527985225
  O   0.32430401967001     -1.86942632584755      1.57140100812269
