15
Coordinates from ORCA-job run
  C   0.25147413398129      0.77224866347071     -0.48136935284022
  C   -0.70663726523377     -0.05490909270790      0.39202644081572
  Br  -0.04251611730112      2.66771623831567     -0.06497952093844
  H   -1.71407229686596      0.35674309950920      0.39898601494189
  C   -0.16314227138454      0.60999835392115     -1.88579588352152
  N   -0.45435410172977      0.47169683919410     -3.01734002385379
  N   1.61730101855980      0.46358722849915     -0.18113372123054
  H   1.80969443510857     -0.50461818006895     -0.41680775367209
  H   2.24129776582653      1.07342632384579     -0.69538809345449
  N   -0.21660000125263     -0.11409581325677      1.81758796966634
  O   -0.58318045874281      0.80744751993183      2.53339072368679
  O   0.49979773833818     -1.05930511010804      2.11760838755868
  N   -0.81617941264489     -1.47990392635717     -0.07307241826975
  O   0.12215937876845     -1.95483545789170     -0.70557522638659
  O   -1.84504254542735     -2.05419668629708      0.26386245749801
