15
Coordinates from ORCA-job run
  C   0.25118730730813      0.57332592890412     -0.60238834401086
  C   -0.20099331721198     -0.55289943003253      0.34147612813291
  Br  -1.09507252553013      1.96478003521773     -0.82268672104193
  H   0.51871922375132     -1.37463209967959      0.29841782076814
  C   0.51942659751267      0.00308962392021     -1.93073403722245
  N   0.86884471484106     -0.43848828096582     -2.96388121118434
  N   1.40491390701826      1.18563358907706      0.01660680360350
  H   1.69988191838310      1.99349600083300     -0.51939713323222
  H   2.17654054449803      0.52604803327985      0.06856270374759
  N   -1.53896815886626     -1.16289047214601      0.01842347357106
  O   -2.08247999436630     -1.75585788419893      0.94023829749765
  O   -1.91775549416180     -1.07957129370957     -1.14225010698273
  N   -0.20854963546443     -0.07638435436821      1.76051608656996
  O   0.72821479009461     -0.46715103955049      2.44875391967177
  O   -1.12390987780628      0.66350164341919      2.09034232011195
