10
Coordinates from ORCA-job run
  C   -0.45307432447838     -0.87043000442838     -0.49994213350595
  C   0.43234421435875      0.07751854490713     -0.07685030782716
  H   -0.11841720432156     -1.70091445578172     -1.10769750318920
  C   -1.82324160789677     -0.75759892407905     -0.14986058111289
  N   -2.94447718802077     -0.60990435407750      0.18105598388844
  N   0.11041913848771      1.22393158846339      0.60290916988803
  H   -0.81421166102462      1.25730816886791      1.00775276803927
  H   0.83498235788041      1.63712296410128      1.16687467034224
  C   1.81805232180041     -0.06916678595309     -0.42897102857553
  N   2.95762395321481     -0.18886674201996     -0.69527103794726
