10
Coordinates from ORCA-job run
  C   -0.45658040276785     -0.94274723633431     -0.34124390903920
  C   0.43157766223789      0.06228865464747     -0.09085043845996
  H   -0.12613149714079     -1.86454448408840     -0.80174153855243
  C   -1.82474766150260     -0.77131664690930     -0.00763079717705
  N   -2.94496859936877     -0.57134489573149      0.29842482653883
  N   0.11474267667298      1.30786017567825      0.38746729161500
  H   0.84402395727446      1.80993897654397      0.86706440865704
  H   -0.80636786783960      1.41053348640222      0.78868611449661
  C   1.81469646531123     -0.14140161793634     -0.42537483717184
  N   2.95275526712305     -0.29926641227207     -0.67780112090701
