10
Coordinates from ORCA-job run
  C   -1.00732437146285     -0.29737874157042      0.03436545942972
  C   0.21867516441558      0.29494548121202      0.05657507637103
  H   -1.86435728683486      0.21481548868238      0.46272926290694
  C   -1.22176838695142     -1.57584161005574     -0.54243662086486
  N   -1.42227825335816     -2.63821620336860     -1.00925951940914
  N   0.46890261450535      1.56975750444475      0.51378675183103
  H   -0.24569747247806      1.97730053844087      1.09678783226500
  H   1.40772752902752      1.75034048417353      0.83163523450433
  C   1.35586866530966     -0.38155846670707     -0.50581555315627
  N   2.31125179782724     -0.91416447525172     -0.93936792387779
