10
Coordinates from ORCA-job run
  C   -0.48335079972519     -0.97667697690128      0.15572457622388
  C   0.44507396621734      0.01418492331275      0.02164002791108
  H   -0.18213207284661     -1.97442400662694      0.44688583733415
  C   -1.85115716789325     -0.69769774654949     -0.09687264175529
  N   -2.97186758590445     -0.40392103044811     -0.31201699914100
  N   0.19914501084085      1.28190080765400     -0.43913475863601
  H   0.84316995606483      2.00286010969259     -0.15768185935528
  H   -0.76965545028587      1.56506633388259     -0.47258514253666
  C   1.82152873709252     -0.28965699752930      0.30368721241294
  N   2.94824540643982     -0.52163541648681      0.54935374754218
