10
Coordinates from ORCA-job run
  C   -0.47296034347325     -0.99037865078650      0.09080768345808
  C   0.44088874605565      0.02245726720217      0.06294084739118
  H   -0.15250192087070     -2.01514386895486      0.22562295984200
  C   -1.85395699054403     -0.69499569732488     -0.04535680710936
  N   -2.98448935848590     -0.38731567582672     -0.17098514152043
  N   0.14796493975392      1.36085111080007      0.00548714302846
  H   -0.79768642933475      1.59971831830851     -0.25666059419113
  H   0.85822684472103      1.96685586937874     -0.37164616393931
  C   1.83511636826225     -0.30414271857640      0.18765145554487
  N   2.98039814391578     -0.55890595422014      0.27213861749565
