10
Coordinates from ORCA-job run
  C   -0.40127374995120     -0.90665379576232     -0.47807437526032
  C   0.44366918605501      0.04548319511580      0.01298216017507
  H   -0.01417576138954     -1.75032820461308     -1.03415303897738
  C   -1.79638417069877     -0.79712370479355     -0.24504190469807
  N   -2.94503187957803     -0.65065092303398     -0.02645938366372
  N   0.08295129658237      1.09453947118916      0.81909876398770
  H   -0.90474003510842      1.29873949124231      0.87071259122622
  H   0.68335629933187      1.90281336081329      0.81150379627568
  C   1.85086315229243     -0.07883205960458     -0.25289070277838
  N   3.00276566246429     -0.15798683055304     -0.47767790628680
