10
Coordinates from ORCA-job run
  C   -0.99865119612267     -0.23367910851890     -0.22148639736451
  C   0.21374998603160      0.27330967843865      0.13570034408937
  H   -1.86814778097712      0.41655643225213     -0.25878740081297
  C   -1.18463080967901     -1.60281664371634     -0.54330961691534
  N   -1.36734023405975     -2.73257029061751     -0.82105452731682
  N   0.43367293206387      1.56749289325914      0.55245995300679
  H   1.36729716354140      1.92286022531199      0.42228287005609
  H   -0.29180177720952      2.23147440650159      0.32991651556772
  C   1.36618903196257     -0.58481365068509      0.18572731815047
  N   2.33066268444864     -1.25781394222567      0.21855094153919
