10
Coordinates from ORCA-job run
  C   -1.01084456077530     -0.26502275779165     -0.09975620165954
  C   0.22003726847089      0.27238314890017      0.12470141221476
  H   -1.90029211588539      0.34449586998164      0.03415066300816
  C   -1.18883287678725     -1.61515526407363     -0.49745860771707
  N   -1.36461366102640     -2.73009167125998     -0.83328013698523
  N   0.44767610659477      1.54200989064565      0.60799706794047
  H   1.33868506269802      1.95168424105312      0.37700962359035
  H   -0.32700065142904      2.18419418164350      0.54278083158848
  C   1.39985904030480     -0.52983004351542     -0.05304498790158
  N   2.38532638783489     -1.15466759558342     -0.20309966407879
