10
Coordinates from ORCA-job run
  C   -0.39352972583887     -0.96951874467055     -0.34362537876451
  C   0.44312594328095      0.04516756949210      0.01978366627313
  H   0.00428691396090     -1.89074221600784     -0.74875400165747
  C   -1.79440414707943     -0.81867335872893     -0.17723005411225
  N   -2.94727615092836     -0.63062062837627     -0.02214367867958
  N   0.06485581293700      1.20880773409613      0.63905531283002
  H   -0.92213825129789      1.42239391961141      0.62163326435920
  H   0.67224240205647      2.00374385534978      0.52458000827147
  C   1.85726133655985     -0.12519306970250     -0.17317805330705
  N   3.01557586634938     -0.24436506106334     -0.34012108521295
