10
Coordinates from ORCA-job run
  C   -0.41270330303375     -0.97895440206110     -0.29085501574304
  C   0.44010099500903      0.05684236496143     -0.04273929116313
  H   -0.05246543310049     -1.88548480970395     -0.75938447268285
  C   -1.77925199321086     -0.86728638266493      0.07372592070983
  N   -2.90279308167005     -0.71163162233376      0.39295289947658
  N   0.12455750281277      1.20701025749416      0.63353334830209
  H   -0.85948242057571      1.39301278069995      0.76388680889353
  H   0.68838065287294      2.01880765134371      0.44247191085424
  C   1.81564474152582     -0.07374494888737     -0.43951000553796
  N   2.94001233937028     -0.15957088884814     -0.77408210310927
