10
Coordinates from ORCA-job run
  C   -0.99026492946095     -0.32908058919803      0.11493532949311
  C   0.21538846028257      0.30025767541423      0.04417100358622
  H   -1.82300839854805      0.15178852474828      0.62057848894798
  C   -1.21563459498383     -1.60507719220126     -0.46290405318908
  N   -1.42724902433447     -2.66560506506027     -0.92901923425917
  N   0.46442651869321      1.57667277990696      0.49766859305716
  H   1.42030721864162      1.78275947468246      0.74024527738427
  H   -0.21186448852804      1.95475497243762      1.14294346127107
  C   1.32022896566180     -0.33345884855982     -0.62281129971160
  N   2.24767027257615     -0.83301173217018     -1.14680756657995
