10
Coordinates from ORCA-job run
  C   -1.01324849796773     -0.22911669356712     -0.15517290905470
  C   0.23233093180633      0.28883334022393      0.03145062929355
  H   -1.88069587796671      0.42466784275436     -0.13632987179272
  C   -1.23242535485102     -1.61069737363464     -0.39183803471649
  N   -1.44037353316614     -2.75372765202119     -0.58423809993419
  N   0.51590020692532      1.62988118817586      0.16490082694029
  H   1.36191049354314      1.85687771980547      0.66280839599010
  H   -0.26510762779381      2.22562748794192      0.39236218852972
  C   1.38163480565414     -0.57498186155211      0.00715003921648
  N   2.34007445381648     -1.25736399812649      0.00890683552795
