10
Coordinates from ORCA-job run
  C   -0.47884934247596     -0.98739299292026      0.10544425898192
  C   0.44353663699179      0.01570908280636      0.03775056530299
  H   -0.17721814365149     -1.99320428993038      0.36635509791529
  C   -1.84040094176638     -0.70925023813596     -0.18015789044878
  N   -2.95432780226906     -0.41162142007630     -0.42295988021649
  N   0.19851522791473      1.29791084168468     -0.38216301075116
  H   0.82729969787151      2.01295625208534     -0.05456324764490
  H   -0.77181622708887      1.57384178482476     -0.42952903644986
  C   1.81454357684275     -0.28618274197245      0.34715092505457
  N   2.93771731763099     -0.51276627836577      0.61367221825643
