10
Coordinates from ORCA-job run
  C   -0.46505326337250     -0.99686107515465     -0.03662480146222
  C   0.44563988802587      0.01786573927998      0.01184059561174
  H   -0.14197374444285     -2.02756377471673      0.02606574420522
  C   -1.84410752448660     -0.69810667189023     -0.18433403033066
  N   -2.97509842732103     -0.38877922428351     -0.30166013930324
  N   0.16867704713734      1.34920400957660     -0.16627824257765
  H   -0.80446091566787      1.61406171497699     -0.11092637466200
  H   0.81060849992192      2.00592021965769      0.24722801885602
  C   1.83490429553918     -0.31087127590971      0.17898847918608
  N   2.97286414466654     -0.56486966153644      0.33470075047672
