10
Coordinates from ORCA-job run
  C   -0.99390431905996     -0.30697631813756     -0.14354161646261
  C   0.21294405486275      0.30494506408262      0.01045950889723
  H   -1.90215821647571      0.28792131378149     -0.18056847469847
  C   -1.12029668550756     -1.71411771654254     -0.27296089447596
  N   -1.25298071144180     -2.87960993024422     -0.37672386719480
  N   0.40608629856490      1.66822922968168      0.04078839135504
  H   -0.41508492211257      2.22621625362156      0.21660152478600
  H   1.22980732409207      1.98910717666156      0.52401313667755
  C   1.41673468091019     -0.47982584109050      0.06040695026574
  N   2.41785249616770     -1.09488923181411      0.12152534085029
