10
Coordinates from ORCA-job run
  C   -0.41430590370416     -0.89931882649049     -0.48138342449057
  C   0.44187354655596      0.05623063702929     -0.01693256878084
  H   -0.04788818677690     -1.71358554040139     -1.09281690396309
  C   -1.79209723609339     -0.83010777620056     -0.14991988195726
  N   -2.92486585233347     -0.71566845066060      0.15385414959471
  N   0.11474815120015      1.06976395849105      0.84748074474732
  H   0.69639984604372      1.89146140918891      0.82560658786193
  H   -0.87150612661450      1.25172267811691      0.96737834064142
  C   1.83071732114121     -0.03002341754587     -0.37741195694022
  N   2.96692444058138     -0.08047467152726     -0.67785508671341
