10
Coordinates from ORCA-job run
  C   -0.97205189430521     -0.31357523610660     -0.24201500924990
  C   0.19171556732116      0.30106322138912      0.10802136188180
  H   -1.86290738639376      0.27926915172324     -0.42934290269060
  C   -1.07783132158284     -1.72267275492167     -0.36933592726407
  N   -1.19027704948633     -2.88863263926211     -0.48980077169643
  N   0.33020423376332      1.65205296621648      0.33756100439535
  H   -0.40533854643023      2.23811604334484     -0.02606000117867
  H   1.25488104467623      2.03077146520375      0.20974117559797
  C   1.37278838717223     -0.48141409584709      0.35381748598960
  N   2.35881696526542     -1.09397812173997      0.54541358421493
