10
Coordinates from ORCA-job run
  C   -0.98031439834966     -0.36818091180733      0.07325384546038
  C   0.20966289363752      0.29372850347608      0.09121443752346
  H   -1.89002054997861      0.14488834104658      0.37183564062571
  C   -1.08640428185959     -1.72874449824710     -0.31451001406410
  N   -1.20252524902357     -2.85529107608857     -0.63725838221173
  N   0.38788757546882      1.57978022712189      0.55089406732572
  H   1.17809379151099      2.07971566637005      0.17577417518843
  H   -0.44779550700568      2.13800987332212      0.63299536479964
  C   1.41539148130730     -0.38213951984978     -0.30486040076643
  N   2.41602424429248     -0.90276660534393     -0.63933873388109
