10
Coordinates from ORCA-job run
  C   -0.44707398222282     -1.00539557193972      0.06411729714514
  C   0.42365688758163      0.04298386812365      0.13094031419425
  H   -0.11658789475258     -2.00915174101813      0.29678991561417
  C   -1.79771036670049     -0.77398370849870     -0.30329431450956
  N   -2.90265554520978     -0.51829017286269     -0.62294789040384
  N   0.09720380334906      1.36415615657585     -0.03784642584522
  H   -0.80175080716976      1.55151184354083     -0.45828285424612
  H   0.83739349982608      1.98273702634669     -0.32668285752071
  C   1.79094447874355     -0.21810636853896      0.48933887403690
  N   2.91657992655512     -0.41746133172881      0.76686794153499
