10
Coordinates from ORCA-job run
  C   -0.98662160396496     -0.22015029344562     -0.28612267530932
  C   0.20494968247563      0.26652069742771      0.15884240135630
  H   -1.85272051663089      0.43339362832767     -0.33976195207431
  C   -1.15417928466238     -1.57347819571236     -0.67762171810847
  N   -1.31612983810259     -2.69061810511346     -1.01292798427413
  N   0.40334800979446      1.53964926060504      0.64533726263239
  H   1.34292312769347      1.89758703916750      0.58087490537343
  H   -0.30880840071734      2.21563985532781      0.41587408409862
  C   1.35306795002611     -0.59606193181119      0.23035602539390
  N   2.31417087408848     -1.27248195477310      0.28514965091157
