10
Coordinates from ORCA-job run
  C   -0.46993929127418     -0.98526433661497      0.14832343310764
  C   0.44434420613243      0.02035743794235      0.02811801312097
  H   -0.14553584267654     -2.00913031308448      0.28055445720565
  C   -1.85561508089350     -0.68308826290770      0.11120129492230
  N   -2.99057330118107     -0.36946343542386      0.06578248308015
  N   0.15487760588926      1.35915569909537     -0.03684596695224
  H   0.83778208196790      1.95207177620151     -0.47956687743554
  H   -0.80671221008211      1.59896825768117     -0.23108570898808
  C   1.84243395109793     -0.31234725775080      0.05452697014125
  N   2.98993788101988     -0.57125956513859      0.05899190179790
