10
Coordinates from ORCA-job run
  C   -0.37001602648597     -1.00209936024779     -0.26718120228567
  C   0.44194677505198      0.05503814031537      0.02414863428658
  H   0.04830960762923     -1.98703559696823     -0.42867695151302
  C   -1.77116489173386     -0.80437395737614     -0.36984884607318
  N   -2.92588720279730     -0.57878265534794     -0.43439100654932
  N   0.04128098054330      1.36121929990120      0.14241928277293
  H   0.61840225988442      1.96516118793292      0.70489334140676
  H   -0.95257478351074      1.51704091011546      0.23283567240210
  C   1.85617858531836     -0.17409566486181      0.14095355149183
  N   3.01352469610059     -0.35107230346305      0.25484752406097
