10
Coordinates from ORCA-job run
  C   -0.98476287172815     -0.35374633433349      0.09477910703307
  C   0.22557047259691      0.27025001753798      0.11947509209409
  H   -1.84975265935399      0.12277705317422      0.54746437871817
  C   -1.16752381090367     -1.63045907053418     -0.49643671367195
  N   -1.34431483213371     -2.68749659175335     -0.98443892614019
  N   0.48583931193501      1.45853795527994      0.76521001827824
  H   1.26036518373380      1.99635286596296      0.41048616792266
  H   -0.31972779050608      2.01323660314277      1.01020065511323
  C   1.37113482754413     -0.35637400697778     -0.48251455085801
  N   2.32317216881576     -0.83307849149906     -0.98322522848932
