10
Coordinates from ORCA-job run
  C   -0.88662088672576     -0.31120527688881     -0.46873913977335
  C   0.23697527857310      0.28615393117110      0.01644980114617
  H   -1.59349524787356      0.26381549829064     -1.06020051258722
  C   -1.17667621773395     -1.68114404181511     -0.24102277175447
  N   -1.44351661482275     -2.81406701758164     -0.06200023077064
  N   0.61891371367636      1.58144592918538     -0.25421661093693
  H   -0.10184914534246      2.18763296482092     -0.61434516926678
  H   1.21805743859017      2.01882682405853      0.42738035943317
  C   1.17463644802184     -0.47171953615481      0.79978649445469
  N   1.95357523363699     -1.05973927508618      1.45690778005534
