10
Coordinates from ORCA-job run
  C   -0.41881769080893     -1.01398508314809     -0.08086335263594
  C   0.43938318286159      0.03594444525363      0.07072912219773
  H   -0.04433582650547     -2.02858627781003     -0.11867358364616
  C   -1.81365234584971     -0.77362067416570     -0.17739665577088
  N   -2.95930054616263     -0.51024169781298     -0.25907214718006
  N   0.07462159639906      1.34739408829771      0.23661951829842
  H   0.75031446068917      2.04570399855876     -0.02753319482957
  H   -0.88282940350331      1.57521918066457      0.01011738982125
  C   1.84911579873744     -0.23389420617110      0.14918997828645
  N   3.00550077414279     -0.44393377366678      0.19688292545875
