10
Coordinates from ORCA-job run
  C   -0.94655614532059     -0.42896595703710      0.15373238086411
  C   0.19287995342395      0.31146008883767      0.06336034989412
  H   -1.76647734132435     -0.08746776094027      0.77911554665254
  C   -1.12007219398986     -1.64357034009962     -0.55862552019902
  N   -1.28667178200351     -2.65740216427318     -1.13407627986102
  N   0.37964611373849      1.54358396455508      0.65048985385383
  H   -0.25956098411032      1.77756205092112      1.39455301585031
  H   1.33474091956943      1.80547721334151      0.83589520164039
  C   1.27936914419458     -0.13661746682318     -0.76501663083648
  N   2.19370231582216     -0.48305962848203     -1.41942791785877
