10
Coordinates from ORCA-job run
  C   -0.47928293140957     -0.98095473175389      0.14249119057029
  C   0.41711296878957      0.04769776906181      0.15041647232688
  H   -0.19237300688032     -1.96145612097246      0.49923521779063
  C   -1.79981865073007     -0.75884517405492     -0.32590406232566
  N   -2.87778365529871     -0.51372281239221     -0.73385664971579
  N   0.14004315752968      1.35060301113219     -0.17498884289450
  H   0.91283353743467      1.91832986361683     -0.48222214831539
  H   -0.72886461096604      1.51366371413705     -0.66321777749887
  C   1.75386636619675     -0.20763199222950      0.61311770766626
  N   2.85526682533405     -0.40868352654491      0.97392889239614
