10
Coordinates from ORCA-job run
  C   -0.36381160905696     -0.96668159517492     -0.38046569825596
  C   0.43726531184668      0.03892311586622      0.07658482805131
  H   0.06682991832526     -1.90062860223031     -0.71698175520680
  C   -1.77148380167804     -0.79092083610067     -0.40054378393219
  N   -2.93179495879123     -0.58539510762710     -0.40049779219210
  N   0.00395747769118      1.21905975378605      0.62408155212054
  H   0.63771316584955      2.00048767110665      0.58272293349161
  H   -0.96766256767980      1.45058238972576      0.47544491963182
  C   1.86079891990167     -0.16058860078194      0.07506442690804
  N   3.02818814359169     -0.30483818856974      0.06659036938373
