10
Coordinates from ORCA-job run
  C   -0.99620709061706     -0.32620876016281     -0.05148363045105
  C   0.21543848485706      0.25895356659319      0.15852942531134
  H   -1.90142909936008      0.16275156777786      0.29731903346225
  C   -1.13258982644606     -1.57697128111186     -0.70719766007255
  N   -1.27455877253910     -2.61070513980787     -1.25312095968961
  N   0.41639490239768      1.41810276282024      0.87566566144556
  H   1.24501316209875      1.94284446145715      0.64452305060021
  H   -0.40056161816367      1.99015497804002      1.02476124061808
  C   1.41541110541727     -0.38412066297781     -0.30409253113335
  N   2.41408875235520     -0.87580149262812     -0.68490363009088
