10
Coordinates from ORCA-job run
  C   -0.99935683629770     -0.32043551072037     -0.01011316092442
  C   0.22098534583087      0.26459898294314      0.14131503369513
  H   -1.89196007402112      0.18908384491579      0.34212588807030
  C   -1.15982820463532     -1.59723336285725     -0.60768778267106
  N   -1.32076475819548     -2.65215777063238     -1.10578668773062
  N   0.44730037199455      1.45322112743504      0.79994943762972
  H   1.27284635179701      1.96133021460603      0.52511684727466
  H   -0.36181022313374      2.03756565977064      0.94353953767609
  C   1.40426635810615     -0.40824466206012     -0.32136074228661
  N   2.38732166855479     -0.92772852340052     -0.70609837073318
