10
Coordinates from ORCA-job run
  C   -1.01762588592762     -0.24745863582549     -0.06826214408802
  C   0.22809568053636      0.27470019915293      0.10545111053229
  H   -1.89228553671877      0.38644118665703      0.04753229741191
  C   -1.23085124463624     -1.61421882255715     -0.38408030942235
  N   -1.43780648889559     -2.74201436370418     -0.65268439379528
  N   0.49166395485864      1.56381055839515      0.51186787661156
  H   1.38731268901352      1.93941412878925      0.24435226185384
  H   -0.26970655360711      2.21886277088967      0.42304145732279
  C   1.38686009967090     -0.56266023385635     -0.04788540772110
  N   2.35434328570592     -1.21887678794087     -0.18033274870564
