10
Coordinates from ORCA-job run
  C   -0.45829207351349     -1.00077526284691      0.04083469782902
  C   0.40747312605613      0.04520257698258      0.17476547339552
  H   -0.16268702051036     -1.99963398484129      0.33430730727918
  C   -1.75960947901235     -0.77370397346500     -0.47673865530323
  N   -2.82311108700438     -0.52358060975511     -0.91830771064798
  N   0.11024364465252      1.36299269165420     -0.06169860540207
  H   -0.73618032395537      1.54254459252583     -0.58246461215860
  H   0.88183709616477      1.96986108631895     -0.28622324048809
  C   1.72576240267120     -0.21228650617233      0.68652255318920
  N   2.81356371445132     -0.41062061040092      1.08800279230705
