10
Coordinates from ORCA-job run
  C   -0.95033817266077     -0.28309568330296     -0.34410163334343
  C   0.18865842384140      0.29354875051063      0.13000795743797
  H   -1.80390789361637      0.33703821832397     -0.60313726860045
  C   -1.07997661761658     -1.68653857233336     -0.50620733441411
  N   -1.21143839606369     -2.84739859629524     -0.65421854273461
  N   0.33661432404868      1.63552218263554      0.40288940502093
  H   1.27830005886723      1.99256886399620      0.37404014301489
  H   -0.34586664367480      2.24843749091896     -0.01579290931664
  C   1.32034265421045     -0.52422730222207      0.47330614709115
  N   2.26861226266446     -1.16585535223166      0.74421403584431
