10
Coordinates from ORCA-job run
  C   -0.96914077588070     -0.37823725261008      0.13666353123644
  C   0.22662656459343      0.27295773501362      0.11389381689740
  H   -1.81892211927705      0.06684788885298      0.64643281765400
  C   -1.15713932189326     -1.64281542264303     -0.47840141308779
  N   -1.34323908047791     -2.68972569513520     -0.98461161632105
  N   0.49465085212970      1.45040789181450      0.77616367927791
  H   1.23701818929140      2.01503731958071      0.39520737704687
  H   -0.30967040288178      1.98043685632466      1.07436502751489
  C   1.35256699290190     -0.31373051855730     -0.56093393100367
  N   2.28724910149426     -0.76017880264086     -1.11877928921498
