10
Coordinates from ORCA-job run
  C   -0.45668391953630     -0.99936110927688     -0.08017166670223
  C   0.40342736086441      0.02525593608089      0.18774408575866
  H   -0.16351545524974     -2.02447776849304      0.10481673464874
  C   -1.74816832138239     -0.71649655341084     -0.59518124876390
  N   -2.80341012549117     -0.41934729026676     -1.02744370655815
  N   0.10796500043453      1.36123555803092      0.09577658352682
  H   0.88201100233567      1.98981427655690     -0.04458815202717
  H   -0.72967407057630      1.59838200282887     -0.41630356341250
  C   1.71295539754633     -0.28810684354201      0.69102609189756
  N   2.79509313105496     -0.52689820850806      1.08532484163218
