10
Coordinates from ORCA-job run
  C   -0.46800250078799     -0.99561045224660      0.02213921896946
  C   0.43818266595287      0.01928851192625     -0.08141861442776
  H   -0.14379606725919     -2.02703217666854     -0.02309710186375
  C   -1.84526116237428     -0.69531265142035      0.18342606198896
  N   -2.97300427352478     -0.38299919362696      0.32199057526462
  N   0.13717069418900      1.35568144539939     -0.14327617893231
  H   0.85610874229273      1.99834697533644      0.14681954959452
  H   -0.79990650025130      1.61480716305847      0.13016054441700
  C   1.82912328424349     -0.31323680890505     -0.22683872293493
  N   2.97138511751943     -0.57393281285305     -0.33090533207580
