10
Coordinates from ORCA-job run
  C   -0.46215834488767     -0.99981422988203      0.02220632139451
  C   0.43879814965064      0.02367165886740      0.07250537436298
  H   -0.15646055309186     -2.01195868503352      0.25272004457620
  C   -1.80560167061949     -0.73595973785849     -0.34992430334861
  N   -2.90656861416004     -0.45272629873436     -0.66004656295506
  N   0.19499115603834      1.32097731131968     -0.29936411328968
  H   -0.77513967946561      1.58045652754157     -0.40546392359351
  H   0.78169892135314      2.03018243908864      0.10898706933033
  C   1.79118149394860     -0.26716178051657      0.46313067831897
  N   2.89825914123395     -0.48766720479232      0.79424941520388
