10
Coordinates from ORCA-job run
  C   -0.97558197920818     -0.37665979910006      0.08464527288601
  C   0.22473310777614      0.26460529435359      0.13469634349405
  H   -1.83915146756873      0.05065054946095      0.58617693910881
  C   -1.15192138249627     -1.60833767908944     -0.59712084367535
  N   -1.32907776216589     -2.62777512659359     -1.15959880263229
  N   0.47727470482788      1.40598682624928      0.86313222823879
  H   -0.33310721326086      1.92691343836570      1.16078064792272
  H   1.23583097022962      1.98240000764407      0.53548034086844
  C   1.36943457174877     -0.29643754947717     -0.53029820427934
  N   2.32056645011753     -0.72034596181333     -1.07789392193183
