10
Coordinates from ORCA-job run
  C   -1.00383110452819     -0.29847928896975      0.07084342260315
  C   0.22071874605822      0.29681270133495      0.04294609928221
  H   -1.85246940930858      0.22748838095091      0.49903785343682
  C   -1.22982567801808     -1.59483342657911     -0.45960022695368
  N   -1.44318699718367     -2.67109383027449     -0.88724382486120
  N   0.47791660993843      1.58772652091438      0.44868096593712
  H   1.42283107198980      1.78075041200053      0.74025065190769
  H   -0.22495068297767      2.01412143145201      1.03250967277558
  C   1.34546606892788     -0.39712723327717     -0.52358337190300
  N   2.28833137510187     -0.94536566755226     -0.96484124222468
