10
Coordinates from ORCA-job run
  C   -0.51747180941626     -0.96958397500857      0.07291440024887
  C   0.43123062595194      0.01027140325090      0.11219050498535
  H   -0.25305203282858     -1.99793824484876      0.28168593969492
  C   -1.86211043000611     -0.63379460614016     -0.23026754368513
  N   -2.95884458869837     -0.29314606908321     -0.49422100153999
  N   0.19731046986370      1.35413597067342     -0.02812420446039
  H   -0.70311238557613      1.61278932279641     -0.40538446388989
  H   0.96773046371565      1.92029703241678     -0.34419976908279
  C   1.78945801822155     -0.35741895773306      0.40602279884869
  N   2.90786166877260     -0.64561187632375      0.62938333888037
