10
Coordinates from ORCA-job run
  C   -0.44012566113954     -1.00758668436656      0.06950040096916
  C   0.44524817367861      0.02820195638688      0.00062233822946
  H   -0.09013483297496     -2.03149842341338      0.05790739610557
  C   -1.82970977803141     -0.73792894637773      0.16528161974186
  N   -2.96976713872789     -0.44777853200664      0.23477134027664
  N   0.12830314408419      1.35770500313050      0.11322148691301
  H   0.76486494518721      2.01457789830122     -0.30797930463588
  H   -0.84937790360393      1.59261576363290      0.01872994931756
  C   1.84647401309063     -0.26918277751196     -0.11787547176968
  N   2.99422503843708     -0.49912525777525     -0.23417975514770
