15
Coordinates from ORCA-job run
  C   -0.63486195662784      0.18478862740320      0.13717421593582
  C   0.51623354755142     -0.32954450555423      0.99417088308482
  Br  -2.16626536765935      0.54355030912465      1.29117773372880
  H   0.65206309367061      0.33712773584138      1.84923020561911
  H   0.20809853991008     -1.30607179403186      1.37627361360176
  C   -1.02876684307290     -0.74489295522492     -0.98386971568841
  H   -0.15819992125180     -0.90228939979525     -1.62172678960998
  H   -1.34296237729732     -1.69947186253710     -0.55805661338621
  H   -1.84482665255473     -0.32862638413311     -1.56986719272812
  N   -0.23329572856655      1.54071567584589     -0.43844432315228
  O   -0.77798355495632      1.89701589911403     -1.47584215481317
  O   0.59430836094320      2.19167072540206      0.19443244864180
  N   1.69689242351701     -0.46684236905872      0.15282875677072
  H   2.24254364152921     -1.27322608375568      0.42083944319529
  H   2.27702279486529      0.35709638135966      0.23167948880005
