15
Coordinates from ORCA-job run
  C   -0.63388846944215      0.18808990596949      0.13744045259772
  C   0.51098645547382     -0.34572868846040      0.99094947236964
  Br  -2.16470027442795      0.54747686817544      1.29232127514529
  H   0.64887113537661      0.30810620300613      1.85546200759275
  H   0.19563010389573     -1.32557012146967      1.35841003596506
  C   -1.03401597625538     -0.72592948415899     -0.99406036493858
  H   -1.36121594042598     -1.68081464850773     -0.57888457458894
  H   -1.84258990907480     -0.29453157974117     -1.57945611926789
  H   -0.16266634515360     -0.88740967489632     -1.62989298436559
  N   -0.21815968719456      1.54619201126888     -0.42153426255783
  O   -0.74718218018569      1.91481080362158     -1.46282413044939
  O   0.60496395051492      2.18700410010874      0.22743303753587
  N   1.69304760855681     -0.47907102539142      0.15070624214248
  H   2.23215322014420     -1.29311204831810      0.40864795568927
  H   2.27876630819801      0.33948737879354      0.24328195713014
