15
Coordinates from ORCA-job run
  C   -0.42320719073717      0.31652645108208      0.08642179108067
  C   1.03987830039696     -0.00748829644827      0.37190883735228
  Br  -1.41154948955468      0.32303819453834      1.77449187271177
  H   1.44221498453748      0.74038734132693      1.06119651965297
  H   1.57750340779251      0.09870455379297     -0.57547684295731
  C   -1.07745946780202     -0.62739853754269     -0.89271042443329
  H   -0.96881921294041     -1.64383084694545     -0.52046644045468
  H   -2.12695219671838     -0.37772951137740     -1.03194428979987
  H   -0.56289693792393     -0.54794767428165     -1.85581904591516
  N   -0.53722813323767      1.73913292738762     -0.45158938063058
  O   0.45615108755060      2.45755785359237     -0.36743726885084
  O   -1.61441578717354      2.06452185820341     -0.93558234945003
  N   1.15706042015064     -1.38810381455437      0.82437372931547
  H   2.11029152229584     -1.70302369752729      0.70108508440438
  H   0.94042869336376     -1.44534680124661      1.81154820797422
