10
Coordinates from ORCA-job run
  C   0.37866288568576      0.06883862720994      0.66693370105593
  C   -0.37863953115747     -0.06870893214151     -0.66696050244489
  H   -0.04069475294333     -0.61269882845903      1.41110671749328
  H   0.04073001768062      0.61279996003306     -1.41115497004881
  H   0.27425313903624      1.08403820534634      1.05753260627407
  H   -0.27424666354395     -1.08392067377373     -1.05753005496278
  C   1.79772678218353     -0.23239123996124      0.48600751185015
  N   2.93115599827360     -0.47956121728085      0.31131154276367
  C   -1.79769335010432      0.23257456529993     -0.48604791757782
  N   -2.93125452511067      0.47902953372708     -0.31119863440279
