15
Coordinates from ORCA-job run
  C   -0.85539277949353     -0.05298018926620     -0.11574973109406
  C   0.61428784599984     -0.04399943696734      0.34329098432050
  Cl  -1.44562034337605      1.58293112114939     -0.34615956645040
  H   0.98936246840288     -1.06699713189953      0.27361881749511
  N   -0.98251667604705     -0.88111195159966     -1.43372586883147
  O   -1.48369878869495     -0.35734196631779     -2.40668383488118
  O   -0.56488507817340     -2.02249839053025     -1.31306951362899
  C   -1.66624165188466     -0.75758608241443      0.86753170454533
  N   -2.34225883014740     -1.33442028164583      1.63701292148310
  N   0.72296726778599      0.46016558047274      1.65051877471436
  H   0.56881384399659      1.45965304754726      1.68506445879471
  H   1.62059060873366      0.24697837420442      2.06178111722193
  N   1.41648946750660      0.74179291655012     -0.71416366005952
  O   2.04675965860030      1.71768409578242     -0.32839069188188
  O   1.35934298679119      0.30873029493467     -1.85987591174756
