15
Coordinates from ORCA-job run
  C   -0.85147169625851     -0.10336037933901     -0.11726753802997
  C   0.61399673932980     -0.00533653729839      0.34479749003587
  Cl  -1.53675747810579      1.49350399192017     -0.35831382110860
  H   1.04746723066356     -1.00559961226869      0.28425987099426
  N   -0.92596544999321     -0.94479972818237     -1.43138970481419
  O   -0.43895219914695     -2.05779191160571     -1.30478353888677
  O   -1.45784836792542     -0.45770012208025     -2.40718691807614
  C   -1.62042733934970     -0.84974253307896      0.86893115146623
  N   -2.25758285721354     -1.46315369376550      1.64318408632689
  N   0.68944196383325      0.51396114173415      1.64832584398204
  H   1.59638431610245      0.35663937457056      2.06405240489025
  H   0.47590169247369      1.50262947628943      1.67575215521156
  N   1.37296956684644      0.81714515734700     -0.71643005542342
  O   1.34941924399727      0.36988750912675     -1.85792181350097
  O   1.94142463474667      1.83271786663082     -0.33700961306707
