15
Coordinates from ORCA-job run
  C   -0.94140230932543     -0.32541041485406      0.16340423883241
  C   0.42377122235279      0.18382423707279      0.69499701198420
  Cl  -2.18616299057360      0.11570529901663      1.31866519157858
  H   0.48194544871798     -0.11909296738367      1.74091746941657
  N   -1.18234112600485      0.39962919512192     -1.18631020196991
  O   -2.17240466521804      1.08668426985300     -1.33150963076785
  O   -0.28188959041162      0.18624724713081     -1.99017157684509
  C   -1.02633775878587     -1.74950245279818     -0.12727962534775
  N   -1.18058591447259     -2.88701961106606     -0.38244758345875
  N   0.50686520865218      1.58395003561600      0.55193196010251
  H   0.83298330149119      1.83463904966307     -0.37438442649448
  H   1.12609381389911      1.99184925105705      1.23765896766845
  N   1.58552599636867     -0.58333296850122      0.03550499944509
  O   2.34047953203075      0.04874909635557     -0.69163841661976
  O   1.67345983127932     -1.76691926628365      0.34266162247577
