14

C	0.0	0.0	0.0
C	-0.234574	0.262789	-1.523837
Br	1.944486	0.0	0.0
H	0.406347	1.095124	-1.811967
H	0.173743	-0.628035	-2.012183
N	-0.399126	1.24833	0.802114
O	-0.453813	2.298786	0.172372
O	-0.552372	1.113771	2.004493
N	-0.540023	-1.128523	0.61991
H	-1.562036	-0.981461	0.666397
H	-0.350629	-1.952896	0.063452
C	-1.52173	0.539703	-2.172258
N	-2.259669	0.812855	-3.047158
Br	-3.587548	0.0	0.0
