14

C	0.0	0.0	0.0
C	-0.226281	0.185003	-1.542293
Br	1.944025	0.0	0.0
H	0.335084	-0.63287	-1.987838
H	0.280734	1.106503	-1.797319
N	-0.376635	1.25047	0.796402
O	-0.624689	1.102648	1.983496
O	-0.309972	2.313116	0.187236
N	-0.335347	-1.166985	0.72822
H	-1.343774	-1.225112	0.881754
H	-0.008784	-1.977407	0.220413
C	-1.483638	0.213839	-2.326965
N	-2.103176	0.300086	-3.32962
Br	-3.197866	0.0	0.0
