16

C	-0.384154	0.263844	-1.445032
C	0.0	0.0	0.0
F	-0.016752	1.520109	-1.793313
H	1.098487	0.0	0.0
H	0.055449	-0.463756	-2.124622
N	-1.885918	0.167327	-1.622735
O	-2.324942	-0.965541	-1.809886
O	-2.547703	1.196258	-1.531005
N	-0.398391	-1.409054	0.317858
O	-1.143065	-1.604861	1.279535
O	0.061513	-2.285949	-0.408608
C	-0.556522	0.99628	0.985174
H	-0.16869	0.770805	1.978093
H	-0.208299	1.989375	0.699183
H	-1.646548	0.989145	1.021537
Br	3.410371	0.0	0.0
