16

C	-0.533241	0.032092	-1.412622
C	0.0	0.0	0.0
F	-1.887049	0.228511	-1.422179
H	1.093877	0.0	0.0
H	-0.047547	0.840796	-1.96041
N	-0.253483	-1.209027	-2.232809
O	0.899434	-1.315813	-2.624634
O	-1.189182	-1.965326	-2.459887
N	-0.446037	-1.240027	0.710592
O	-0.173379	-2.310744	0.172154
O	-1.020896	-1.122523	1.792664
C	-0.443088	1.245535	0.746233
H	-1.52496	1.295237	0.863272
H	-0.090015	2.12092	0.195271
H	0.027557	1.259351	1.727883
Br	3.410137	0.0	0.0
