16

C	-0.541303	-0.13552	-1.409347
C	0.0	0.0	0.0
F	0.213037	-0.967213	-2.160572
H	1.094172	0.0	0.0
H	-1.579362	-0.463846	-1.435584
N	-0.549536	1.219891	-2.080361
O	-1.57042	1.884179	-1.901366
O	0.431172	1.554086	-2.727706
N	-0.4097	-1.228377	0.764844
O	-0.099391	-1.266384	1.950071
O	-1.017064	-2.123044	0.171757
C	-0.464751	1.230533	0.759897
H	-0.070606	1.1668	1.772608
H	-1.553181	1.321918	0.78686
H	-0.04256	2.121987	0.295793
Br	3.415233	0.0	0.0
