16

C	-0.4596	0.024653	-1.435183
C	0.0	0.0	0.0
F	-1.819393	0.165119	-1.557545
H	1.099278	0.0	0.0
H	0.035369	0.838718	-1.962959
N	-0.112163	-1.219498	-2.207843
O	0.584178	-1.070918	-3.209604
O	-0.609233	-2.26946	-1.811366
N	-0.512435	-1.207755	0.718349
O	-1.697203	-1.189613	1.058957
O	0.271587	-2.125817	0.931742
C	-0.472915	1.252719	0.718575
H	-0.120464	1.223116	1.750895
H	-0.017318	2.124533	0.242644
H	-1.558032	1.341341	0.706208
Br	3.466279	0.0	0.0
