16

C	-0.536871	-0.076959	-1.411542
C	0.0	0.0	0.0
F	0.056886	-1.073889	-2.107424
H	1.097793	0.0	0.0
H	-1.617948	-0.202425	-1.453324
N	-0.263089	1.224378	-2.133332
O	-1.090559	2.112644	-1.92743
O	0.718357	1.29786	-2.855761
N	-0.450586	-1.239196	0.720121
O	-1.360862	-1.912686	0.225653
O	0.096588	-1.478602	1.789989
C	-0.472236	1.198349	0.807152
H	-0.040957	2.109977	0.398395
H	-1.560606	1.291052	0.814141
H	-0.100135	1.083122	1.824326
Br	3.43487	0.0	0.0
