13

C	-0.312606	-0.05566	-1.360274
C	0.044497	0.157279	0.113419
Br	-0.12107	1.829303	-2.257199
H	1.107045	0.448474	0.162271
H	-0.031632	-0.818541	0.604233
N	0.493068	-1.038462	-1.90226
H	1.485177	-0.952656	-1.618108
H	0.372482	-1.17084	-2.896431
C	-1.735653	-0.337409	-1.5671
N	-2.868153	-0.612531	-1.722148
C	-0.813634	1.114917	0.797689
N	-1.503268	1.857534	1.390101
Cl	3.310757	-0.645714	-0.594447
