13

C	-0.614215	0.028149	-1.455455
C	0.062605	0.083498	-0.074457
Br	0.077403	-1.561328	-2.374287
H	1.153536	0.135044	-0.117668
H	-0.159706	-0.847567	0.456318
N	-2.062832	-0.073894	-1.447395
H	-2.324223	-0.884238	-0.894972
H	-2.439116	0.75474	-0.99392
C	-0.252161	1.201817	-2.257405
N	-0.007576	2.168785	-2.87813
C	-0.499629	1.207711	0.667622
N	-1.011094	2.11506	1.211167
Cl	3.259148	-0.41298	0.420118
