17

C	-0.558524	-0.068966	-1.440884
C	0.0	0.0	0.0
Cl	0.441459	-1.308475	-2.263665
H	1.092119	0.0	0.0
C	-2.006954	-0.523429	-1.551141
H	-2.656707	0.191959	-1.046819
H	-2.271778	-0.572999	-2.61028
H	-2.151564	-1.509277	-1.109231
N	-0.289692	1.219313	-2.057377
H	-1.111798	1.806207	-1.972151
H	-0.061261	1.096628	-3.034914
C	-0.494803	-1.088435	0.836848
N	-0.9386	-1.971883	1.470352
N	-0.435522	1.288498	0.659189
O	-1.595684	1.663232	0.462242
O	0.378315	1.858023	1.367479
Br	3.414498	0.0	0.0
