17

C	-0.302992	0.003552	-1.521433
C	0.0	0.0	0.0
Cl	-2.091498	-0.066046	-1.762089
H	1.093757	0.0	0.0
C	0.25315	1.232354	-2.21241
H	1.315044	1.321356	-1.962179
H	-0.259306	2.140536	-1.90248
H	0.131929	1.08541	-3.287418
N	0.278131	-1.16888	-2.1292
H	-0.061617	-2.008979	-1.672206
H	1.28714	-1.118224	-1.983382
C	-0.49668	-1.210534	0.635818
N	-0.847847	-2.227627	1.106958
N	-0.50523	1.200358	0.729503
O	0.056745	2.264023	0.484143
O	-1.445389	1.054054	1.510024
Br	3.352772	0.0	0.0
