14
Coordinates from ORCA-job run
  C   -0.61648125410577     -0.69058851597954     -0.28192177563831
  C   0.84162791967605     -0.24203612536793     -0.44852068015664
  Cl  -1.26047554158553     -1.00529098762264     -1.91550322928772
  H   1.40257318503891     -1.01056037421689     -0.98471242946388
  H   -0.59643095665816     -1.65233703884858      0.23315308223546
  C   -1.47240402465886      0.31958935803889      0.45233455994518
  H   -1.08511423965807      0.49132972438900      1.45959215149702
  H   -2.49264010566135     -0.05574033817670      0.53788419675667
  H   -1.49683531259396      1.27049106047667     -0.08254383356847
  N   1.45267953486866     -0.18078466624293      0.93726791083257
  O   1.65961392880694      0.91773990605706      1.43749357501817
  O   1.64089348364581     -1.27530742333465      1.45804528340292
  C   0.96900977007871      1.04506614742821     -1.11810092684164
  N   1.05298361280660      2.06942927340002     -1.68546788473146
