14
Coordinates from ORCA-job run
  C   -0.62856483960844     -0.43572974195024      0.25283388339802
  C   0.72910856687383      0.01049499021050     -0.28532403310077
  Cl  -0.85966884446356     -2.14005937194365     -0.22371389570425
  H   0.79125104676330     -0.14759442808087     -1.36403764207988
  H   -0.58354731652742     -0.41881827607829      1.34277437170160
  C   -1.75876524758502      0.42444391268088     -0.27795301605082
  H   -2.71343193700873      0.04230493056527      0.08460312117515
  H   -1.64606630397072      1.45529327268712      0.06535132146204
  H   -1.77750210158714      0.41081647185686     -1.36987047979684
  N   1.82662340870854     -0.84122703161586      0.31854664556408
  O   2.57687577655243     -1.40551945102600     -0.46741491581446
  O   1.85952126192308     -0.88855860337563      1.54175617300902
  C   0.99968188337598      1.40341387973999      0.05526467219348
  N   1.18448464655387      2.53073944632992      0.32818379404364
