14
Coordinates from ORCA-job run
  C   -0.68316981180152      0.31876981063139     -0.45474635010755
  C   0.66507685936502     -0.41431177434121     -0.39390396316829
  Cl  -0.41982412003229      2.07950776294130     -0.50815901578634
  H   0.46811290864570     -1.48932071841966     -0.35327923989674
  H   -1.12058033037019      0.04743931949130     -1.41911377365571
  C   -1.62950733998719     -0.04655639935631      0.67356435918179
  H   -2.60047239981951      0.41419954167927      0.48880146659751
  H   -1.75861131610387     -1.13040219666024      0.72550648685412
  H   -1.25787992413663      0.30417989643956      1.63542115713529
  N   1.39086789104048     -0.09929248231108      0.89367360956339
  O   2.24576300511264      0.77629341750671      0.87278666269325
  O   1.02121438821052     -0.74811723225555      1.86855658196284
  C   1.51768248762149     -0.11011511214088     -1.53586588733326
  N   2.16232770225536      0.09972616679540     -2.49424209404029
