14
Coordinates from ORCA-job run
  C   -0.63115344695343     -0.43283323277497      0.25030358904185
  C   0.73411173733732      0.00693777939203     -0.27368744708832
  Cl  -0.84904979900033     -2.14714274213391     -0.19666993698645
  H   0.81597366543388     -0.17361184339857     -1.34746812742484
  H   -0.60405033878834     -0.39477294015529      1.34027111185292
  C   -1.75519355123822      0.41266691880064     -0.31545706185414
  H   -1.75602231080177      0.37818253698484     -1.40679709906316
  H   -1.65208052530521      1.45011479179642      0.00982304543831
  H   -2.71429000894681      0.03424122792685      0.03873471667209
  N   1.82377750255817     -0.82822125716756      0.36663811072773
  O   1.83542865477924     -0.85074071178659      1.59086705959927
  O   2.58971290722934     -1.40535999815696     -0.39440303419673
  C   0.99431910992565      1.40755282582628      0.04239680839729
  N   1.16951640377053      2.54098664484679      0.29544826488419
