14
Coordinates from ORCA-job run
  C   -0.59208954201920     -0.52632267976924      0.14009850729081
  C   0.73525944324664      0.12494549770787     -0.24218478786079
  Cl  -0.64338303550472     -2.13291021392446     -0.63515337224304
  H   0.85079312590998      0.16566264622829     -1.32724576331905
  H   -0.58723135403059     -0.69849339794884      1.21746581235072
  C   -1.78005404501759      0.31155256792698     -0.29091733541982
  H   -1.77706973586006      1.27270243308545      0.22788802651838
  H   -2.70566332906341     -0.20985687180543     -0.04574650268192
  H   -1.76132684975045      0.48632754732031     -1.36871935363245
  N   1.88648687764982     -0.72112731711059      0.26162393316939
  O   1.88087335058423     -0.98035325723293      1.45828686547034
  O   2.71366226948165     -1.07056149284148     -0.57079670498244
  C   0.85944647491780      1.45379336021357      0.34783138199601
  N   0.92129634945586      2.52364117815051      0.82856929334391
