14
Coordinates from ORCA-job run
  C   -0.68638492453935      0.25755897376956     -0.48848899869456
  C   0.69993565538942     -0.39003447508947     -0.35560176493730
  Cl  -0.52561511194011      2.02681403593502     -0.61394097409212
  H   0.56493041344535     -1.47223129416695     -0.27269451220650
  H   -1.07640257308232     -0.07987834601827     -1.45225860935516
  C   -1.64522908912318     -0.11538528761375      0.62701536667603
  H   -2.63565350367112      0.27618861061113      0.39250651667224
  H   -1.71054266033635     -1.20171673072734      0.72521714686635
  H   -1.32659336666752      0.29967734808766      1.58219614310690
  N   1.36588553739956      0.02177332679848      0.93721141486584
  O   2.17128410182607      0.94245328753539      0.90164794468927
  O   1.00023041265076     -0.60229733205580      1.92963330560560
  C   1.56798098349499     -0.08433992408870     -1.48510040683292
  N   2.23517412515384      0.12241780702305     -2.42834257236371
