14
Coordinates from ORCA-job run
  C   -0.61891766898098     -0.69474667207084     -0.26532332521147
  C   0.82399369539466     -0.22223239850584     -0.48700673216927
  Cl  -1.32868321472620     -0.99324425938881     -1.87447649897652
  H   1.37250979449449     -0.97370321749156     -1.05903618396101
  H   -0.56321166778382     -1.66400196828817      0.23277111810753
  C   -1.45637400383927      0.29101607380414      0.52159016169692
  H   -1.51682653742785      1.25003674630019      0.00436426852258
  H   -1.02865210788728      0.45176182989006      1.51420781450416
  H   -2.46672765173348     -0.10039344064979      0.64438434685867
  N   1.49300012893386     -0.17327611379843      0.87226094660205
  O   1.72232626936840     -1.27249758699852      1.36606347664927
  O   1.70977305266466      0.92070608919421      1.37854739626886
  C   0.90524988307373      1.07685977245658     -1.14061932853737
  N   0.95254002844904      2.10371514554674     -1.70772746035437
