14
Coordinates from ORCA-job run
  C   -0.60909662243412     -0.69597964642436     -0.28416381245915
  C   0.83137750209177     -0.20610362332536     -0.48385559670502
  Cl  -1.30011542879793     -0.97354943213928     -1.90532797086884
  H   1.39177773378324     -0.94267538394602     -1.06366471402556
  H   -0.54875844842480     -1.67307016317911      0.19779219478642
  C   -1.46371513654367      0.26824450050015      0.51080543317445
  H   -2.47105375687298     -0.13523838964521      0.61802751636619
  H   -1.52904488571693      1.23490623809476      0.00869118750821
  H   -1.04653945082728      0.41747083415403      1.50964960274347
  N   1.48783061788413     -0.17513018916067      0.88228374579354
  O   1.68747208591711      0.91127989995958      1.41114703503733
  O   1.71836932447080     -1.28112668182195      1.36008227071696
  C   0.90571042320401      1.10499273873114     -1.11354161296507
  N   0.94678604226663      2.14897929820232     -1.64892527910292
