19
Coordinates from ORCA-job run
  C   0.57705300608948      0.16323733706077     -0.53310219471691
  C   -0.90415008136728     -0.12978545701298     -0.23346681431763
  Br  0.63772236702103      0.90868422716961     -2.38144310069173
  H   -1.24721014166770     -0.80934526931663     -1.03126528270088
  C   1.41155654674968     -1.10801318581312     -0.56759534206751
  H   0.94980429647218     -1.86945818649823     -1.20083559027772
  H   1.52072688428739     -1.50811031591620      0.44403009522955
  H   2.40985647466857     -0.89861495058512     -0.95549075557839
  C   1.18337379535093      1.20694133039562      0.38934417623519
  H   2.20323830452950      1.44233767344560      0.07872712345306
  H   1.22142139905450      0.81118396274891      1.40883787361992
  H   0.58547822931665      2.11635482848146      0.39549037247089
  N   -1.66569956152226      1.11618397093760     -0.18962951190913
  H   -2.62797717665659      0.90902887833385      0.05169421122455
  H   -1.66918453152423      1.54402356863067     -1.10866245083234
  C   -1.09331364852261     -0.84113136845881      1.10418639739235
  H   -0.58164132955435     -1.80334497513242      1.13799864002775
  H   -0.75120089375677     -0.21572660057398      1.93045658678127
  H   -2.15885393896814     -1.03644546789660      1.25772556665773
