19
Coordinates from ORCA-job run
  C   0.63549682068940      0.19929919212680      0.03419526369395
  C   -0.88726663633021     -0.07998184855867     -0.03750865158842
  Br  1.10930171938031      0.73871000340143      1.88146804086186
  H   -1.05846870198956     -0.32037503532019     -1.09781007364397
  C   1.02682504288195      1.35792940873242     -0.87290545668401
  H   2.10271848338606      1.53601318633757     -0.82790631979940
  H   0.52491166542714      2.28404980131679     -0.59231265413564
  H   0.76075162016680      1.11094543666565     -1.90716141895836
  C   1.46011322151352     -1.03514953540721     -0.30291838566627
  H   2.52256014911919     -0.78669032304186     -0.34528501309310
  H   1.15583448005545     -1.41353461617300     -1.28568783960635
  H   1.32852557946856     -1.82890381537608      0.43116126999907
  N   -1.75886470245655      1.04424691255039      0.27271492465227
  H   -1.59182285000398      1.82235173335057     -0.35184847967198
  H   -1.58240685819295      1.36077248380313      1.21990061220133
  C   -1.33982967802914     -1.27748292533523      0.78902021315510
  H   -1.13552526829720     -1.11624793868764      1.85032342715967
  H   -0.85485463423097     -2.20458991889789      0.48126097051129
  H   -2.41699945255781     -1.39136220148696      0.66229957061295
