19
Coordinates from ORCA-job run
  C   0.52570530438476      0.08878590369628     -0.53363924043763
  C   -0.97258779210826      0.02709013746015     -0.13220586671581
  Br  0.67606311000203     -0.66562406544013     -2.36133265250328
  H   -1.52734264159775      0.49243955542290     -0.95552876845345
  C   1.43057756351668     -0.73203362796009      0.37201485033923
  H   1.18603923115073     -1.79365876577935      0.33877932275979
  H   2.47481963047632     -0.61469904093183      0.07543903142165
  H   1.33399696692257     -0.38177093225515      1.40553481617296
  C   1.01581568833744      1.52783089496951     -0.63092171044351
  H   0.34426198204211      2.13146559545958     -1.24708183497926
  H   1.07827758706276      1.97147313416696      0.36668605596882
  H   2.01190135274391      1.56559301411126     -1.07488998734237
  N   -1.29504727557378      0.79210675040783      1.06869718496003
  H   -0.80899773410368      0.42591372321732      1.87837041579114
  H   -1.06332896594578      1.77090560134308      0.96543231671778
  C   -1.49605415232748     -1.38892264112457      0.06881389954496
  H   -1.26276208416412     -2.03668919304961     -0.77611701676481
  H   -1.07301026161962     -1.83309253783002      0.97465248523529
  H   -2.57832750919884     -1.34811350588412      0.19829669872846
