19
Coordinates from ORCA-job run
  C   0.54345796648489      0.15174274492268     -0.53894642284293
  C   -0.94628277245672     -0.19698381441462     -0.28944221650848
  Br  0.64481232586300      0.89545107658755     -2.38181050640437
  H   -1.23706472365858     -0.87510136072273     -1.10086702318760
  C   1.42710441573128     -1.08711346816881     -0.52967459421620
  H   1.52073307701032     -1.46987986496721      0.49021258362162
  H   1.00803095018096     -1.87314675365903     -1.16272917106595
  H   2.42857760323237     -0.85151730778827     -0.89418282003090
  C   1.08464825760878      1.22094292648970      0.39568809892502
  H   0.50081470687464      2.14027220309518      0.33729535405216
  H   2.11801137648204      1.46309364880968      0.14081150729036
  H   1.06745578337026      0.85560877730045      1.42717172651903
  N   -1.87849322895728      0.91963420339809     -0.32206174946918
  H   -1.72197549974173      1.53565044964832      0.46695708859694
  H   -1.75801382969671      1.45705542021253     -1.17214467847616
  C   -1.14692740363474     -0.93559577260376      1.03292459289881
  H   -2.21201376975858     -1.14439279300441      1.14323689724080
  H   -0.83758474290763     -0.32483934789542      1.88630257702363
  H   -0.60529049202656     -1.88088096723994      1.07025875603342
