17

C	0.0	0.0	0.0
C	-0.366394	0.148095	-1.535472
Br	1.942711	0.0	0.0
H	0.367984	-0.466478	-2.06385
C	-0.645662	0.993714	0.91445
H	-0.372373	2.003301	0.604145
H	-1.733717	0.81487	0.788489
H	-0.342314	0.829502	1.94755
N	-0.367723	-1.42068	0.418584
O	-0.675336	-1.607932	1.588565
O	-0.27217	-2.296539	-0.437835
C	-0.067992	1.54819	-1.902034
N	0.165456	2.653248	-2.225014
N	-1.677603	-0.209172	-1.985479
H	-2.410895	0.016221	-1.237311
H	-1.690944	-1.218554	-2.064078
F	-3.190654	0.0	0.0
