17

C	0.0	0.0	0.0
C	-0.37224	0.141529	-1.536754
Br	1.942945	0.0	0.0
H	0.383109	-0.447112	-2.066748
C	-0.639337	0.994026	0.918662
H	-0.37177	2.003086	0.601137
H	-1.727386	0.81289	0.800254
H	-0.323436	0.834464	1.948617
N	-0.365048	-1.422598	0.418294
O	-0.730267	-1.603585	1.572446
O	-0.213315	-2.303648	-0.42471
C	-0.123588	1.552439	-1.899708
N	0.067359	2.665269	-2.225202
N	-1.669448	-0.261897	-1.989479
H	-2.406966	-0.042887	-1.243949
H	-1.648642	-1.272023	-2.060284
F	-3.170104	0.0	0.0
