17

C	0.0	0.0	0.0
C	-0.434207	0.014741	-1.477769
Br	1.938123	0.0	0.0
H	0.053905	0.920278	-1.857997
C	-0.405739	1.2632	0.74451
H	0.057117	1.280831	1.730359
H	-0.052157	2.124126	0.171693
H	-1.493088	1.247521	0.80733
N	-0.456415	-1.222554	0.761746
O	-0.484751	-1.135056	1.983429
O	-0.695075	-2.243441	0.1273
C	-1.89157	0.20357	-1.768679
N	-2.621907	0.383207	-2.689122
N	0.130083	-1.08996	-2.263201
H	-0.366295	-1.929258	-1.990368
H	-0.134977	-0.894371	-3.223511
F	-2.603528	0.0	0.0
