17

C	0.0	0.0	0.0
C	-0.4818	-0.009741	-1.461505
Br	1.942407	0.0	0.0
H	0.132882	0.792296	-1.906494
C	-0.385726	1.293499	0.70272
H	0.114125	1.364788	1.667936
H	-0.069182	2.131225	0.07591
H	-1.467976	1.274784	0.811066
N	-0.388714	-1.203004	0.842996
O	-0.173718	-2.311242	0.366429
O	-0.800742	-0.987392	1.976024
C	-1.893094	0.423047	-1.691779
N	-2.571062	0.851188	-2.570105
N	-0.294426	-1.280446	-2.160004
H	-0.521698	-1.099698	-3.130972
H	0.679136	-1.558566	-2.10108
F	-2.587693	0.0	0.0
