17

C	0.0	0.0	0.0
C	-0.664375	-0.203613	-1.383727
Br	1.930534	0.0	0.0
H	-1.638695	-0.635093	-1.069283
C	-0.502162	1.223762	0.730362
H	-0.206135	2.121615	0.186533
H	-1.594758	1.096893	0.747845
H	-0.074855	1.258095	1.730189
N	-0.335929	-1.238354	0.851115
O	-0.354694	-1.105009	2.06856
O	-0.50831	-2.292674	0.252871
C	0.089623	-1.087474	-2.271112
N	0.665106	-1.783494	-3.023069
N	-1.055093	1.012292	-2.073063
H	-1.876842	1.319212	-1.556783
H	-0.329017	1.717883	-2.040331
F	-2.862606	0.0	0.0
