17

C	0.0	0.0	0.0
C	-0.688536	-0.193671	-1.347189
Br	1.932901	0.0	0.0
H	-1.755883	-0.373856	-0.955118
C	-0.489586	1.257837	0.6837
H	-0.192135	2.110469	0.076267
H	-0.06431	1.331478	1.68264
H	-1.581244	1.151937	0.706412
N	-0.356943	-1.206557	0.88337
O	-0.561134	-2.275039	0.316151
O	-0.360645	-1.039798	2.09673
C	-0.164466	-1.282014	-2.158384
N	0.253975	-2.074703	-2.920963
N	-0.706978	1.064239	-2.098254
H	-0.23799	0.96107	-2.987985
H	-1.67948	1.301596	-2.257449
F	-2.914076	0.0	0.0
