15

C	-0.464526	0.128632	-1.455967
C	0.0	0.0	0.0
Cl	-0.300336	-1.532569	-2.150702
H	1.08893	0.0	0.0
H	-0.391285	-0.896706	0.47438
C	-1.884075	0.480827	-1.54973
N	-3.015203	0.788994	-1.628103
C	0.408368	1.065972	-2.281363
H	1.449035	0.760019	-2.154396
H	0.120768	1.014856	-3.332976
H	0.292086	2.083595	-1.91315
N	-0.444522	1.138328	0.845786
O	-0.659307	0.890994	2.029667
O	-0.536467	2.252285	0.329963
Br	3.456734	0.0	0.0
