15

C	-0.57083	0.040399	-1.421923
C	0.0	0.0	0.0
Cl	0.207227	1.316505	-2.409106
H	1.088235	0.0	0.0
H	-0.374666	-0.897169	0.493916
C	-0.268292	-1.250088	-2.048702
N	-0.070538	-2.303699	-2.529341
C	-2.081745	0.262705	-1.445008
H	-2.44963	0.204845	-2.470141
H	-2.578559	-0.496623	-0.836226
H	-2.316188	1.249082	-1.0433
N	-0.532194	1.13811	0.786897
O	-0.081481	2.257175	0.561377
O	-1.432527	0.887756	1.595779
Br	3.461149	0.0	0.0
