15

C	-0.46081	0.214999	-1.4262
C	0.0	0.0	0.0
Cl	-2.267611	0.055421	-1.510533
H	1.100597	0.0	0.0
H	-0.35381	-0.96681	0.355356
C	-0.119892	1.520062	-1.996312
N	0.147215	2.497705	-2.589761
C	0.17506	-0.87708	-2.284495
H	-0.141915	-1.857052	-1.921713
H	1.26218	-0.794041	-2.1935
H	-0.128274	-0.764175	-3.325801
N	-0.497824	1.000707	0.970324
O	-0.62799	2.163916	0.595114
O	-0.71773	0.594361	2.109985
Br	3.420814	0.0	0.0
