15

C	-0.586132	-0.137066	-1.402422
C	0.0	0.0	0.0
Cl	-0.138975	1.393844	-2.247624
H	1.089615	0.0	0.0
H	-0.356544	0.922788	0.45666
C	-0.019224	-1.239059	-2.183296
N	0.329893	-2.114845	-2.884016
C	-2.108716	-0.241456	-1.402368
H	-2.486029	-0.206705	-2.425334
H	-2.528221	0.596971	-0.841157
H	-2.413479	-1.18319	-0.943325
N	-0.441997	-1.098346	0.895123
O	-0.593544	-2.218778	0.405984
O	-0.591723	-0.820917	2.082935
Br	3.418302	0.0	0.0
