15

C	-0.455227	-0.067593	-1.443419
C	0.0	0.0	0.0
Cl	-2.260563	-0.229195	-1.497072
H	1.092727	0.0	0.0
H	-0.360751	-0.877318	0.534911
C	-0.107268	1.100507	-2.258379
N	0.146858	1.942664	-3.038015
C	0.177331	-1.309492	-2.066831
H	-0.122067	-1.401383	-3.110637
H	1.264017	-1.215293	-1.991137
H	-0.146199	-2.197881	-1.519564
N	-0.502905	1.171823	0.748767
O	-0.547504	2.254644	0.170989
O	-0.817262	0.982025	1.923177
Br	3.421868	0.0	0.0
