15

C	-0.468398	0.178555	-1.443794
C	0.0	0.0	0.0
Cl	-0.158676	-1.327031	-2.374181
H	1.101278	0.0	0.0
H	-0.373129	0.840698	0.589343
C	-1.902012	0.468163	-1.54911
N	-3.029382	0.775703	-1.674299
C	0.350983	1.309236	-2.061842
H	0.149388	2.239743	-1.524112
H	0.084454	1.437567	-3.111857
H	1.411625	1.066007	-1.961249
N	-0.573707	-1.219728	0.619259
O	-1.773766	-1.167089	0.906285
O	0.156139	-2.189407	0.792632
Br	3.516524	0.0	0.0
