15

C	-0.595797	0.223114	-1.394214
C	0.0	0.0	0.0
Cl	0.278899	1.495732	-2.301404
H	1.102139	0.0	0.0
H	-0.370977	-0.946809	0.39326
C	-0.447277	-1.030048	-2.140502
N	-0.41322	-2.043231	-2.734339
C	-2.078151	0.591873	-1.343271
H	-2.482313	0.653487	-2.354285
H	-2.630078	-0.162292	-0.776094
H	-2.19411	1.562505	-0.859695
N	-0.496503	1.038329	0.935034
O	-0.165409	2.202357	0.727385
O	-1.239751	0.66834	1.848136
Br	3.447378	0.0	0.0
