13

C	0.0	0.0	0.0
C	-0.511081	0.108787	-1.430363
F	1.391732	0.0	0.0
H	-0.206334	1.064745	-1.865156
H	-0.333167	0.889733	0.54154
H	-1.609689	0.083258	-1.384229
C	-0.472338	-1.252204	0.699933
H	-0.077646	-1.27225	1.718797
H	-1.563729	-1.255759	0.730821
H	-0.111404	-2.135943	0.167637
C	-0.006153	-0.968303	-2.278173
N	0.411963	-1.825194	-2.962351
Br	-3.885651	0.0	0.0
