13

C	0.0	0.0	0.0
C	-0.476897	-0.001934	-1.444349
F	1.391234	0.0	0.0
H	-1.576313	-0.021661	-1.430639
H	-0.330904	0.9124	0.501392
H	-0.105958	-0.906927	-1.936854
C	-0.446227	-1.236539	0.745875
H	-1.535911	-1.274186	0.782307
H	-0.039701	-1.215166	1.759654
H	-0.05464	-2.121627	0.237541
C	0.01533	1.159698	-2.178727
N	0.447172	2.088272	-2.753078
Br	-3.77788	0.0	0.0
