13

C	0.0	0.0	0.0
C	-0.510028	0.108521	-1.430628
F	1.391741	0.0	0.0
H	-0.196098	1.060516	-1.868131
H	-0.331403	0.890665	0.540684
H	-1.608745	0.091084	-1.384234
C	-0.473482	-1.250932	0.700606
H	-1.564945	-1.25521	0.726939
H	-0.082994	-1.268193	1.721454
H	-0.108943	-2.135384	0.171834
C	-0.01457	-0.976149	-2.274818
N	0.396069	-1.839144	-2.95608
Br	-3.887227	0.0	0.0
