13

C	0.0	0.0	0.0
C	-0.514836	-0.32804	-1.393054
F	1.394014	0.0	0.0
H	-0.253375	-1.359087	-1.650928
H	-0.318771	1.011086	0.267632
H	-1.610641	-0.245452	-1.358853
C	-0.485832	-0.996517	1.023313
H	-0.091044	-0.737546	2.008709
H	-0.135255	-1.999025	0.7604
H	-1.577495	-0.978334	1.04792
C	0.03545	0.559925	-2.415925
N	0.495202	1.242569	-3.251995
Br	-3.891004	0.0	0.0
