11
Coordinates from ORCA-job run
  C   0.70352995217208      0.03065635416605     -0.41825211005361
  C   -0.35098813566231     -0.09320417720292      0.38722069719807
  H   0.71053855545932      0.46881812589044     -1.40811731415183
  H   -0.19496472869099     -0.55892530818054      1.35697228319146
  N   2.02737419904929     -0.44182572795342     -0.01380308245911
  O   2.92388882781588     -0.27644176437963     -0.84211710052595
  O   2.16498315925806     -0.95923521415523      1.09033543039942
  C   -1.72361664024510      0.37025579018824      0.02390595557676
  H   -2.08072905990869      1.10776470537651      0.74782144818515
  H   -2.42683101984986     -0.46662792494203      0.04821319668792
  H   -1.75318510939768      0.81876514119253     -0.97017940404828
