11
Coordinates from ORCA-job run
  C   0.64780786568908     -0.19716341256192     -0.46133595451893
  C   -0.30160165704142      0.10816694068619      0.42279991663428
  H   0.53229028233639     -0.25833558422561     -1.53593115230054
  H   -0.02641311646892      0.12920286528801      1.47419821461999
  N   2.01486868313971     -0.49394953823125     -0.03450200163524
  O   2.80604969385631     -0.75922614201207     -0.94056594557738
  O   2.28702807895872     -0.46289230577967      1.16163878906324
  C   -1.71164756575263      0.42076601078916      0.04209516249650
  H   -2.40045024486297     -0.27696740941758      0.52607126889303
  H   -1.86501848716726      0.36642708567203     -1.03668262577008
  H   -1.98391353268700      1.42397148979271      0.38121432809511
