11
Coordinates from ORCA-job run
  C   0.69510398102857      0.05950826124057     -0.42935612387578
  C   -0.33881682448102     -0.09705463943868      0.39686025360584
  H   0.65733603287148      0.43143868417835     -1.44527742878398
  H   -0.13772103207638     -0.48401839520072      1.39255369689551
  N   2.05649746514021     -0.27678487402392     -0.01376747755246
  O   2.24470447026473     -0.71320586303860      1.11754426385198
  O   2.93020080464792     -0.08773292233488     -0.86118511364909
  C   -1.74740129410446      0.23102881575299      0.02361691132502
  H   -1.82154832763218      0.60891152658441     -0.99715882490545
  H   -2.15590646551883      0.98422988219296      0.70283733053680
  H   -2.38144881014003     -0.65532047591247      0.11233251255162
