11
Coordinates from ORCA-job run
  C   0.92694309487318      0.41464244044148      0.48261969683009
  C   -0.33773952086544      0.79124169883674      0.26177890969302
  H   1.67336426800963      1.03748256950805      0.95735433138666
  H   -0.57833725184372      1.78060745429088      0.64542453746241
  N   1.48637742447627     -0.85891044735126      0.04920321629294
  O   0.72156612540227     -1.76870600595045     -0.27020682870801
  O   2.71585983801464     -0.92793310858165      0.04235580582361
  C   -1.43825466688821      0.03523088286270     -0.41709051833244
  H   -1.82271511120153     -0.75017517342104      0.23832744730697
  H   -1.08990142100535     -0.46207394187324     -1.32155066616724
  H   -2.25816277897176      0.70859363123779     -0.66721593158801
