11
Coordinates from ORCA-job run
  C   0.70626996430157      0.12276186822669     -0.39699579002518
  C   -0.35108449148607     -0.16772451963080      0.36060045878595
  H   0.70720445139130      0.71491170761462     -1.30320663593975
  H   -0.18803424270481     -0.77901631046480      1.24454968874837
  N   2.04197443254664     -0.36473195788617     -0.05406281766660
  O   2.18697063997155     -1.05109201331958      0.95278558569666
  O   2.94044826627136     -0.03567042909847     -0.82983350254909
  C   -1.73582725339990      0.30292133361088      0.05724361255730
  H   -2.40958090162962     -0.54958223279522     -0.06459113260971
  H   -1.77224112265005      0.90560765781679     -0.85143544819373
  H   -2.12509974261196      0.90061489592607      0.88594598119578
