11
Coordinates from ORCA-job run
  C   0.63014297532280     -0.30907311754043     -0.42311761244109
  C   -0.28115966384170      0.22877872378740      0.38717897989545
  H   0.45281370825574     -0.72734854864226     -1.40569580004353
  H   0.05692631298565      0.60933867706474      1.34764818560451
  N   2.03874576689229     -0.38447530182382     -0.03644261894686
  O   2.78852844293702     -0.89900321151411     -0.86737128469777
  O   2.38232599787001      0.05463278445148      1.05671512120018
  C   -1.73099602385023      0.33156238436421      0.04299587084188
  H   -1.94688523686845     -0.08280427181275     -0.94287738554615
  H   -2.05279551493783      1.37643761164495      0.05826937751817
  H   -2.33664676476529     -0.19904572997942      0.78269716661521
