11
Coordinates from ORCA-job run
  C   0.95559875034088      0.36560121754399      0.46154387436642
  C   -0.34544957585902      0.31261468816166      0.77008725333367
  H   1.71960365176782      0.76448367288731      1.11548207060807
  H   -0.58451286634114      0.73472207760651      1.74397483049169
  N   1.52603191289862     -0.14380321262414     -0.77830140578320
  O   2.75601047144228     -0.19184077514248     -0.82010947980887
  O   0.77090077206912     -0.48437512132887     -1.68839756509408
  C   -1.48174253576120     -0.23620782027405     -0.03790777232908
  H   -1.65975311121063      0.37952990281215     -0.92209325000564
  H   -1.26335761799460     -1.23939953800160     -0.40453925307266
  H   -2.39232985135212     -0.26232509164046      0.56026069729367
