11
Coordinates from ORCA-job run
  C   0.66496956055578     -0.47709829827722     -0.03656206592007
  C   -0.30818957350940      0.43085242065120      0.03177086153657
  H   0.54124306433847     -1.54981939778507     -0.11243659745644
  H   -0.02098976816222      1.47661160378159      0.10573148317674
  N   2.07337964252949     -0.08296525041371     -0.01371456896137
  O   2.88274245618514     -1.00906843399996     -0.08065991251238
  O   2.35888065817465      1.10768130672852      0.06738728316138
  C   -1.76078266425057      0.08347890162724      0.01237911731044
  H   -2.25772347573315      0.57006564837959     -0.83128285222255
  H   -1.92176421075707     -0.99280360084423     -0.06490088562350
  H   -2.25076568937113      0.44306510015205      0.92128813751117
