11
Coordinates from ORCA-job run
  C   0.74080755683596      0.10648332769863     -0.33387022342967
  C   -0.38710845574467     -0.17153668859034      0.31941471489452
  H   0.84624204895853      0.76713957735360     -1.18490588496277
  H   -0.32963649527827     -0.86006635475178      1.15859593107285
  N   2.01470577351154     -0.49276500656596      0.06294426677785
  O   2.98836166016130     -0.16372046445302     -0.61601452808819
  O   2.04027270321646     -1.26342697108846      1.01751025481933
  C   -1.71373204157000      0.41116337648884     -0.04328437971358
  H   -2.42576749837821     -0.38311698832894     -0.28333075755382
  H   -1.64374052617171      1.08366276681903     -0.89950579655084
  H   -2.12940472554093      0.96718342541839      0.80144640273431
