11
Coordinates from ORCA-job run
  C   0.74146348552947      0.18954722852573     -0.29198751318811
  C   -0.38773238924167     -0.24812655129150      0.26436748574793
  H   0.84641054575032      1.04094815981798     -0.95225232084423
  H   -0.32962895481817     -1.12197548879947      0.90825120351249
  N   2.01782743234266     -0.48096481692390     -0.04625822716207
  O   2.99343840202782      0.01475488712159     -0.61168214371952
  O   2.04356911632751     -1.46609000218935      0.68496162338611
  C   -1.71649999781605      0.39865880243066      0.04718238993615
  H   -1.64669476528665      1.26068722792714     -0.61788283560961
  H   -2.13986883201953      0.72880554867243      0.99970842178382
  H   -2.42228404279571     -0.31624499529132     -0.38440808384295
