11
Coordinates from ORCA-job run
  C   0.75554308915130      0.31685190041234      0.00045559524835
  C   -0.39781026720382     -0.35084851559754      0.01108263280006
  H   0.87815183028856      1.39068886389455     -0.06023249516171
  H   -0.35452432695542     -1.43504077169742      0.07633591458290
  N   2.03793378920584     -0.38283949518325      0.07408733568426
  O   2.04644772703093     -1.60775039674386      0.14666896922684
  O   3.03592635846206      0.33893869000611      0.05665817214137
  C   -1.73395006410575      0.31277697844702     -0.06231995036971
  H   -2.28799861714746     -0.04208719364736     -0.93558980469098
  H   -1.64731885462610      1.39851378890790     -0.12509274583062
  H   -2.33240066410013      0.06279615120152      0.81794637636924
