14

C	-0.424493	0.071668	-1.468508
C	0.0	0.0	0.0
Cl	-2.190146	0.484154	-1.577071
H	1.09494	0.0	0.0
H	-0.317125	0.928018	0.485504
C	0.386603	1.148323	-2.177326
H	0.195139	2.111546	-1.700165
H	1.44789	0.907631	-2.066115
H	0.11166	1.208597	-3.231361
C	-0.259985	-1.219074	-2.138705
N	-0.122218	-2.253993	-2.677169
C	-0.565356	-1.132285	0.716689
N	-1.041344	-2.033574	1.299294
Cl	3.310102	0.0	0.0
