14

C	-0.406836	0.057921	-1.476577
C	0.0	0.0	0.0
Cl	-2.208934	0.184152	-1.639981
H	1.095004	0.0	0.0
H	-0.362344	-0.917359	0.469369
C	0.247333	1.242532	-2.172508
H	-0.000245	1.249277	-3.234861
H	1.329024	1.161434	-2.032437
H	-0.105669	2.168315	-1.714443
C	-0.02882	-1.199705	-2.126594
N	0.243356	-2.215014	-2.651573
C	-0.493448	1.15785	0.733601
N	-0.906691	2.088958	1.317314
Cl	3.290836	0.0	0.0
