14

C	-0.418584	0.07303	-1.470421
C	0.0	0.0	0.0
Cl	-2.184741	0.481955	-1.586254
H	1.095588	0.0	0.0
H	-0.319149	0.926537	0.48656
C	0.389025	1.153923	-2.175003
H	1.450245	0.919235	-2.059547
H	0.188355	2.115094	-1.698139
H	0.120911	1.212875	-3.22999
C	-0.240321	-1.215221	-2.142969
N	-0.097161	-2.238288	-2.701328
C	-0.565642	-1.133648	0.713382
N	-1.042498	-2.030087	1.302827
Cl	3.310509	0.0	0.0
