14

C	-0.419275	0.200799	-1.457798
C	0.0	0.0	0.0
Cl	-2.19527	0.570094	-1.545139
H	1.094759	0.0	0.0
H	-0.322837	0.876683	0.570027
C	0.366174	1.363965	-2.050204
H	0.103181	1.514318	-3.098224
H	0.137767	2.272892	-1.488553
H	1.433009	1.145669	-1.944807
C	-0.207229	-1.017108	-2.244297
N	-0.03696	-1.979705	-2.895639
C	-0.55405	-1.201875	0.603987
N	-1.013097	-2.167054	1.091167
Cl	3.29987	0.0	0.0
