14

C	-0.566165	0.012458	-1.426813
C	0.0	0.0	0.0
Cl	0.079726	-1.433166	-2.274717
H	1.092609	0.0	0.0
H	-0.320769	-0.931602	0.477985
C	-2.090581	-0.062944	-1.448817
H	-2.511085	0.815338	-0.954269
H	-2.412354	-0.962886	-0.920535
H	-2.454622	-0.105371	-2.476463
C	-0.136598	1.203542	-2.164203
N	0.106632	2.17683	-2.775355
C	-0.524526	1.126238	0.763724
N	-0.98877	2.02408	1.361901
Cl	3.302558	0.0	0.0
