14

C	-0.422913	0.052156	-1.469476
C	0.0	0.0	0.0
Cl	-2.189635	0.453641	-1.585949
H	1.094583	0.0	0.0
H	-0.317424	0.933926	0.473869
C	0.383731	1.124212	-2.190085
H	0.110658	1.169166	-3.245325
H	0.184962	2.092588	-1.725927
H	1.446214	0.891401	-2.073392
C	-0.249828	-1.244927	-2.126939
N	-0.117406	-2.265602	-2.693719
C	-0.564641	-1.124054	0.730058
N	-1.036816	-2.01958	1.324759
Cl	3.309393	0.0	0.0
