14

C	-0.558254	0.125486	-1.42507
C	0.0	0.0	0.0
Cl	0.061495	-1.224769	-2.430741
H	1.094205	0.0	0.0
H	-0.314064	0.886799	0.563467
C	-2.084239	0.093469	-1.466729
H	-2.440322	-0.855981	-1.06514
H	-2.48278	0.912432	-0.861458
H	-2.437748	0.204055	-2.492822
C	-0.098302	1.38587	-2.01563
N	0.169647	2.425347	-2.493023
C	-0.537392	-1.17867	0.667747
N	-1.024349	-2.102057	1.204847
Cl	3.304425	0.0	0.0
