14

C	-0.40159	0.063873	-1.478326
C	0.0	0.0	0.0
Cl	-2.199933	0.240607	-1.649093
H	1.095016	0.0	0.0
H	-0.365625	-0.916793	0.467525
C	0.290672	1.226096	-2.175101
H	0.045332	1.240316	-3.237925
H	1.369287	1.110416	-2.032374
H	-0.031763	2.163695	-1.718195
C	-0.059418	-1.20708	-2.121781
N	0.182214	-2.233134	-2.640404
C	-0.487551	1.159074	0.735638
N	-0.881756	2.091501	1.330324
Cl	3.293995	0.0	0.0
