16

C	0.0	0.0	0.0
C	-0.527702	-0.054541	-1.436574
Cl	1.777267	0.0	0.0
H	-1.624979	-0.220439	-1.275452
N	-0.552134	1.203166	0.563613
H	-1.591016	1.001912	0.50235
H	-0.299746	1.242156	1.547568
C	-0.377322	-1.198549	0.788415
N	-0.562916	-2.066614	1.559871
N	-0.029833	-1.232652	-2.211691
O	-0.097336	-1.138904	-3.43708
O	0.314091	-2.246124	-1.604385
N	-0.17683	1.147566	-2.145422
H	-0.876494	1.323632	-2.854926
H	-0.217079	1.896809	-1.46173
H	-2.892639	0.0	0.0
