16

C	0.0	0.0	0.0
C	-0.540248	0.048984	-1.429824
Cl	1.803585	0.0	0.0
H	-1.639663	-0.12269	-1.257391
N	-0.533596	1.124931	0.697995
H	-1.56804	1.007081	0.539798
H	-0.377656	0.974667	1.691746
C	-0.331475	-1.275665	0.685609
N	-0.487334	-2.199392	1.397512
N	-0.003217	-1.131543	-2.228213
O	0.596241	-0.888258	-3.279675
O	-0.245569	-2.261733	-1.810149
N	-0.296191	1.291743	-2.051849
H	0.693642	1.430322	-2.210781
H	-0.778031	1.331035	-2.939368
H	-2.913664	0.0	0.0
