16

C	0.0	0.0	0.0
C	-0.570744	-0.049805	-1.421241
Cl	1.786282	0.0	0.0
H	-1.682658	-0.151804	-1.154749
N	-0.494329	1.164742	0.681865
H	-1.519968	0.980816	0.707497
H	-0.36539	1.93427	0.028462
C	-0.381095	-1.171971	0.816805
N	-0.552874	-2.060467	1.565752
N	-0.144564	-1.258745	-2.189393
O	0.195834	-1.107867	-3.370018
O	-0.209854	-2.347997	-1.620478
N	-0.318101	1.166687	-2.117791
H	-1.038133	1.311913	-2.813143
H	0.574779	1.120311	-2.593702
H	-2.880946	0.0	0.0
