16

C	0.0	0.0	0.0
C	-0.394559	-0.087467	-1.513019
Cl	1.82032	0.0	0.0
H	0.441285	-0.517714	-2.068487
N	-0.602328	1.131613	0.61806
H	-1.628806	0.974745	0.50034
H	-0.400302	1.1139	1.613033
C	-0.317613	-1.295526	0.64339
N	-0.487528	-2.288544	1.250463
N	-0.373661	1.387789	-2.038581
O	-1.447938	1.924417	-2.285604
O	0.733302	1.893027	-2.218195
N	-1.592216	-0.773216	-1.702469
H	-1.902059	-0.707279	-2.664176
H	-2.365374	-0.441441	-1.028804
H	-3.216222	0.0	0.0
