15
Coordinates from ORCA-job run
  C   -0.38055758672532      0.17937446719934     -0.23482471165463
  C   0.67209491834146     -0.66580480044178      0.47142524677253
  Cl  -0.46779313184836     -0.51593337951886     -1.98835401036456
  H   0.67202426583123     -0.34885252379588      1.51878432753227
  H   0.36453224693046     -1.71771812535339      0.42613645681836
  N   0.01722919829662      1.52720731882856     -0.21665182271777
  H   0.98915271799949      1.60374205168077     -0.49310119036803
  H   -0.57412058156945      2.11694568208204     -0.78597446686454
  C   -1.76732265077279     -0.01249148785453      0.33937501048156
  H   -1.77018255719743      0.34085676657302      1.37335560390482
  H   -2.06210062694147     -1.06191369754493      0.30765479339248
  H   -2.49983205135181      0.56417590981947     -0.22894176244888
  N   1.99168191845998     -0.39792709937647     -0.08929798984270
  H   2.10512188858297     -0.91411155285447     -0.95258545492863
  H   2.71307203196442     -0.69654952944288      0.55299997028771
