15
Coordinates from ORCA-job run
  C   -0.28844651431315      0.31310678226386     -0.33224713306561
  C   1.07381198400835     -0.21292649589659      0.10388873902481
  Cl  -0.78546549877718     -0.72930663721250     -1.80516602299495
  H   1.37411019611799      0.40347489829381      0.95629047674690
  H   1.78571287918330     -0.02086733346012     -0.71434593524645
  N   -0.16742749792959      1.68065600759981     -0.68804775035856
  H   -1.05825223466521      2.06601806837411     -0.97576158936038
  H   0.49849276344916      1.81005584984471     -1.44009361146668
  C   -1.36339877365575      0.11601706080242      0.71289380100516
  H   -2.33200100063996      0.44939695609843      0.33372401951127
  H   -1.10327155027399      0.71028859800002      1.59251725518886
  H   -1.42625346217439     -0.93213234998744      0.99431073198459
  N   1.00999211483264     -1.60128898964634      0.53011490783673
  H   1.86403286955937     -1.85079403288693      1.01121960700337
  H   0.92036372527841     -2.20369838218724     -0.27829749580906
