15

C	0.0	0.0	0.0
C	-0.228402	-0.083889	-1.550635
Br	1.949518	0.0	0.0
H	0.508591	0.582056	-2.001865
H	-0.276256	-0.929555	0.487513
C	-0.837108	1.099006	0.520214
N	-0.899591	2.20505	0.970557
C	-1.559359	0.221646	-2.235547
H	-2.313014	-0.533365	-2.027405
H	-1.357506	0.274141	-3.31371
H	-1.931931	1.183002	-1.887795
N	0.182271	-1.441888	-2.050948
O	0.735036	-1.481904	-3.151238
O	-0.114999	-2.431456	-1.385488
H	-2.000432	0.0	0.0
