13

C	-0.265832	0.09074	-1.475437
C	0.0	0.0	0.0
Cl	-2.010385	0.429996	-1.950117
H	1.095197	0.0	0.0
H	0.301701	0.927442	-1.886136
H	-0.405328	-0.928861	0.411613
C	0.126043	-1.126556	-2.183774
N	0.411859	-2.108996	-2.7605
C	-0.456352	1.227014	0.769
H	-1.541899	1.373449	0.775552
H	-0.107127	1.149188	1.801864
H	0.012264	2.120985	0.345231
F	2.628114	0.0	0.0
