13

C	-0.534365	0.026197	-1.41797
C	0.0	0.0	0.0
Cl	-0.062991	-1.464001	-2.327211
H	1.093215	0.0	0.0
H	-1.629964	0.031609	-1.449955
H	-0.375543	-0.915442	0.471375
C	-0.076175	1.190588	-2.175845
N	0.247309	2.131849	-2.798306
C	-0.470002	1.233412	0.765207
H	-1.560865	1.371476	0.771305
H	-0.129702	1.155683	1.800367
H	-0.007546	2.132487	0.348869
F	2.660768	0.0	0.0
