13

C	-0.417218	-0.012174	-1.459644
C	0.0	0.0	0.0
Cl	0.122698	1.468752	-2.337323
H	1.093666	0.0	0.0
H	0.087948	-0.841321	-1.959428
H	-0.331279	-0.964773	0.41053
C	-1.862725	-0.139345	-1.665167
N	-3.020579	-0.280842	-1.81186
C	-0.579587	1.150851	0.803717
H	-1.676977	1.178345	0.808367
H	-0.235256	1.069871	1.837884
H	-0.210913	2.103728	0.418801
F	2.670215	0.0	0.0
