13

C	-0.536766	0.045539	-1.415805
C	0.0	0.0	0.0
Cl	-0.065226	-1.428121	-2.348099
H	1.09309	0.0	0.0
H	-1.63225	0.047422	-1.442927
H	-0.373816	-0.921732	0.459084
C	-0.086756	1.224151	-2.156601
N	0.238458	2.173592	-2.764946
C	-0.470325	1.221423	0.782922
H	-0.125003	1.130686	1.81616
H	-0.012575	2.128288	0.377655
H	-1.562021	1.356154	0.79554
F	2.661296	0.0	0.0
