13

C	-0.300967	0.017977	-1.474016
C	0.0	0.0	0.0
Cl	-2.049278	0.40928	-1.889407
H	1.095799	0.0	0.0
H	0.286046	0.806101	-1.948205
H	-0.336969	0.957054	0.414976
C	0.009107	-1.247172	-2.139536
N	0.233344	-2.262737	-2.684424
C	-0.587913	-1.178944	0.750902
H	-1.680262	-1.241252	0.676863
H	-0.161589	-2.11447	0.378416
H	-0.320434	-1.105807	1.808223
F	2.641829	0.0	0.0
