14

C	0.0	0.0	0.0
C	-0.49562	0.044895	-1.430586
Br	1.968149	0.0	0.0
H	-1.590108	-0.015466	-1.313482
H	-0.229816	0.952346	0.493408
H	-0.143459	-0.855532	-1.943117
N	-0.544344	-1.150304	0.655695
H	-1.571537	-1.008234	0.527427
H	-0.369571	-1.072399	1.653525
C	-0.133484	1.309924	-2.19368
H	-0.548047	2.185823	-1.686733
H	0.946032	1.445907	-2.290087
H	-0.56391	1.28252	-3.19891
H	-3.139901	0.0	0.0
