18

C	-0.440209	0.056848	-1.463183
C	0.0	0.0	0.0
Cl	0.125041	-1.514964	-2.289808
H	1.094981	0.0	0.0
N	-1.851572	0.213582	-1.606861
H	-2.049604	0.350675	-2.591456
H	-2.329066	-0.61983	-1.287816
N	0.21033	1.12344	-2.185707
H	1.211846	0.942826	-2.10325
H	0.037815	1.933802	-1.591615
C	-0.534033	-1.167419	0.814122
H	-1.625568	-1.11626	0.933782
H	-0.085518	-1.127673	1.810842
H	-0.271145	-2.127662	0.367778
N	-0.339978	1.309812	0.574213
H	-1.243187	1.285938	1.036129
H	0.380079	1.538895	1.253701
H	2.950468	0.0	0.0
