18

C	-0.26845	0.135692	-1.505858
C	0.0	0.0	0.0
Cl	-0.059955	-1.685401	-2.316424
H	1.102293	0.0	0.0
N	-1.594595	0.532699	-1.843322
H	-2.231618	-0.224596	-1.631864
H	-1.659202	0.728853	-2.835679
N	0.703563	0.972341	-2.055947
H	0.743955	0.915119	-3.064757
H	1.622149	0.753201	-1.643311
C	-0.616198	-1.188208	0.704103
H	-0.375334	-1.095237	1.764419
H	-1.710532	-1.191817	0.614443
H	-0.226232	-2.133205	0.32905
N	-0.395901	1.251044	0.667585
H	-1.148942	1.67828	0.138003
H	0.401509	1.87682	0.609422
H	2.934372	0.0	0.0
