18

C	-0.274952	-0.109303	-1.482209
C	0.0	0.0	0.0
Cl	-2.174121	-0.755491	-1.741526
H	1.099478	0.0	0.0
N	-0.202633	1.139948	-2.107374
H	-0.695378	1.816563	-1.534023
H	-0.552011	1.115797	-3.055564
N	0.527001	-1.143155	-2.026477
H	1.472359	-0.989496	-1.648798
H	0.554702	-1.077431	-3.036854
C	-0.436839	-1.211668	0.799389
H	-0.190494	-2.12808	0.262346
H	-1.516603	-1.201508	0.97992
H	0.095044	-1.212882	1.756119
N	-0.473194	1.273124	0.537542
H	-1.220482	1.113324	1.202687
H	0.30161	1.708512	1.026524
H	2.83946	0.0	0.0
