18

C	-0.409155	0.059565	-1.478742
C	0.0	0.0	0.0
Cl	-0.192033	-1.570798	-2.246689
H	1.095901	0.0	0.0
N	-1.799292	0.419447	-1.613565
H	-1.899385	1.266515	-1.059826
H	-1.946953	0.662868	-2.588317
N	0.458588	0.958813	-2.224962
H	0.363753	1.851908	-1.744935
H	1.420854	0.663171	-2.036322
C	-0.571196	-1.147235	0.807
H	-1.666788	-1.140845	0.778096
H	-0.221602	-2.108409	0.431317
H	-0.234864	-1.052449	1.844445
N	-0.36782	1.320526	0.567711
H	0.471339	1.693338	1.003413
H	-1.060327	1.199757	1.29851
H	2.951667	0.0	0.0
