13

C	0.0	0.0	0.0
C	-0.403266	-0.002219	-1.487792
Br	1.942883	0.0	0.0
H	0.448797	0.381341	-2.051705
H	-0.331367	0.897062	0.502204
C	-0.443552	-1.189528	0.717757
N	-0.628652	-2.174074	1.335346
C	-1.562244	0.833515	-1.861596
N	-2.448859	1.320308	-2.453948
N	-0.622159	-1.377964	-1.9254
H	-1.502085	-1.627929	-1.489071
H	-0.779697	-1.363519	-2.928549
F	-2.339262	0.0	0.0
