13

C	0.0	0.0	0.0
C	-0.287239	0.124979	-1.581321
Br	1.946595	0.0	0.0
H	0.547565	-0.403154	-2.051185
H	-0.414446	0.820927	0.574897
C	-0.459658	-1.288613	0.497647
N	-0.649567	-2.378591	0.894232
C	-0.097631	1.549151	-1.922831
N	0.065125	2.664121	-2.253432
N	-1.506011	-0.36571	-2.152167
H	-1.432746	-1.377236	-2.168305
H	-2.229052	-0.146994	-1.401452
F	-2.597976	0.0	0.0
