13

C	0.0	0.0	0.0
C	-0.535547	-0.207152	-1.408222
Br	1.949878	0.0	0.0
H	-1.656455	-0.156817	-1.107097
H	-0.348736	0.973799	0.333839
C	-0.425351	-1.037417	0.9366
N	-0.566638	-1.871827	1.750874
C	-0.171691	-1.512381	-1.959163
N	0.10487	-2.522323	-2.497635
N	-0.140728	0.9116	-2.255431
H	0.796886	0.769518	-2.619696
H	-0.775556	0.966183	-3.04028
F	-2.612687	0.0	0.0
