13

C	0.0	0.0	0.0
C	-0.336326	0.143764	-1.502003
Br	1.954046	0.0	0.0
H	0.386139	0.873048	-1.897713
H	-0.316547	0.871792	0.558643
C	-0.505268	-1.222536	0.619071
N	-0.602456	-2.232218	1.215588
C	-1.657361	0.720079	-1.811587
N	-2.393027	1.386315	-2.452818
N	-0.203835	-1.163824	-2.145065
H	0.766048	-1.454141	-2.084684
H	-0.44439	-1.070135	-3.124571
F	-2.323625	0.0	0.0
