13

C	0.0	0.0	0.0
C	-0.43426	-0.146497	-1.525737
Br	1.946181	0.0	0.0
H	0.485972	-0.266666	-2.107239
H	-0.353373	0.925358	0.441431
C	-0.437919	-1.141804	0.791434
N	-0.583514	-2.132467	1.40805
C	-1.017411	1.134215	-1.945134
N	-1.373445	2.167352	-2.375088
N	-1.327867	-1.226988	-1.870652
H	-2.10657	-1.056168	-1.204877
H	-0.876154	-2.106392	-1.636766
F	-2.443321	0.0	0.0
