13

C	0.0	0.0	0.0
C	-0.465852	-0.029063	-1.491542
Br	1.943257	0.0	0.0
H	0.427942	-0.020331	-2.122878
H	-0.333933	0.903016	0.499735
C	-0.42207	-1.160018	0.78065
N	-0.597836	-2.072744	1.499548
C	-1.186384	1.225494	-1.802701
N	-1.626421	2.22125	-2.247911
N	-1.205492	-1.242772	-1.781417
H	-2.046925	-1.096501	-1.194138
H	-1.462465	-1.231699	-2.762729
F	-2.464036	0.0	0.0
