13

C	0.0	0.0	0.0
C	-0.45297	0.141515	-1.440837
F	1.384733	0.0	0.0
H	0.28214	-0.414573	-2.030304
H	-0.298567	0.879086	0.584482
H	-1.433023	-0.323516	-1.561177
N	-0.434204	-1.262261	0.533317
H	-0.145889	-1.321101	1.503619
H	-1.453636	-1.255417	0.514893
N	-0.433512	1.555241	-1.842779
H	-1.341505	1.939688	-1.601051
H	-0.356606	1.606626	-2.851729
Br	-3.762063	0.0	0.0
