13

C	0.0	0.0	0.0
C	-0.496812	0.180099	-1.419931
F	1.380449	0.0	0.0
H	-1.563427	0.40582	-1.345594
H	-0.293433	0.877477	0.592394
H	0.020968	1.055358	-1.830314
N	-0.466424	-1.245987	0.546094
H	-1.486039	-1.226863	0.471633
H	-0.238292	-1.280086	1.533045
N	-0.229	-1.005014	-2.251305
H	-0.039256	-1.770865	-1.61393
H	-1.090457	-1.24896	-2.723158
Br	-3.862563	0.0	0.0
