13

C	0.0	0.0	0.0
C	-0.507567	0.330273	-1.38189
F	1.42737	0.0	0.0
H	-0.146188	1.328137	-1.666935
H	-0.280955	0.77463	0.716704
H	-1.598875	0.355669	-1.301253
N	-0.488465	-1.251547	0.412372
H	-0.345113	-1.932903	-0.319568
H	-0.09313	-1.548986	1.290999
N	-0.103683	-0.726285	-2.314665
H	0.834069	-0.546843	-2.648194
H	-0.729338	-0.737051	-3.108409
Br	-4.431971	0.0	0.0
