13

C	0.0	0.0	0.0
C	-0.576469	0.34057	-1.372111
F	1.418393	0.0	0.0
H	-1.34969	1.099228	-1.214689
H	-0.248798	0.788683	0.715693
H	0.229247	0.761348	-1.977026
N	-0.501133	-1.226611	0.463803
H	-0.103554	-1.491725	1.353149
H	-0.402252	-1.941188	-0.241622
N	-1.123659	-0.850253	-2.027189
H	-1.266597	-0.635126	-3.007601
H	-2.053176	-0.982422	-1.62057
Br	-4.093305	0.0	0.0
