13

C	0.0	0.0	0.0
C	-0.426758	0.248143	-1.439229
F	1.390949	0.0	0.0
H	-0.014516	1.216685	-1.741921
H	-0.294932	0.843403	0.639106
H	-1.514737	0.312162	-1.478014
N	-0.467886	-1.276842	0.458856
H	-1.487498	-1.239207	0.379778
H	-0.255738	-1.367702	1.446572
N	0.047551	-0.775369	-2.372311
H	-0.420918	-1.640081	-2.127299
H	1.028235	-0.934253	-2.165346
Br	-3.793079	0.0	0.0
