18

C	-0.341267	-0.063997	-1.500016
C	0.0	0.0	0.0
Cl	-1.925845	-0.804616	-1.820514
H	1.0994	0.0	0.0
N	-0.385249	1.388179	-2.015276
O	0.667829	1.988135	-1.827242
O	-1.37872	1.838056	-2.565687
N	0.656083	-0.710745	-2.30646
H	0.532859	-1.713226	-2.253387
H	1.576457	-0.480333	-1.922017
C	-0.414756	-1.264918	0.731873
H	-1.495188	-1.293366	0.892835
H	-0.116596	-2.158597	0.181058
H	0.099768	-1.288903	1.696251
N	-0.601683	1.175118	0.623039
H	-0.748103	0.984985	1.60677
H	0.066516	1.935948	0.566858
Br	3.580482	0.0	0.0
