18

C	-0.298269	-0.105038	-1.503213
C	0.0	0.0	0.0
Cl	-0.463766	-1.890272	-2.056732
H	1.094732	0.0	0.0
N	-1.696631	0.413811	-1.84554
O	-1.838609	0.974638	-2.926118
O	-2.590807	0.194752	-1.03652
N	0.642319	0.608108	-2.218566
H	0.552349	0.532944	-3.220049
H	1.589365	0.453527	-1.875305
C	-0.50594	-1.114272	0.898021
H	-0.059769	-2.074431	0.640625
H	-1.593676	-1.199448	0.849157
H	-0.208336	-0.87174	1.922241
N	-0.434868	1.337672	0.405079
H	0.334005	1.802749	0.86803
H	-1.218752	1.275134	1.04156
Br	3.542743	0.0	0.0
