18

C	-0.459755	-0.011097	-1.4499
C	0.0	0.0	0.0
Cl	-2.307956	0.281911	-1.49202
H	1.091376	0.0	0.0
N	0.092052	1.174517	-2.243592
O	-0.121268	1.141585	-3.454566
O	0.698441	2.047473	-1.645181
N	-0.082975	-1.144846	-2.170728
H	-0.42588	-1.995451	-1.753495
H	-0.357853	-1.068416	-3.140525
C	-0.413828	-1.28816	0.706768
H	-0.065914	-1.226567	1.740216
H	0.072124	-2.163578	0.271057
H	-1.500439	-1.424837	0.70461
N	-0.490182	1.19297	0.679451
H	-1.11749	0.939556	1.432485
H	0.303995	1.690293	1.061382
Br	3.550364	0.0	0.0
