18

C	-0.449432	0.018199	-1.456823
C	0.0	0.0	0.0
Cl	-2.312076	0.17205	-1.543772
H	1.09676	0.0	0.0
N	-0.00184	1.275418	-2.214093
O	0.424127	2.226313	-1.576794
O	-0.121008	1.232217	-3.43293
N	0.045226	-1.048009	-2.200903
H	-0.097996	-1.942787	-1.762883
H	-0.26414	-1.026094	-3.161216
C	-0.4311	-1.301379	0.66943
H	-1.51708	-1.420108	0.655823
H	0.054102	-2.172682	0.225929
H	-0.091496	-1.274369	1.708262
N	-0.566426	1.116852	0.758554
H	-0.410021	0.91188	1.738325
H	-0.016206	1.939284	0.547926
Br	3.587567	0.0	0.0
