18

C	-0.302361	-0.0146	-1.504358
C	0.0	0.0	0.0
Cl	-2.064246	-0.2569	-1.817292
H	1.094621	0.0	0.0
N	-0.000953	1.361068	-2.184133
O	-0.309962	1.454942	-3.368359
O	0.615768	2.208802	-1.549799
N	0.455901	-1.004256	-2.153332
H	1.422986	-0.951927	-1.824655
H	0.401473	-0.91125	-3.161795
C	-0.453519	-1.309385	0.634787
H	-1.536178	-1.312596	0.789522
H	-0.177849	-2.171356	0.02854
H	0.035743	-1.381223	1.606665
N	-0.517727	1.106145	0.77328
H	-1.494717	1.255972	0.552816
H	-0.003743	1.944258	0.542549
Br	3.532357	0.0	0.0
