18

C	-0.303239	-0.078315	-1.49278
C	0.0	0.0	0.0
Cl	-2.022568	-0.443718	-1.833037
H	1.099499	0.0	0.0
N	-0.050869	1.296631	-2.192024
O	0.566044	2.156502	-1.574085
O	-0.380554	1.375654	-3.371783
N	0.530272	-1.049123	-2.092308
H	1.493711	-0.915795	-1.776693
H	0.466213	-1.016979	-3.101725
C	-0.446603	-1.280379	0.69106
H	-1.532326	-1.28697	0.822325
H	-0.147418	-2.158814	0.120371
H	0.035245	-1.328062	1.672424
N	-0.63207	1.148234	0.635573
H	-0.754999	0.929673	1.615988
H	0.004092	1.932733	0.580857
Br	3.564377	0.0	0.0
