18

C	-0.371853	-0.004712	-1.487234
C	0.0	0.0	0.0
Cl	-2.241379	0.389164	-1.653227
H	1.094155	0.0	0.0
N	0.22643	1.161253	-2.281312
O	0.290292	1.009563	-3.497711
O	0.560313	2.166507	-1.671082
N	-0.018332	-1.156879	-2.157293
H	-0.374345	-1.997197	-1.734061
H	-0.175481	-1.105556	-3.153101
C	-0.457345	-1.301323	0.653266
H	0.098024	-2.163025	0.276838
H	-0.23755	-1.210385	1.716435
H	-1.533927	-1.465688	0.533166
N	-0.458314	1.125768	0.790174
H	0.084105	1.938916	0.535847
H	-1.432332	1.320904	0.593809
Br	3.565584	0.0	0.0
