18

C	-0.336678	-0.111578	-1.493261
C	0.0	0.0	0.0
Cl	-2.004827	-0.709166	-1.803931
H	1.0978	0.0	0.0
N	-0.311506	1.340596	-2.077838
O	0.814023	1.728981	-2.369783
O	-1.341884	1.98958	-2.16985
N	0.597499	-0.952405	-2.115228
H	0.535896	-0.93164	-3.123304
H	1.54012	-0.718619	-1.804429
C	-0.435451	-1.245882	0.760522
H	-0.165312	-2.150798	0.21514
H	0.077418	-1.257806	1.724307
H	-1.515137	-1.246708	0.931512
N	-0.459706	1.253667	0.563026
H	-1.352074	1.142247	1.028818
H	0.221869	1.57466	1.23277
Br	3.538672	0.0	0.0
