18

C	-0.412497	0.031783	-1.484373
C	0.0	0.0	0.0
Cl	0.354379	-1.292421	-2.36252
H	1.094705	0.0	0.0
N	-1.938692	-0.175907	-1.523805
O	-2.410383	-1.276753	-1.786897
O	-2.590886	0.807809	-1.179981
N	-0.141061	1.269647	-2.146917
H	0.851145	1.268383	-2.362472
H	-0.291087	1.982876	-1.436137
C	-0.51216	-1.219678	0.750905
H	-0.265509	-2.148675	0.235214
H	-1.599881	-1.175968	0.88406
H	-0.043242	-1.24469	1.73722
N	-0.373824	1.274846	0.613796
H	0.359849	1.540015	1.259675
H	-1.250152	1.204661	1.116127
Br	3.533387	0.0	0.0
