18

C	-0.452377	-0.036973	-1.458971
C	0.0	0.0	0.0
Cl	-0.489451	-1.69547	-2.166225
H	1.094858	0.0	0.0
N	-1.976878	0.373628	-1.532799
O	-2.326011	1.005631	-2.524598
O	-2.727376	0.023763	-0.628617
N	0.319719	0.804157	-2.254087
H	-0.158413	1.076049	-3.10131
H	0.607493	1.608509	-1.708331
C	-0.42429	-1.155648	0.895546
H	0.020236	-0.982327	1.879156
H	-1.507567	-1.231088	0.995218
H	-0.029005	-2.101837	0.525133
N	-0.387965	1.331094	0.489744
H	0.346727	1.66481	1.10135
H	-1.249309	1.273676	1.021267
Br	3.579365	0.0	0.0
