18

C	-0.564407	-0.000538	-1.419717
C	0.0	0.0	0.0
Cl	0.285502	1.316988	-2.376867
H	1.094247	0.0	0.0
N	-0.223569	-1.255817	-2.212779
O	-0.919988	-1.466046	-3.20359
O	0.714799	-1.942855	-1.834317
N	-1.961336	0.125776	-1.407665
H	-2.332176	0.278245	-2.334975
H	-2.179483	0.886634	-0.772089
C	-0.516084	-1.176783	0.815015
H	-1.602638	-1.135414	0.922492
H	-0.229196	-2.124821	0.363539
H	-0.050362	-1.138568	1.804054
N	-0.499355	1.256447	0.607415
H	0.167307	1.986026	0.373736
H	-0.443953	1.144739	1.613853
Br	3.627635	0.0	0.0
