15

C	0.0	0.0	0.0
C	-0.416485	0.240501	-1.474905
Cl	1.78908	0.0	0.0
H	0.351923	-0.230041	-2.098303
H	-0.311494	0.838652	0.623051
C	-0.529701	-1.302826	0.559615
H	-0.22933	-2.142854	-0.068133
H	-0.13889	-1.450537	1.569526
H	-1.620707	-1.264278	0.596879
C	-0.324112	1.695008	-1.765217
N	-0.261156	2.831404	-2.05902
N	-1.675679	-0.384792	-1.800091
H	-2.453407	-0.104185	-1.189603
H	-1.941503	-0.159854	-2.751331
Cl	-4.259334	0.0	0.0
