15

C	0.0	0.0	0.0
C	-0.375869	-0.29434	-1.487758
Cl	1.789948	0.0	0.0
H	0.221275	-1.171501	-1.766739
H	-0.291903	1.021084	0.255123
C	-0.622836	-0.980326	0.957663
H	-1.708511	-0.844748	0.916382
H	-0.281488	-0.791706	1.977459
H	-0.365708	-2.009542	0.6915
C	0.112566	0.819444	-2.326682
N	0.455041	1.709416	-3.010019
N	-1.747832	-0.565586	-1.83706
H	-2.403111	0.112547	-1.451302
H	-2.045877	-1.446504	-1.439538
Cl	-4.255804	0.0	0.0
