15

C	0.0	0.0	0.0
C	-0.556005	-0.252972	-1.392333
Cl	1.792865	0.0	0.0
H	-1.648419	-0.213778	-1.24504
H	-0.305115	1.013378	0.261799
C	-0.500103	-1.005048	1.016102
H	-0.150178	-2.010709	0.769798
H	-0.134987	-0.746801	2.012404
H	-1.592363	-0.974782	1.010017
C	-0.199892	-1.601968	-1.875059
N	0.078243	-2.651095	-2.326726
N	-0.168709	0.804182	-2.318901
H	-0.77961	0.775693	-3.126614
H	0.783454	0.654726	-2.634335
Cl	-3.733737	0.0	0.0
