15

C	0.0	0.0	0.0
C	-0.384327	-0.15939	-1.502919
Cl	1.789629	0.0	0.0
H	0.268384	-0.953346	-1.887484
H	-0.316769	0.977753	0.367475
C	-0.571158	-1.107073	0.85416
H	-0.277081	-2.086289	0.46494
H	-1.661689	-1.020006	0.848935
H	-0.214904	-1.020827	1.882594
C	0.004996	1.069335	-2.222714
N	0.316608	2.044487	-2.796977
N	-1.739817	-0.504685	-1.847487
H	-2.445723	0.05635	-1.366067
H	-1.933229	-1.456622	-1.562667
Cl	-4.263341	0.0	0.0
