13

C	-0.611902	0.045283	-1.392606
C	0.0	0.0	0.0
Cl	-0.034899	-1.373793	-2.342494
H	1.090212	0.0	0.0
H	-0.351018	0.870665	0.563637
H	-0.349955	-0.906511	0.501322
C	-2.13756	-0.016379	-1.351284
H	-2.444426	-0.932692	-0.842913
H	-2.556213	-0.010542	-2.358627
H	-2.522261	0.845205	-0.798849
C	-0.216517	1.255652	-2.120319
N	0.008582	2.249671	-2.705023
Br	3.687779	0.0	0.0
