13

C	-0.45365	-0.062467	-1.454115
C	0.0	0.0	0.0
Cl	-0.180182	1.549032	-2.228058
H	1.091399	0.0	0.0
H	-0.395594	0.881596	0.504402
H	-0.3468	-0.89944	0.517992
C	0.355455	-1.101399	-2.221367
H	1.415172	-0.862089	-2.10313
H	0.17311	-2.089241	-1.788561
H	0.081621	-1.114521	-3.277579
C	-1.891637	-0.331008	-1.562723
N	-3.037269	-0.583683	-1.627961
Br	3.676773	0.0	0.0
