13
Coordinates from ORCA-job run
  C   0.86332389357649     -0.42701323689178      0.69211789140143
  C   -0.56996953944854     -0.09590487873119      0.30718699143655
  Cl  1.25196491722518      0.39035340314322      2.22226043988782
  H   -1.26827984433256     -0.45029260176578      1.06464245920194
  H   0.89302707683031     -1.50092656499799      0.88719281477725
  C   1.83743368975499     -0.12185003251868     -0.34989060348715
  N   2.65575833922613      0.04537200928457     -1.17548963866007
  N   -0.91088024575748     -0.80963035339484     -0.98261254698595
  O   -1.29518757075866     -0.14255662510166     -1.93086258241067
  O   -0.76236798706153     -2.02433034809379     -0.92671308398762
  N   -0.82622956398348      1.36330350205269      0.11691383557361
  O   0.08255220204178      2.03563561338277     -0.35360774756625
  O   -1.95214536731262      1.73784011363246      0.42886177081909
