13
Coordinates from ORCA-job run
  C   0.84992127535484     -0.56158086288558      0.51947696527260
  C   -0.23521919878071     -0.08185804317139     -0.43948330012234
  Cl  0.34305328537499     -0.58716411193782      2.21857289856378
  H   0.08711538316539     -0.24499260054263     -1.46944157188718
  H   1.06693795774694     -1.59636500340114      0.24630278432717
  C   2.04552087723336      0.25439438900079      0.33610550028135
  N   3.00782580173059      0.90608806050485      0.16482372727204
  N   -0.53317060727647      1.37750830324552     -0.31434637413211
  O   -0.34458439754526      2.04093701607088     -1.33101688517022
  O   -0.91747509784176      1.77664699657037      0.77707305829398
  N   -1.49649709392442     -0.89059646381691     -0.25841155278892
  O   -2.56325049313973     -0.29654825590963     -0.25955547892016
  O   -1.30917769209776     -2.09846942372729     -0.19109977098999
