13
Coordinates from ORCA-job run
  C   0.86799827887196     -0.58119153708575      0.46861626545348
  C   -0.25115452258940     -0.06673096606598     -0.43119057501287
  Cl  0.42803245050385     -0.65862598872432      2.18450483930190
  H   0.03100893966769     -0.19468248912881     -1.47784445730994
  H   1.07007581978619     -1.60731110801195      0.15439897129229
  C   2.05859340270910      0.23728964117468      0.26370224461669
  N   3.01063112961051      0.89815948631244      0.07208094534071
  N   -0.53984792882227      1.38772950896712     -0.24409569547192
  O   -0.89627655084451      1.74635084554506      0.87089031445493
  O   -0.37518765794484      2.08848219090532     -1.23984683364935
  N   -1.50830234254349     -0.87826785038596     -0.23197737542341
  O   -2.57321136296800     -0.28240103027391     -0.19070104974434
  O   -1.32235965543679     -2.08780070322795     -0.19953759384818
