13
Coordinates from ORCA-job run
  C   1.08268170638647     -0.46557482731063      0.16306753462807
  C   -0.25540358974443     -0.27566405746908     -0.53385955511497
  Cl  1.25012185315140     -2.17168517841480      0.63439837192489
  H   -0.31223342395845     -0.88009805837509     -1.43848835215685
  H   1.85398801151545     -0.26408496768090     -0.58307469832090
  C   1.28751436027309      0.43613889314351      1.29101112729905
  N   1.50629723710628      1.20979266668788      2.14701294893633
  N   -0.38934772131027      1.17110557955902     -0.95548727571008
  O   -1.34995380073386      1.80724279534984     -0.55016820553979
  O   0.51476368245020      1.55547908820784     -1.68719904610411
  N   -1.43639532241115     -0.62950685247478      0.30949896345182
  O   -2.39480516633066     -1.08585942356316     -0.30572072728431
  O   -1.35522782639407     -0.40828565765964      1.51100891399085
