13
Coordinates from ORCA-job run
  C   0.91406406386132     -0.57335885768767      0.32902440519553
  C   -0.41986145683480      0.13944003416362      0.22305790783739
  Cl  0.78365665985920     -1.81253327017851      1.59959778983083
  H   -0.74241167591343      0.61078091920543      1.14890931044985
  H   1.12441933999022     -1.07583485948271     -0.61526802575965
  C   1.96444903694926      0.38540914711093      0.64820912475771
  N   2.79552300404396      1.17093519925557      0.91611060642963
  N   -1.49349396980760     -0.82788429389122     -0.19674283809000
  O   -1.20810091324950     -1.57494342298677     -1.12616322140050
  O   -2.55303287042854     -0.76057896202867      0.41452347972630
  N   -0.38509577577714      1.19229995061601     -0.85203855910991
  O   0.39403168462541      1.00671925079227     -1.78160531444850
  O   -1.17414712731838      2.11954916511172     -0.70961466541866
