13
Coordinates from ORCA-job run
  C   0.80279730924247     -0.37149060686967      0.69893284156986
  C   -0.19512893000168     -0.12337717929074     -0.42855709239384
  Cl  0.28225669537907      0.36033240476302      2.23009960582905
  H   0.25148806922228     -0.31665698443390     -1.40482194790370
  H   0.84707711715344     -1.45047103226298      0.86437609601400
  C   2.12535047209281      0.11530068294434      0.31976982665248
  N   3.20237686877126      0.46772266803238      0.01126848092645
  N   -0.64968197461083      1.31291386099686     -0.44015803415161
  O   0.18776363269933      2.09276269143575     -0.87635072087438
  O   -1.75563853293910      1.56791597350090      0.01106162343750
  N   -1.40704729305375     -1.00585148528923     -0.33590447038157
  O   -1.52605793233238     -1.73094146093898      0.64472439632150
  O   -2.16555550162290     -0.91815953258776     -1.29344060504575
