13
Coordinates from ORCA-job run
  C   0.93203964871364     -0.51872658902266      0.36642691045680
  C   -0.41189898673262      0.16729031021326      0.21904570250835
  Cl  0.86517415347189     -1.57268212169933      1.79885477956941
  H   -0.70143464782507      0.76064534708446      1.08363874324213
  H   1.10899501569225     -1.14509775527890     -0.50808300125096
  C   1.98505078617135      0.47901026300959      0.50790534511062
  N   2.81877132157606      1.29713316853903      0.63073893509141
  N   -1.49218491408222     -0.85318332217951     -0.01896165236139
  O   -1.23761455010463     -1.71918057453036     -0.84882084480516
  O   -2.52607985750664     -0.70755700841406      0.62184223588804
  N   -0.43102006414279      1.06232337550992     -0.99112485405371
  O   -1.22380976302936      1.99620537793169     -0.94527426771347
  O   0.31301185779815      0.75481952883686     -1.91718803168206
