13
Coordinates from ORCA-job run
  C   1.08999659114873     -0.45094412589272     -0.13666124787662
  C   -0.33265396205145     -0.11122595860381     -0.55269226363229
  Cl  1.31161804076367     -2.21258811659070     -0.22684538261103
  H   -0.52208415175435     -0.41858911363433     -1.58058073595392
  H   1.74845646231347     -0.00772374437655     -0.88642194326828
  C   1.46029686447675      0.07925628685273      1.17082242315280
  N   1.82129069236946      0.55456123559004      2.18222477261970
  N   -0.51674528046473      1.38932902480293     -0.49479972200357
  O   0.28234864831399      2.00983110215359     -1.18558481610965
  O   -1.41237832593562      1.83797362662231      0.20404751992058
  N   -1.38185130011440     -0.74561591293512      0.30022662578077
  O   -2.41656824652859     -1.04662708811608     -0.28628149092738
  O   -1.13172603253692     -0.87763721587229      1.49154626090888
