13
Coordinates from ORCA-job run
  C   0.91054742551226     -0.57282171833984      0.38098202831984
  C   -0.28334941083272     -0.06245175404357     -0.41481490143932
  Cl  0.60907660765322     -0.61092212204515      2.12844135405334
  H   -0.14092445462741     -0.24689802644142     -1.48064877035131
  H   1.05710858465086     -1.61070888691859      0.07024740040836
  C   2.10320182997581      0.19650162873717      0.04554985865397
  N   3.06559190547863      0.78942435634746     -0.27305546729188
  N   -0.57141516570356      1.39852345440541     -0.26896614411872
  O   -1.32600171624436      1.84768349356728     -1.12479188355456
  O   -0.05626154085733      2.00090379062804      0.66501904836567
  N   -1.51010773693075     -0.84335645937627     -0.00772612158768
  O   -1.43671159252621     -2.03720936792990     -0.26932410070284
  O   -2.41975473554844     -0.24866838859060      0.54808769924514
