13
Coordinates from ORCA-job run
  C   0.87255604364218     -0.56945830433945      0.47134437240190
  C   -0.24476102908133     -0.05694848120508     -0.43124670681299
  Cl  0.41895764222998     -0.67420871482406      2.18220300646495
  H   0.05904814658216     -0.14554695309132     -1.47596525444430
  H   1.08800556616919     -1.58931748029454      0.14513414349239
  C   2.05701506604712      0.26298787511922      0.28586872272178
  N   3.00842571592018      0.92802294030776      0.10688398075264
  N   -0.57462921008775      1.38310907685039     -0.20659407665016
  O   -0.99037026758136      1.69398848710392      0.90187323472327
  O   -0.37854822967845      2.12276618873081     -1.16798773641802
  N   -1.48358110921966     -0.90614674358678     -0.28129520791164
  O   -1.26748672987265     -2.11096160118022     -0.25594946463922
  O   -2.56563160506962     -0.34028628959065     -0.27426901368060
