13
Coordinates from ORCA-job run
  C   0.91274535913081     -0.57353991644935      0.33169086156098
  C   -0.41651004746238      0.14768177868142      0.22439385250613
  Cl  0.78582200756743     -1.78495125896166      1.62920856975385
  H   -0.72586685320270      0.64133074612832      1.14309982783514
  H   1.10922213595277     -1.09728828243049     -0.60397902777939
  C   1.97395502260285      0.38295618768415      0.62016022977989
  N   2.81408258762893      1.16703710100209      0.86272688361577
  N   -1.50202303908607     -0.81999183112937     -0.16353047427884
  O   -2.55397898660754     -0.73218738692373      0.45812030147430
  O   -1.23233794937362     -1.58811192098630     -1.08039108317779
  N   -0.38471177924651      1.17731638449109     -0.87308802981902
  O   -1.16608170512694      2.11286960945984     -0.74287040592552
  O   0.38468324722298      0.96687878943398     -1.80554150554552
