13
Coordinates from ORCA-job run
  C   0.92881939097281     -0.56718455142444      0.29518854716534
  C   -0.39895850945244      0.16335883132760      0.23982898866289
  Cl  0.86752197462527     -1.73315942423070      1.63866335742146
  H   -0.64315059104380      0.70185223450989      1.15320862283251
  H   1.06797036951900     -1.12398037016930     -0.63160435487328
  C   2.01176606875210      0.38811196249608      0.49164255853727
  N   2.86953930946849      1.17137965277017      0.66528979922359
  N   -1.51369448759064     -0.80938720521151     -0.03232525946964
  O   -2.50774931734968     -0.71104424468542      0.67648062500699
  O   -1.32142251011946     -1.59575762875052     -0.95339990885414
  N   -0.43256503483508      1.14182101110642     -0.90390371677031
  O   -1.24633755555793      2.05172519453628     -0.79234905682468
  O   0.31926089261135      0.92026453772545     -1.84772020205801
