13
Coordinates from ORCA-job run
  C   0.85788700631399     -0.52528096144439      0.63135880051448
  C   -0.57096040559481     -0.13920520022728      0.28087764893550
  Cl  1.22681373092102      0.12667553447328      2.24740178329432
  H   -1.27340269387929     -0.55290032686159      1.00518327186260
  H   0.89196979842509     -1.61293028715182      0.70691027576122
  C   1.84944391427939     -0.09869527855074     -0.34909627780574
  N   2.68839959294365      0.18184471434970     -1.12155571734550
  N   -0.95797673341620     -0.67848662613035     -1.07699346890303
  O   -1.80526553391132     -0.05346991171700     -1.69676715342306
  O   -0.42705713387040     -1.73679324178025     -1.39327488093948
  N   -0.77712878819242      1.34105692695959      0.26096718074194
  O   -1.65947848925651      1.77477242064420      0.99332892670857
  O   -0.04424426476218      1.97441223743665     -0.48934038940182
