13
Coordinates from ORCA-job run
  C   0.92890139033134     -0.57087861487074      0.28681349024593
  C   -0.40409428160541      0.15049932451163      0.24234169234769
  Cl  0.86151358568758     -1.78605119174905      1.58536519922292
  H   -0.66578757842397      0.65046643430047      1.17250860956657
  H   1.08329118541764     -1.09168493312631     -0.65842901719074
  C   2.00245296895430      0.38457634534408      0.52971266690824
  N   2.85349766972588      1.16726091545016      0.73605523968433
  N   -1.50659808734377     -0.81968408252023     -0.08348504398751
  O   -2.51162012261804     -0.75583702547378      0.61375357704140
  O   -1.29462789260323     -1.56816782865577     -1.03143360346822
  N   -0.43062279292895      1.17343247670993     -0.86254354544371
  O   -1.25092882570155      2.07365458580829     -0.72468501915427
  O   0.33362278110818      0.99341359427131     -1.80497424577261
