13
Coordinates from ORCA-job run
  C   0.93395984683111     -0.56366836089994      0.28977295092607
  C   -0.40385622020567      0.14826791660451      0.24475314669364
  Cl  0.88813785349493     -1.75331145431062      1.61233211048224
  H   -0.66437491277054      0.65555883094608      1.17113999293947
  H   1.08196127090728     -1.10178938773682     -0.64659655498226
  C   2.00220620932076      0.40483023821140      0.50293845122197
  N   2.84667145494619      1.20069438093880      0.68469557337763
  N   -1.50360054087607     -0.83112211347074     -0.06607690118910
  O   -2.52310401283255     -0.73154833625428      0.60610478094780
  O   -1.27819044498666     -1.61906974849570     -0.97779871682059
  N   -0.43914202912536      1.15977892078791     -0.86918094488549
  O   -1.21065406920430      2.09846576916561     -0.70721179413762
  O   0.27098559450088      0.93191334451378     -1.84387209457374
