13
Coordinates from ORCA-job run
  C   0.92292918243053     -0.57214396523307      0.34912049300908
  C   -0.29161043378446     -0.05509106714736     -0.41064652480358
  Cl  0.65578455246276     -0.65657117687312      2.10029847812465
  H   -0.16814585487349     -0.21245383531933     -1.48318055727340
  H   1.07366931116981     -1.60028276653598      0.00922956192487
  C   2.10133508408196      0.21714394846827      0.00990612867873
  N   3.05599804430859      0.82176862673463     -0.31004795338198
  N   -0.59058196092130      1.39916485027564     -0.22424188597399
  O   -0.06149214193723      1.98465415622503      0.71256886632220
  O   -1.36724028933086      1.86075176069538     -1.05317924655883
  N   -1.50204636461235     -0.85769825365797      0.00137622431182
  O   -1.42231382605159     -2.04409529105721     -0.29051819915003
  O   -2.40628530294237     -0.28614698657492      0.58931461477046
