13
Coordinates from ORCA-job run
  C   1.06519544203603     -0.51843203212595     -0.07782904998382
  C   -0.32389183486507     -0.12458417780666     -0.55438671573456
  Cl  1.18604288349289     -2.29211366640474     -0.05990541687439
  H   -0.50407154051956     -0.48178142192090     -1.56779432379505
  H   1.76767688594054     -0.15809797265857     -0.83202337983883
  C   1.43252464942148      0.06627659168839      1.20700049966078
  N   1.79813905105076      0.57945114451558      2.19809169751487
  N   -0.42399878809511      1.38490698977937     -0.58918966106427
  O   -1.31946875475387      1.92194230412690      0.04429369581429
  O   0.43327096274858      1.91886627466905     -1.28244936342412
  N   -1.42973128994976     -0.64776688298717      0.30247499735676
  O   -2.46289226485663     -0.92975833890097     -0.29609036186702
  O   -1.21979540165027     -0.71790881197432      1.50680738223537
