13
Coordinates from ORCA-job run
  C   0.93763240920272     -0.56451785313875      0.27531450017576
  C   -0.39846886389265      0.15145857715983      0.25337256307023
  Cl  0.91580451052977     -1.74315470979144      1.60841598296750
  H   -0.63861300648085      0.66573116630431      1.18140392263015
  H   1.06309934996562     -1.11125539444005     -0.65941989685880
  C   2.01483599919681      0.40057787587973      0.45602460620737
  N   2.86990576231276      1.19097129018833      0.60949017033379
  N   -1.50761427470544     -0.82588485445277     -0.02893936690707
  O   -1.30294155745442     -1.62125821134787     -0.93937257880145
  O   -2.51444325678534     -0.71637639799853      0.66056777396781
  N   -0.45433204725776      1.15560129848280     -0.86671421210431
  O   0.23917246046134      0.92254082075345     -1.85185771052516
  O   -1.22403748509255      2.09456639240097     -0.69728575415581
