13
Coordinates from ORCA-job run
  C   0.86403283624054     -0.49446394144903      0.64695375232700
  C   -0.56422862752748     -0.08950375366026      0.31847045052940
  Cl  1.32376885523753      0.23117356922409      2.20368718436234
  H   -1.25697000215887     -0.45633743338757      1.07520976785184
  H   0.85688988593367     -1.57697655089364      0.78903669485471
  C   1.82160774130913     -0.17633310869625     -0.40635701659198
  N   2.61032024158185     -0.00859073752691     -1.26017839776411
  N   -0.96623519218497     -0.72025918872156     -0.99702213598637
  O   -1.36511671189576      0.00858447407416     -1.89214733716709
  O   -0.84909497343508     -1.93953005905991     -1.01421458101805
  N   -0.76615036986580      1.38640418065342      0.21146997599807
  O   -1.86147383418748      1.79074180137174      0.58840189784761
  O   0.15165015095272      2.04409074807170     -0.26231025524336
