13
Coordinates from ORCA-job run
  C   0.93351924880999     -0.51551548127294      0.36717874032324
  C   -0.41355097951348      0.16411220007120      0.21859418952682
  Cl  0.86675533487648     -1.57849764487421      1.79275267960406
  H   -0.70858408070691      0.75224030884638      1.08494807849493
  H   1.11761112777053     -1.13534714613838     -0.51049585725582
  C   1.98072406897366      0.48693804903647      0.51827813853688
  N   2.81040118767384      1.30799362501627      0.64828830996432
  N   -1.48747914720703     -0.86074058284373     -0.02788473059351
  O   -2.52076676188307     -0.72955078114613      0.61684508529500
  O   -1.22870366930919     -1.71594515522573     -0.86753523970035
  N   -0.43349915568447      1.06491475504488     -0.98756073423674
  O   0.31962336315182      0.76993818346582     -1.91024887873139
  O   -1.23605053695216      1.99045967002008     -0.94215978122745
