13
Coordinates from ORCA-job run
  C   0.90066269465175     -0.55763449725379      0.38724083420013
  C   -0.42840594329462      0.14774455916812      0.20087958116004
  Cl  0.72139510873530     -1.74577783228360      1.69975211434477
  H   -0.78651106061134      0.65643692168540      1.09328762695406
  H   1.14797862379234     -1.09637806763103     -0.52762221006923
  C   1.93739130459469      0.41508614148860      0.70880423857602
  N   2.75764965356943      1.21206360563395      0.97623906590886
  N   -1.48454390113557     -0.83803202753144     -0.22006944453832
  O   -2.56623289613301     -0.74942641185156      0.34817103816959
  O   -1.16371106744481     -1.62004340885581     -1.10828491190215
  N   -0.35244374423751      1.15594669005539     -0.91438716814494
  O   -1.14811675692566      2.08565043152911     -0.84139546068776
  O   0.46388798443898      0.93536389584664     -1.80361530397105
