13
Coordinates from ORCA-job run
  C   0.84907594020271     -0.57022389005131      0.50495854801338
  C   -0.20283527561152     -0.04351242345282     -0.46208763518341
  Cl  0.24249329229644     -0.72858183728493      2.16408439801310
  H   0.13440014092875     -0.15408594525471     -1.49374064646567
  H   1.08972360482336     -1.58133848025110      0.16590467588444
  C   2.05185447975613      0.25158139079879      0.43478846479518
  N   3.03621339447174      0.88384668769293      0.33208328529207
  N   -0.56838818130602      1.39715547195448     -0.28565335215088
  O   -0.24840080986029      1.95328101595834      0.75773371483762
  O   -1.17758266243100      1.87857303378999     -1.23458120000376
  N   -1.45131237277872     -0.88229014788783     -0.32884301146917
  O   -1.28640581967323     -2.05439054798116     -0.64209218587718
  O   -2.46783573081838     -0.35001432803066      0.08744494431429
