13
Coordinates from ORCA-job run
  C   1.09657525403255     -0.37355385115433      0.25972263699829
  C   -0.16437247704829     -0.25098653128967     -0.58105991322100
  Cl  1.37790604275380     -2.09022365647415      0.62693674215136
  H   -0.05543871247227     -0.78118442214307     -1.52664128140202
  H   1.92487046580940     -0.04151669539896     -0.36934615836984
  C   1.07982064143107      0.44614007120348      1.46615022998894
  N   1.13971128011050      1.14889596818436      2.40515115829223
  N   -0.39780415563920      1.20701970073597     -0.91166419254224
  O   -1.47080107428857      1.70600922462536     -0.60945956487672
  O   0.54988031772687      1.74179775069668     -1.47432471930670
  N   -1.39063160601063     -0.78284069832507      0.08518722694870
  O   -2.21023889284412     -1.29922905989647     -0.66770979360911
  O   -1.47947708356112     -0.63132780076413      1.29705762894810
