13
Coordinates from ORCA-job run
  C   1.08771649457943     -0.41314584169154      0.23609027130179
  C   -0.18115459816512     -0.23506806937386     -0.58262533428223
  Cl  1.31934671727699     -2.14432772855151      0.56810819894478
  H   -0.10290048189474     -0.75132244788892     -1.53889492027518
  H   1.91655532113121     -0.09618388400337     -0.40002113747185
  C   1.11553152065427      0.38427957091492      1.45714099424688
  N   1.21188236693269      1.06754051531635      2.40745986597101
  N   -0.37229113437768      1.23547304898586     -0.88411897354181
  O   -1.42443907870637      1.76274617314982     -0.55760873817029
  O   0.58385146231126      1.74990834424428     -1.45145173709247
  N   -1.41405319371052     -0.73882064688586      0.09318347253074
  O   -1.47945213000739     -0.60738504654350      1.30886406719957
  O   -2.26159326602403     -1.21369398767267     -0.65612602936095
