13
Coordinates from ORCA-job run
  C   0.88107743177446     -0.50845691082787      0.48713725028776
  C   -0.45335070420802      0.12901992434898      0.15310428721456
  Cl  0.62323340040097     -1.69010907605608      1.79236304763711
  H   -0.92642183221729      0.62887399125360      0.99558552934666
  H   1.24790267473491     -1.04404909281757     -0.38858610777702
  C   1.83094572702757      0.51730465043637      0.89945350596765
  N   2.57920246767975      1.35644513075407      1.23932388541599
  N   -1.41189179367792     -0.91209520949293     -0.35912125840741
  O   -0.96310467264140     -1.68835426162354     -1.19541799572280
  O   -2.55015944404279     -0.86965891109446      0.09190351801403
  N   -0.30944379722092      1.12739675346803     -0.96419036572986
  O   0.60328550803656      0.93556809089872     -1.76159509316735
  O   -1.15027496564589      2.01911492075270     -0.98796020307932
