13
Coordinates from ORCA-job run
  C   0.90018766943762     -0.55493383708506      0.39240016875053
  C   -0.42539334136459      0.15564698103008      0.20150445576250
  Cl  0.72476487084964     -1.70967335681263      1.73520525454946
  H   -0.77242332811571      0.68734884893570      1.08481045329635
  H   1.13452802453188     -1.11790013534485     -0.51121460370761
  C   1.94693609133333      0.41734234945431      0.68082028069583
  N   2.77511102028053      1.21452146477749      0.92189397653461
  N   -1.49234161857943     -0.83213641731941     -0.18708639513306
  O   -2.56848920203690     -0.72173969072516      0.38782161394286
  O   -1.18465134462322     -1.63808830222539     -1.05839995843436
  N   -0.35224407103210      1.13700495038066     -0.93763871660595
  O   -1.13860557008483      2.07552821558228     -0.87828229206132
  O   0.45262079940377      0.88807892935199     -1.82983423758983
