13
Coordinates from ORCA-job run
  C   0.84990328456645     -0.41423907463476      0.61365569757854
  C   -0.22754354143437     -0.09695110861610     -0.41944077690956
  Cl  0.44988784412403      0.22776753129505      2.21946452053384
  H   0.14413056716812     -0.23237216715490     -1.43601013348272
  H   0.89837038814265     -1.50125695696212      0.71148861746041
  C   2.14421649598873      0.08987563689706      0.16586119281972
  N   3.19769143038417      0.45644227997766     -0.20181791428081
  N   -0.67219386449476      1.33853956731756     -0.31109255068348
  O   -1.74203258200914      1.56829780967631      0.23155356301495
  O   0.13794678348841      2.14153630870902     -0.75674300188895
  N   -1.43488151107795     -0.98071755654550     -0.28951718849960
  O   -2.26031961232506     -0.83632607283442     -1.18266838608968
  O   -1.48717568252130     -1.76059619712487      0.65426636042734
