13
Coordinates from ORCA-job run
  C   0.80836291436675     -0.30757850779698      0.81380974148555
  C   -0.58871853079796     -0.02903199526434      0.28239615123157
  Cl  1.12615400102322      0.77294337443442      2.18932631756268
  H   -1.34213607070971     -0.23109658719148      1.04312280817260
  H   0.79698394759909     -1.32713768559968      1.20402368750457
  C   1.85133544310239     -0.21734518666122     -0.20194517647684
  N   2.70883884913780     -0.23055075935320     -1.00427361967410
  N   -0.86977499136663     -0.95645421729533     -0.88017715069199
  O   -0.73286607944124     -2.14290347363626     -0.60761800453985
  O   -1.20756149322740     -0.46502083042379     -1.94597707807222
  N   -0.79184918252052      1.37639247747589     -0.18009858537119
  O   -1.91740665601758      1.82826407585505      0.00469002909088
  O   0.15763784885178      1.93051931545693     -0.71927912022162
