13
Coordinates from ORCA-job run
  C   0.85359057813285     -0.42556291328378      0.60499635654242
  C   -0.22257011915484     -0.09283412866638     -0.42399357142880
  Cl  0.41262923282008      0.11118308039482      2.23821714234909
  H   0.15804668588393     -0.19951005310017     -1.44092090876998
  H   0.94219225673607     -1.51366117693079      0.64261433081266
  C   2.13061402083727      0.15398742418912      0.20140937518616
  N   3.17122126435703      0.58653018940839     -0.12956941081611
  N   -0.68384185942423      1.33307560365520     -0.28480022179808
  O   -1.72121556060099      1.54144178524680      0.32568047953239
  O   0.08207385349110      2.15347594104158     -0.77685205235414
  N   -1.41984582610631     -0.99705317478348     -0.32541361596822
  O   -2.28323024851543     -0.78056324791155     -1.16609653205085
  O   -1.41966427845654     -1.86950932925976      0.53472862876344
