13
Coordinates from ORCA-job run
  C   0.95066755060991     -0.50198151380103      0.34159597541247
  C   -0.41806414701519      0.13936573068383      0.22339767378475
  Cl  0.91061606005459     -1.64920753382717      1.70197971476430
  H   -0.73594009767091      0.66942494572162      1.11877839548727
  H   1.16041071017137     -1.06266985692191     -0.56940375445551
  C   1.96316890533034      0.52291703702785      0.56132882851150
  N   2.76300708698967      1.36189477513924      0.75062230468840
  N   -1.45531468158916     -0.90713116901989     -0.08328824922762
  O   -1.16507170417989     -1.70117757403279     -0.97130657801519
  O   -2.49182723771650     -0.85267467976891      0.56695406416801
  N   -0.46953687122475      1.10241131140620     -0.93300460232652
  O   -1.34511180178519      1.95737732857555     -0.86602047184715
  O   0.33399622802572      0.92145119881740     -1.84263330094472
