13
Coordinates from ORCA-job run
  C   0.84286382282434     -0.39994152426414      0.63282742609112
  C   -0.22779277962845     -0.11114416160102     -0.41585701593768
  Cl  0.45077135220110      0.31741518404291      2.20830845047260
  H   0.14457670016307     -0.29279891311514     -1.42495344597791
  H   0.87444335712019     -1.48223261507141      0.77812950261413
  C   2.14542828098330      0.06432430532562      0.16625350179295
  N   3.20496826038802      0.39797343480914     -0.21507241251667
  N   -0.65296259147475      1.33359872238086     -0.36766340803399
  O   -1.72157392621445      1.59955703947882      0.16060198712217
  O   0.17005102048144      2.10681859763774     -0.84135260817461
  N   -1.44768572927268     -0.97131496973173     -0.25288533664776
  O   -1.51584825438176     -1.70634937263441      0.72526826128897
  O   -2.26723951318938     -0.85490572725723     -1.15560490209332
