13
Coordinates from ORCA-job run
  C   0.85211002313757     -0.57685355307209      0.49175747816218
  C   -0.21295512473213     -0.04461648882544     -0.45779214328868
  Cl  0.27765225289446     -0.71401647930809      2.16435981854596
  H   0.10091057608171     -0.16962737066289     -1.49514547889448
  H   1.07214100084634     -1.59395483699111      0.15652610311365
  C   2.06363139164044      0.22853453985905      0.39115943916059
  N   3.05350106376214      0.84760473311710      0.26389727444288
  N   -0.55604662969217      1.40185434228080     -0.28682788393266
  O   -0.20942195837018      1.96194552210644      0.74588261091395
  O   -1.17708336711471      1.88363748720246     -1.22791894206363
  N   -1.46890505739975     -0.86563823683841     -0.29080879527164
  O   -2.46962616758013     -0.31626458846535      0.14134501635670
  O   -1.32590800347358     -2.04260507040247     -0.59643449724481
