13
Coordinates from ORCA-job run
  C   0.82601901593700     -0.55852079286647      0.55418573834996
  C   -0.19102357686357     -0.06178137234570     -0.46486268019479
  Cl  0.17326452486516     -0.63063684474564      2.20138638369836
  H   0.17219885714374     -0.22715400439498     -1.48025898808787
  H   1.05864972253655     -1.58786696715525      0.26833329853336
  C   2.04345416829832      0.24084298741510      0.47874605366767
  N   3.03982237620364      0.85352178946545      0.37323569981207
  N   -0.53799847495771      1.39046147677515     -0.36579086150547
  O   -0.23920134725896      1.98933822983225      0.66005746883572
  O   -1.11253407410780      1.83622809987603     -1.35299319254468
  N   -1.45605483585768     -0.87440116626314     -0.32692955972703
  O   -1.30269714919466     -2.06203052220962     -0.58195016763785
  O   -2.47389920674403     -0.30800091338319      0.03784080680054
