13
Coordinates from ORCA-job run
  C   0.95316943910927     -0.50023474663862      0.33724592936596
  C   -0.41713183876662      0.13915356263860      0.22862040406235
  Cl  0.93196369655054     -1.63262304817130      1.71020259088788
  H   -0.72723535080338      0.67307394750720      1.12425207560678
  H   1.15160385724148     -1.07099354068266     -0.57011466582622
  C   1.96710564183759      0.52845208218228      0.53198520299208
  N   2.76872431759057      1.37056845224823      0.69873621192079
  N   -1.45709059471496     -0.90887232447898     -0.06369528301410
  O   -1.17130468748509     -1.71729271560108     -0.94019015945837
  O   -2.49389710584885     -0.83944997743259      0.58505573497296
  N   -0.47566298334062      1.09627837071354     -0.93213048106730
  O   -1.30810407020145      1.99115887853105     -0.83764597036387
  O   0.27985967883154      0.87078105918433     -1.87232159007893
