13
Coordinates from ORCA-job run
  C   0.87811686708847     -0.62676706799522      0.33009119477256
  C   -0.40884458995276      0.16753431795433      0.22392520832365
  Cl  0.67738542903062     -1.84129139602683      1.61596923064198
  H   -0.69504101603786      0.66798327625722      1.14648631809671
  H   1.05043631786678     -1.15249435616259     -0.60928350339173
  C   1.98836554748896      0.26726507857429      0.63369157459460
  N   2.86840990647214      1.00190961377152      0.88958333914141
  N   -1.54417869205979     -0.73379972103410     -0.18052617622998
  O   -2.59430764328861     -0.59175443281126      0.43407600558138
  O   -1.31160434802676     -1.50701334594487     -1.10325537203916
  N   -0.31383685514969      1.20528593275293     -0.86239194960442
  O   -1.04090157074513      2.18254143481483     -0.72495501705101
  O   0.44600064731362      0.96060066584975     -1.79441085283601
