13
Coordinates from ORCA-job run
  C   0.91447661594949     -0.46041795643822      0.60065840176675
  C   -0.54479052494019     -0.12031364643915      0.34139719256582
  Cl  1.40819243711010      0.26732665457548      2.14620796968807
  H   -1.18425145369752     -0.52906335596643      1.12312144011457
  H   0.96456843571645     -1.54365913507118      0.72786646334476
  C   1.80808599215031     -0.08323635572255     -0.48853865431772
  N   2.54994136328409      0.13314254588079     -1.37293989002443
  N   -0.97484119576232     -0.75369345224747     -0.96366308844853
  O   -1.44614547900334     -0.03391921710812     -1.83053047389899
  O   -0.80171219586822     -1.96576581760070     -1.00311106288003
  N   -0.82087806056834      1.34541838767415      0.26441168107516
  O   -1.91596774781057      1.69217974238056      0.69550986933522
  O   0.04232181344007      2.05200160608286     -0.24038984832067
