13
Coordinates from ORCA-job run
  C   0.84619852141686     -0.36731466803245      0.74717696975325
  C   -0.57548364720955     -0.05895375907887      0.30514797508740
  Cl  1.21910948755112      0.59276150274882      2.19643371725070
  H   -1.29190034319126     -0.33072625794557      1.07971434176158
  H   0.85913319110440     -1.41693294289534      1.04754480375386
  C   1.84145835239155     -0.17831503637450     -0.30232071886454
  N   2.66316550009198     -0.11396882253079     -1.13889669468564
  N   -0.90329899940340     -0.88848446947017     -0.91706802031250
  O   -0.75901394213884     -2.09306212225019     -0.74726264717257
  O   -1.27610428651707     -0.31174508330798     -1.92702148679757
  N   -0.80819085791971      1.37846947962740     -0.02779493255358
  O   0.11405270003705      1.98754721011666     -0.55490196738870
  O   -1.92912567621313      1.79972496939300      0.23924866016828
