14

C	-0.548777	-0.009229	-1.42076
C	0.0	0.0	0.0
F	-0.171344	1.107328	-2.134456
H	1.09389	0.0	0.0
H	-1.647608	-0.008282	-1.377448
C	-0.140432	-1.208049	-2.1731
N	0.131653	-2.123101	-2.853233
N	-0.42964	-1.264676	0.597213
H	-1.324439	-1.153851	1.064968
H	0.259026	-1.562908	1.279312
N	-0.4344	1.228606	0.644466
H	-1.37887	1.130289	1.005688
H	0.189713	1.433065	1.415906
Cl	3.433734	0.0	0.0
