14

C	-0.491194	0.004264	-1.44138
C	0.0	0.0	0.0
F	0.038864	-1.051041	-2.151559
H	1.099528	0.0	0.0
H	-0.182004	0.92853	-1.941535
C	-1.963737	-0.10013	-1.490871
N	-3.130852	-0.213896	-1.542023
N	-0.476895	-1.183724	0.668697
H	0.184212	-1.466568	1.380789
H	-1.387652	-1.011359	1.083318
N	-0.530069	1.235169	0.614854
H	-0.296039	1.182476	1.601677
H	0.013558	2.017385	0.257733
Cl	3.461296	0.0	0.0
