14

C	-0.591864	-0.115705	-1.394634
C	0.0	0.0	0.0
F	-0.267559	0.970959	-2.197505
H	1.094508	0.0	0.0
H	-1.682856	-0.129561	-1.283641
C	-0.193745	-1.351919	-2.082742
N	0.066521	-2.326318	-2.681867
N	-0.510555	-1.175002	0.720436
H	-0.915347	-0.829802	1.580602
H	0.276196	-1.766639	0.957101
N	-0.480961	1.233448	0.623606
H	-0.94421	1.824364	-0.056322
H	0.331488	1.747157	0.943465
Cl	3.419447	0.0	0.0
