14

C	-0.418379	0.00217	-1.473427
C	0.0	0.0	0.0
F	-1.765542	-0.346157	-1.617422
H	1.10315	0.0	0.0
H	0.171238	-0.748706	-2.008097
C	-0.228713	1.31129	-2.114728
N	-0.086037	2.355805	-2.628014
N	-0.439524	-1.202599	0.678072
H	-1.375778	-1.449799	0.376455
H	0.198379	-1.962499	0.472476
N	-0.611184	1.147502	0.668463
H	-0.071574	1.976601	0.434846
H	-0.47212	0.982118	1.659762
Cl	3.456734	0.0	0.0
