14

C	-0.453475	-0.156085	-1.438362
C	0.0	0.0	0.0
F	-1.825748	-0.423174	-1.503886
H	1.108793	0.0	0.0
H	0.059524	-1.004639	-1.902719
C	-0.20468	1.0493	-2.239775
N	-0.074761	1.982563	-2.937533
N	-0.493917	-1.157476	0.773938
H	-0.54172	-1.982621	0.185217
H	0.214599	-1.354813	1.474134
N	-0.481685	1.25011	0.552328
H	-1.33334	1.056288	1.065078
H	0.210887	1.615135	1.192846
Cl	3.40895	0.0	0.0
