15
Coordinates from ORCA-job run
  C   -0.59427635139661     -0.12508842201238     -0.46727315938527
  C   0.84054314786192      0.29819019735305     -0.13980465050047
  Cl  -0.56585397113677     -1.18348148287468     -1.92165914506063
  H   1.25531978935108      0.75265123746569     -1.04612482730927
  N   -1.40332452442622      1.02216421710398     -0.60104348555887
  H   -2.36489796564798      0.75776058526328     -0.78606561908351
  H   -1.07263995951072      1.64042699108807     -1.33152355710997
  N   -1.22680051230741     -0.90615248803130      0.68831003123179
  O   -2.34528294468960     -1.34613080558336      0.46934148926819
  O   -0.60176326547775     -0.94644039319518      1.73818764446008
  N   1.80879756146333     -0.84598088037539      0.15830489316147
  O   2.96067786614377     -0.47579705704268      0.33807258041022
  O   1.38551925100582     -1.99000214369771      0.16800481803551
  C   0.91371859910781      1.26535592712092      0.94816508052098
  N   1.00926327965931      2.08352451741769      1.78510790691973
