15
Coordinates from ORCA-job run
  C   -0.54918985975398     -0.32796957864627     -0.25853551125360
  C   0.63902129331990      0.33287682755783      0.45463496541582
  Cl  -0.12259077377291     -2.00460713052235     -0.75671227010711
  H   0.27840958739437      1.24223500420489      0.94013298185769
  N   -1.08488683201623      0.50253664493084     -1.25687579402274
  H   -1.98677326895723      0.14749702407442     -1.55430368247543
  H   -0.45463794073883      0.56864985765372     -2.04552297140998
  N   -1.67470050377996     -0.48971438765266      0.78151877365398
  O   -1.40071543614846     -0.26938551081364      1.95452825601764
  O   -2.75925485538731     -0.82111814539635      0.32865021525704
  N   1.71040393685291      0.82151334365894     -0.51858310907455
  O   2.54940425142740      1.54958411012307     -0.00954059641808
  O   1.66436095252303      0.45874724393192     -1.68733192742692
  C   1.30575488451541     -0.52078899147496      1.42820977872945
  N   1.88439456452189     -1.19105631162942      2.19973089125678
