15
Coordinates from ORCA-job run
  C   -0.63069727739778      0.09091356173882     -0.48429723493640
  C   0.89562980305390      0.04633226639402     -0.34553777886233
  Cl  -0.99402979655287      0.31968494836952     -2.20393558234675
  H   1.30565175249147     -0.68480837665682     -1.04226493628451
  N   -1.24052183798507      1.09532823599358      0.26977374175186
  H   -1.10355492767413      0.93308593757577      1.25984088601064
  H   -2.22645080540800      1.17426037928791      0.05793785807280
  N   -1.14305307502793     -1.35538225829595     -0.16070526333325
  O   -0.39840003098528     -2.28326964306673     -0.45174999801783
  O   -2.25642964891418     -1.42508602708801      0.33491942535558
  N   1.33062712406659     -0.44436631719093      1.02752385495473
  O   0.48846521165330     -0.46233563449935      1.91983310659210
  O   2.50306501807069     -0.77169087324247      1.11617428198119
  C   1.48467621413267      1.35954806875403     -0.56265046536038
  N   1.98502227647662      2.40778573192662     -0.73386189557746
