15
Coordinates from ORCA-job run
  C   -0.57917177889923     -0.12085284181288     -0.48499756016967
  C   0.85465986926319      0.27410288090123     -0.11942446047879
  Cl  -0.53103487931416     -1.20933520706915     -1.91667010577160
  H   1.31323961466588      0.69057586491592     -1.02296201812773
  N   -1.35647495985394      1.04159045811351     -0.66779545826576
  H   -0.98574949054462      1.63862727545218     -1.39680513448509
  H   -2.31610073314941      0.79403019147554     -0.88416991712133
  N   -1.26635465946004     -0.86297117531071      0.66522436585897
  O   -0.67759175435874     -0.89234879656392      1.73634253783251
  O   -2.38679088979911     -1.28328048232870      0.41886175429973
  N   1.77985607508013     -0.88709188392474      0.24455806981126
  O   1.32985779520082     -2.02087945680045      0.24954956569215
  O   2.93019301588939     -0.54088674956529      0.47472144428733
  C   0.91613516617514      1.26929717967388      0.94365295011189
  N   0.97632760910469      2.11042274284360      1.76091396652615
