15
Coordinates from ORCA-job run
  C   -0.51584709200377     -0.41448211168207     -0.23807245864377
  C   0.69005086941357      0.33641168195123      0.35852488142208
  Cl  -0.29577068332054     -2.14560322520115     -0.22817082502496
  H   0.42682572120959      1.39361575451600      0.43434733719173
  N   -0.77621725542018      0.04769034572044     -1.53857871573192
  H   -1.51445563738898     -0.47530224776138     -1.99119234763051
  H   -0.96548803945137      1.04229059379803     -1.55768888006002
  N   -1.68227980372932     -0.04768190913656      0.77184634029803
  O   -1.97705379060685      1.14438123614757      0.72893530791900
  O   -2.18746090398785     -0.90721977279286      1.47203684911844
  N   1.84106549564494      0.27590864453804     -0.62094445347065
  O   2.54528441993309     -0.72372872484282     -0.59869442244272
  O   1.93894612914029      1.24429100024712     -1.36512657450737
  C   1.08364539011048     -0.18883311410983      1.65496924609595
  N   1.38875518045688     -0.58173815139177      2.71880871546669
