15
Coordinates from ORCA-job run
  C   -0.59861779374085      0.34384826430620     -0.39300488352863
  C   0.77761238817797      0.61877886310079      0.20794031131259
  F   -0.43917492060427      0.15034251446550     -1.76781148966610
  H   1.18046579085935      1.49423761003141     -0.30997004851994
  H   0.64393809135035      0.90152967513674      1.25695688540200
  C   -1.30024634498664     -0.88026673653360      0.16568824099231
  H   -2.28144002869216     -0.98719966778681     -0.29844376452643
  H   -0.71200111663838     -1.77058196715509     -0.05643217487837
  H   -1.42672202089371     -0.79056227593164      1.24635952593438
  C   -1.45079211751203      1.53708998571638     -0.21880577480196
  N   -2.12273147891058      2.48392859788405     -0.04564047202283
  C   1.74122696907518     -0.55626790303401      0.07827985100749
  H   2.74595500982155     -0.24651820661161      0.37209491425794
  H   1.78624351025028     -0.90555692653218     -0.95442026550196
  H   1.45628406244395     -1.39380182705612      0.71720914453952
