15
Coordinates from ORCA-job run
  C   -0.68500525304946      0.23786992044811     -0.50958464169422
  C   0.81245596521220      0.04646947141071     -0.71686297789114
  F   -1.26772394008179      0.34129897682708     -1.77464324841335
  H   1.16113745675009      0.87611013140544     -1.33883975614759
  H   0.93149493500989     -0.86917477120881     -1.30502602205737
  C   -1.36477424971456     -0.90882967799139      0.21511207157285
  H   -1.14071064311233     -1.84224302730253     -0.30556536912879
  H   -1.02575738712461     -0.98144096018819      1.24892343000339
  H   -2.44425829347762     -0.75177266215022      0.21082232625798
  C   -0.94273006353331      1.50963160183140      0.19501466863310
  N   -1.13590939160179      2.50630727416692      0.78463388490843
  C   1.61357869775524     -0.02766409398073      0.57840081697359
  H   1.34367277019355     -0.90254982243194      1.17258742484810
  H   1.46300259379629      0.86412561272983      1.19121041474148
  H   2.67952680297821     -0.09913797356568      0.35481697739354
