14

C	0.0	0.0	0.0
C	-0.491221	-0.187291	-1.436695
F	1.349703	0.0	0.0
H	-1.559347	0.063441	-1.454232
H	-0.407389	-1.25596	-1.661058
N	-0.357854	1.426406	0.469564
O	-0.27627	1.647873	1.670281
O	-0.590692	2.25343	-0.405692
N	-0.507639	-0.903544	0.95321
H	-0.345027	-1.849033	0.62679
H	-1.522897	-0.758721	1.002144
C	0.26816	0.545444	-2.444021
N	0.893426	1.071931	-3.286413
Br	-3.667294	0.0	0.0
