14

C	0.0	0.0	0.0
C	-0.521984	-0.016619	-1.424188
F	1.354031	0.0	0.0
H	-0.171504	0.876068	-1.941307
H	-1.62008	0.005013	-1.379622
N	-0.278304	1.426521	0.60836
O	-0.303499	2.390569	-0.150322
O	-0.345158	1.476328	1.832854
N	-0.516646	-1.024399	0.778831
H	-0.271945	-0.882559	1.751626
H	-1.537802	-1.017964	0.6827
C	-0.050392	-1.205735	-2.123635
N	0.33583	-2.131845	-2.732503
Br	-3.707514	0.0	0.0
