14

C	0.0	0.0	0.0
C	-0.550176	0.330454	-1.373684
F	1.371661	0.0	0.0
H	-0.540883	-0.597835	-1.949734
H	-1.60064	0.626561	-1.250609
N	-0.281598	1.194825	0.966365
O	-0.104933	0.95151	2.157915
O	-0.592142	2.279642	0.490638
N	-0.504544	-1.200704	0.494509
H	-0.29819	-1.251773	1.487647
H	-1.524876	-1.18814	0.371568
C	0.225495	1.336924	-2.082497
N	0.874147	2.109388	-2.68092
Br	-3.689206	0.0	0.0
