14

C	0.0	0.0	0.0
C	-0.479698	-0.198148	-1.43674
F	1.366378	0.0	0.0
H	-0.057165	0.572281	-2.081642
H	-1.576376	-0.118079	-1.422698
N	-0.355832	1.445269	0.41165
O	-0.151177	2.298114	-0.449864
O	-0.711807	1.654929	1.560294
N	-0.483819	-0.876433	0.985481
H	-1.497636	-0.737717	1.048977
H	-0.310062	-1.829676	0.685391
C	-0.071802	-1.517332	-1.903245
N	0.26976	-2.574854	-2.281989
Br	-3.669914	0.0	0.0
