14

C	0.0	0.0	0.0
C	-0.490091	0.008728	-1.448749
F	1.353659	0.0	0.0
H	-1.587168	0.083198	-1.414936
H	-0.071987	0.86717	-1.9757
N	-0.362889	1.37357	0.605822
O	-0.841086	1.417219	1.727738
O	-0.049878	2.338965	-0.08922
N	-0.488271	-1.004388	0.854542
H	-0.3204	-1.906748	0.423706
H	-1.500276	-0.873724	0.944234
C	-0.083481	-1.228725	-2.100608
N	0.258215	-2.232826	-2.603817
Br	-3.70108	0.0	0.0
