17

C	-0.372677	0.024129	-1.465569
C	0.0	0.0	0.0
Cl	-2.19846	-0.016382	-1.664519
H	1.091593	0.0	0.0
H	-0.382807	-0.897776	0.482742
C	0.161951	1.226078	-2.221336
H	1.23331	1.296153	-2.004211
H	-0.318713	2.147648	-1.903308
H	0.003568	1.085273	-3.294623
C	0.18981	-1.260714	-2.053776
H	1.269648	-1.259337	-1.867
H	-0.008161	-1.311048	-3.12673
H	-0.250961	-2.137096	-1.574035
N	-0.480654	1.122103	0.805378
O	-0.213923	2.270926	0.438291
O	-1.074674	0.858554	1.860265
H	2.725882	0.0	0.0
