17

C	-0.496242	-0.044505	-1.447802
C	0.0	0.0	0.0
Cl	-0.295666	1.668115	-2.038803
H	1.089056	0.0	0.0
H	-0.366398	0.877161	0.529672
C	0.38046	-0.916562	-2.330028
H	0.10599	-0.79106	-3.38142
H	0.249184	-1.958754	-2.037277
H	1.426304	-0.646051	-2.17132
C	-1.974516	-0.373428	-1.576158
H	-2.576249	0.297518	-0.958093
H	-2.29534	-0.268666	-2.616074
H	-2.143047	-1.40338	-1.255646
N	-0.408416	-1.151109	0.796398
O	-0.618721	-0.96387	2.002446
O	-0.423532	-2.273358	0.267757
H	2.690603	0.0	0.0
