19

C	0.0	0.0	0.0
C	-0.495072	-0.000125	-1.448519
Cl	1.82181	0.0	0.0
H	-1.588468	-0.000121	-1.351005
C	-0.464561	1.248919	0.726349
H	-1.559248	1.241827	0.71212
H	-0.101746	2.14704	0.230111
H	-0.116498	1.228789	1.762603
C	-0.464561	-1.248793	0.726565
H	-0.101762	-2.146999	0.23047
H	-0.116482	-1.228494	1.76281
H	-1.559248	-1.241694	0.71235
N	-0.114895	-1.243298	-2.11865
H	-0.641587	-1.320346	-2.980937
H	0.871442	-1.204867	-2.354135
N	-0.114902	1.242936	-2.118859
H	-0.641587	1.319831	-2.981165
H	0.871437	1.204474	-2.35433
Cl	-3.926002	0.0	0.0
