19

C	0.0	0.0	0.0
C	-0.540237	0.117639	-1.430803
Cl	1.805579	0.0	0.0
H	-1.60172	0.359489	-1.288019
C	-0.45557	1.213079	0.795329
H	-0.126392	2.127352	0.301072
H	-0.042176	1.178223	1.806995
H	-1.548319	1.195561	0.847933
C	-0.472514	-1.280881	0.664262
H	-0.16583	-1.290269	1.713237
H	-1.566464	-1.307011	0.617054
H	-0.043654	-2.157879	0.175929
N	-0.372798	-1.147571	-2.167023
H	-0.706217	-0.97183	-3.110195
H	-1.026409	-1.820662	-1.77553
N	0.08043	1.223697	-2.13198
H	0.989658	0.920257	-2.464389
H	-0.490813	1.473608	-2.92985
Cl	-3.914229	0.0	0.0
