19

C	0.0	0.0	0.0
C	-0.488289	1.104852	-1.004497
Cl	1.803961	0.0	0.0
H	0.403329	1.575119	-1.427372
C	-0.431662	0.259557	1.437315
H	-1.521164	0.203911	1.491948
H	-0.007287	-0.513905	2.083125
H	-0.104998	1.240388	1.777519
C	-0.429106	-1.406255	-0.399914
H	0.000484	-2.126439	0.30151
H	-1.518145	-1.469561	-0.346233
H	-0.105211	-1.643865	-1.411311
N	-1.20691	2.162262	-0.289758
H	-1.408041	2.89384	-0.964797
H	-2.111944	1.781365	-0.010444
N	-1.196699	0.490353	-2.129804
H	-2.106364	0.18216	-1.784197
H	-1.385333	1.226483	-2.8033
Cl	-3.890708	0.0	0.0
