19

C	0.0	0.0	0.0
C	-0.352273	-0.085683	-1.514811
Cl	1.827244	0.0	0.0
H	0.169711	0.771376	-1.975
C	-0.482241	1.308291	0.592196
H	-0.094328	1.435292	1.605833
H	-1.57533	1.288145	0.63624
H	-0.154484	2.158245	-0.013546
C	-0.497776	-1.19044	0.79245
H	-0.158139	-2.119922	0.338648
H	-0.147316	-1.13347	1.825792
H	-1.591564	-1.169135	0.793873
N	-1.741948	0.032052	-1.863749
H	-2.132869	0.922882	-1.589362
H	-2.322599	-0.651323	-1.387449
N	0.092597	-1.366715	-2.057005
H	-0.295686	-1.422507	-2.990617
H	1.102446	-1.391649	-2.117675
Cl	-4.360654	0.0	0.0
