19

C	0.0	0.0	0.0
C	-0.345532	0.22644	-1.50352
Cl	1.81864	0.0	0.0
H	0.210749	1.137608	-1.785293
C	-0.48013	1.166155	0.840175
H	-1.573473	1.142453	0.874866
H	-0.14674	2.118422	0.416913
H	-0.094663	1.087422	1.859769
C	-0.513222	-1.319411	0.532843
H	-1.607615	-1.295392	0.505946
H	-0.158143	-2.147248	-0.078448
H	-0.196098	-1.460023	1.569774
N	-1.726556	0.468872	-1.825453
H	-2.359524	-0.216925	-1.42138
H	-2.0438	1.353445	-1.452197
N	0.061865	-0.93927	-2.283746
H	-0.321472	-0.800458	-3.210768
H	1.071049	-0.984604	-2.346398
Cl	-4.33286	0.0	0.0
