19

C	-0.369597	0.021996	-1.491197
C	0.0	0.0	0.0
F	-0.17031	-1.30763	-1.961635
H	1.092183	0.0	0.0
C	-1.808788	0.344746	-1.829054
H	-2.052346	1.365891	-1.538639
H	-1.946827	0.241454	-2.909187
H	-2.475899	-0.350216	-1.32217
N	0.529072	0.928798	-2.10664
H	1.491318	0.708791	-1.849548
H	0.427469	0.899686	-3.113547
N	-0.51143	-1.259465	0.611385
O	-1.722973	-1.306872	0.858681
O	0.276568	-2.17349	0.821147
C	-0.507116	1.198473	0.775359
H	-0.104458	1.171501	1.790453
H	-1.595795	1.220384	0.826178
H	-0.137071	2.100951	0.287725
Cl	3.42191	0.0	0.0
