19

C	-0.338971	0.011648	-1.507373
C	0.0	0.0	0.0
F	-1.707327	-0.282	-1.634623
H	1.092429	0.0	0.0
C	-0.091883	1.387466	-2.091574
H	-0.796029	2.113608	-1.685747
H	-0.229223	1.317458	-3.17151
H	0.930313	1.707114	-1.874303
N	0.378559	-0.95694	-2.291138
H	1.363365	-0.700579	-2.248531
H	0.320168	-1.854064	-1.821748
N	-0.482409	-1.287735	0.586314
O	0.026616	-2.334738	0.182136
O	-1.384083	-1.249282	1.425043
C	-0.545381	1.164775	0.797784
H	-0.024404	2.073691	0.495795
H	-1.620789	1.285983	0.655627
H	-0.351765	1.010582	1.859316
Cl	3.336155	0.0	0.0
