19

C	-0.469672	-0.018984	-1.466814
C	0.0	0.0	0.0
F	-0.319741	1.326693	-1.910319
H	1.093689	0.0	0.0
C	0.413493	-0.85089	-2.366943
H	0.124071	-0.676694	-3.408407
H	0.30839	-1.90651	-2.125457
H	1.453891	-0.558883	-2.21707
N	-1.835765	-0.413294	-1.560084
H	-2.138139	-0.372893	-2.525514
H	-2.422816	0.198909	-1.006994
N	-0.447791	-1.282518	0.627277
O	-1.376028	-1.241568	1.4384
O	0.120667	-2.31333	0.278539
C	-0.498307	1.188367	0.796577
H	-1.585564	1.287711	0.790122
H	-0.174044	1.088296	1.832659
H	-0.046471	2.086707	0.379309
Cl	3.40475	0.0	0.0
