19

C	-0.374306	0.166905	-1.481006
C	0.0	0.0	0.0
F	-0.187284	-1.113794	-2.07696
H	1.094929	0.0	0.0
C	-1.811571	0.533358	-1.783197
H	-2.484785	-0.205008	-1.349553
H	-2.046825	1.521781	-1.389601
H	-1.950075	0.543683	-2.868215
N	0.530031	1.120731	-2.008712
H	1.490868	0.877417	-1.768449
H	0.431274	1.187094	-3.014041
N	-0.511498	-1.311328	0.486534
O	-1.725877	-1.387414	0.712651
O	0.279834	-2.236461	0.62559
C	-0.503822	1.116581	0.891403
H	-1.592365	1.131849	0.950031
H	-0.137451	2.062938	0.492126
H	-0.094385	0.990862	1.896192
Cl	3.417822	0.0	0.0
