19

C	-0.341828	-0.055102	-1.505786
C	0.0	0.0	0.0
F	-1.715003	-0.335067	-1.615724
H	1.094422	0.0	0.0
C	-0.076926	1.288185	-2.154227
H	0.949742	1.604329	-1.950147
H	-0.214945	1.169836	-3.23004
H	-0.771608	2.042032	-1.784048
N	0.360459	-1.069438	-2.245224
H	0.305392	-1.940749	-1.728731
H	1.347104	-0.815909	-2.229672
N	-0.484199	-1.258257	0.645041
O	-1.388506	-1.180383	1.477547
O	0.02875	-2.323341	0.295027
C	-0.542703	1.200839	0.744888
H	-0.354293	1.091786	1.812757
H	-1.616692	1.321947	0.593065
H	-0.0153	2.092966	0.406714
Cl	3.334733	0.0	0.0
