16

C	0.0	0.0	0.0
C	-0.427299	0.02177	-1.510388
Br	1.960632	0.0	0.0
H	-1.45105	0.355809	-1.593591
C	-0.518785	1.196568	0.644231
N	-0.748826	2.25991	1.135909
N	-0.224226	-1.195229	0.9267
H	-1.254215	-1.143787	0.966166
H	-0.014972	-2.029784	0.385698
N	-0.391352	-1.296738	-2.196701
O	0.322377	-2.205774	-1.76599
O	-1.244599	-1.456225	-3.081019
N	0.399706	0.975092	-2.322173
O	0.978277	0.567916	-3.359134
O	0.009295	2.145092	-2.178259
H	-2.06263	0.0	0.0
