16

C	0.0	0.0	0.0
C	-0.327252	0.01828	-1.491132
Br	2.044354	0.0	0.0
H	0.013582	0.921582	-1.993888
C	-0.354912	1.260018	0.587794
N	-0.636187	2.283852	1.130953
N	-0.507016	-1.178391	0.763904
H	-0.16965	-2.050167	0.378353
H	-0.349063	-1.060238	1.752151
N	-1.854501	-0.006009	-1.488923
O	-2.429507	1.192645	-1.730626
O	-2.377826	-1.139191	-1.703158
N	0.236189	-1.141671	-2.258506
O	0.434736	-0.950771	-3.461093
O	0.297448	-2.240377	-1.704924
H	-1.569014	0.0	0.0
