16

C	0.0	0.0	0.0
C	-0.496138	-0.020494	-1.46016
Br	2.007323	0.0	0.0
H	-1.535018	-0.342667	-1.533782
C	-0.412375	1.225309	0.670214
N	-0.76977	2.199755	1.244172
N	-0.523138	-1.166991	0.70258
H	-0.224062	-2.025869	0.267978
H	-0.26811	-1.131529	1.679382
N	0.337899	-1.020395	-2.247881
O	0.839733	-0.660101	-3.32125
O	0.059616	-2.197129	-1.958545
N	-0.432088	1.307092	-2.150302
O	-1.234611	1.438631	-3.074457
O	0.447885	2.094715	-1.82787
H	-1.573826	0.0	0.0
