11
Coordinates from ORCA-job run
  C   0.48183050060617      0.39959195484497      0.05028359804240
  C   -0.80599532830037     -0.40680617119537      0.11945488243204
  Br  0.23723280800224      2.07706966530355     -0.86306082279760
  H   -1.20064368982252     -0.55133891872931     -0.88763151150167
  H   0.90862450073211      0.61276543122147      1.02818384963519
  H   -0.58177007479333     -1.39519525855478      0.53535728022367
  N   1.52257973138360     -0.40072560371305     -0.68983825572929
  O   1.14836718722983     -1.02023912126160     -1.67944387153779
  O   2.66048057770926     -0.36000011499370     -0.23456374597075
  C   -1.79267581452878      0.25728921665122      0.96501535230650
  N   -2.57903039821823      0.78658892042661      1.65624324489729
