11
Coordinates from ORCA-job run
  C   0.46564971027873      0.62823923079215      0.05761683773601
  C   -1.00455400910121      0.25104940169631      0.10567047956214
  Br  0.72051898577790      2.26751278193021     -0.92385522719469
  H   -1.37318019675885      0.09770927622460     -0.90983700239390
  H   0.91230908074670      0.75336674879171      1.04179092996076
  H   -1.56841734661310      1.06828541990491      0.56147184935466
  N   1.26092386735870     -0.46007869107148     -0.62095448400948
  O   0.74092613782287     -1.00894144827949     -1.58530310824094
  O   2.36973554090986     -0.68748078949366     -0.15041652545925
  C   -1.19046963432573     -0.96987699965432      0.88908307280865
  N   -1.33444213609588     -1.93978493084096      1.53373317787603
