11
Coordinates from ORCA-job run
  C   0.35666614564408      0.51662696625157      0.01760460176967
  C   -0.69018637648457     -0.58231816184391      0.11747187106040
  Br  -0.15981447178316      1.89779108761040     -1.22072793192192
  H   -0.29134950581418     -1.39501923342015      0.73443201442434
  H   0.57421448915760      0.99075012013043      0.97248274775574
  H   -0.89104426431225     -0.98693617220754     -0.87590225630606
  N   1.65639802721675     -0.08493174952837     -0.45138170030043
  O   2.67274694754696      0.33151488333828      0.09397713878436
  O   1.59050743450888     -0.93338550623967     -1.33400433068956
  C   -1.91876812524561     -0.07874014765315      0.72289691995040
  N   -2.90037030043450      0.32564791356211      1.22215092547305
