19

C	0.0	0.0	0.0
C	-0.428455	0.353996	-1.426549
F	1.364839	0.0	0.0
H	0.141749	-0.38217	-2.010427
N	-0.361549	1.099092	0.998464
O	-1.152694	1.973711	0.662115
O	0.179729	1.010354	2.097283
C	-0.555062	-1.289585	0.540353
H	-0.079098	-1.508684	1.496713
H	-1.63663	-1.202678	0.67369
H	-0.3447	-2.096718	-0.164815
N	0.123751	1.667764	-1.778877
H	-0.563809	2.370727	-1.534542
H	0.243291	1.69985	-2.783743
C	-1.90742	0.183121	-1.733617
H	-2.278212	-0.823121	-1.539529
H	-2.063698	0.398067	-2.795584
H	-2.541661	0.844425	-1.146167
Cl	-4.834715	0.0	0.0
