19

C	0.0	0.0	0.0
C	-0.469521	-0.149427	-1.462551
F	1.372234	0.0	0.0
H	-0.403471	-1.230607	-1.643077
N	-0.326303	1.400264	0.5237
O	0.019497	2.339657	-0.191794
O	-0.846457	1.510862	1.627858
C	-0.539977	-1.03911	0.937486
H	-1.630832	-0.99607	0.960146
H	-0.1587	-0.880539	1.945162
H	-0.220933	-2.019293	0.577775
N	0.39267	0.490294	-2.450755
H	0.292311	1.492757	-2.346688
H	1.360454	0.273239	-2.245499
C	-1.904752	0.297545	-1.674487
H	-1.974226	1.386477	-1.636702
H	-2.213902	-0.027745	-2.668862
H	-2.630084	-0.090429	-0.957767
Cl	-4.907178	0.0	0.0
