19

C	0.0	0.0	0.0
C	-0.41934	0.172849	-1.47697
F	1.378427	0.0	0.0
H	0.320103	0.881452	-1.863092
N	-0.307152	1.310572	0.740771
O	-0.75376	1.256121	1.88165
O	-0.001519	2.344641	0.148936
C	-0.580357	-1.157866	0.747737
H	-0.243203	-1.153545	1.783316
H	-1.672401	-1.086296	0.727037
H	-0.264488	-2.08436	0.267934
N	-1.726109	0.718022	-1.743695
H	-1.784215	1.673595	-1.416467
H	-2.490518	0.219168	-1.283791
C	-0.257799	-1.152011	-2.21522
H	0.708848	-1.620356	-2.012562
H	-1.057911	-1.843058	-1.938895
H	-0.344609	-0.957829	-3.285407
Cl	-4.331341	0.0	0.0
