15
Coordinates from ORCA-job run
  C   -0.14510036692497     -0.05555135691431      0.51972405506307
  C   1.31318619993278     -0.30366807431661      0.09884723655618
  Br  -0.19288180171428     -0.37136173728511      2.46505106338359
  H   1.97940613042643      0.37472577916686      0.63915560880721
  H   1.60781130356545     -1.32548747566810      0.35396162973098
  C   -0.55900583966142      1.38457817385012      0.26431676196734
  H   -0.53732800966740      1.58575194245335     -0.81121144092607
  H   0.11391875030640      2.08380155574775      0.76497245287668
  H   -1.57224866053969      1.56133162316893      0.62909285873311
  C   -1.08992517841610     -1.04473525583263     -0.14310842891838
  H   -1.07847266285891     -0.89114060591927     -1.22660784989059
  H   -2.10989794600422     -0.89853471304132      0.21638718191655
  H   -0.79501978647442     -2.07478247647871      0.06766421263059
  C   1.48300779878226     -0.09940548397022     -1.34019383041370
  N   1.58455006924809      0.07247810503925     -2.49705151151657
