15
Coordinates from ORCA-job run
  C   -0.09055456838655     -0.01278382960305      0.53456901267621
  C   1.33059640440310     -0.23621198526616     -0.00915337528952
  Br  0.06837607891590     -0.14684629616994      2.49492756977528
  H   1.70188903682783     -1.21579271058869      0.30476147014436
  H   2.00997009248918      0.51825212400171      0.39735490679934
  C   -0.60199937281412      1.37793298807933      0.19568589385067
  H   -0.69479089597746      1.47851053404206     -0.89010721475674
  H   0.07858615903554      2.14934561273264      0.56189276749335
  H   -1.58315874215365      1.54396520034466      0.64366848415251
  C   -1.04267344448115     -1.09940554841733      0.06205608526555
  H   -0.67410729954386     -2.09176933670731      0.33027940536595
  H   -2.02829701331319     -0.96546824722209      0.51112204008533
  H   -1.14677705816746     -1.04601716222444     -1.02612933341767
  C   1.34801693813588     -0.16119309274264     -1.47052667127608
  N   1.32692368503000     -0.09451825025875     -2.64240104086853
