15
Coordinates from ORCA-job run
  C   -0.08771364206814      0.12976812284644      0.36636665138400
  C   1.13325682641436      0.14893857607951     -0.56384353973251
  Br  0.57556374585034     -0.02200521626308      2.21414205876610
  H   0.78112158893345      0.33299832291734     -1.58623361695985
  H   1.79740130326906      0.97367109120586     -0.29103619642806
  C   -0.83800800679246      1.44763193197382      0.24516910184976
  H   -1.68126560298270      1.47414429134984      0.93713212209472
  H   -1.22417350145560      1.55459650844743     -0.77423085047295
  H   -0.18707330402416      2.29629819675677      0.46483614046997
  C   -0.98880749645977     -1.06112907976357      0.08473469495135
  H   -0.45835675931055     -2.00475587436791      0.21989878200588
  H   -1.34716857101455     -1.00673300909198     -0.94925436475824
  H   -1.85316989847180     -1.05109228103099      0.75088038706855
  C   1.89208824936051     -1.09943010297688     -0.55571185409209
  N   2.48530506875201     -2.11190147808259     -0.56384951614663
