15
Coordinates from ORCA-job run
  C   -0.08929454146771      0.15564474556637      0.35549721776220
  C   1.12154751218885      0.14623025143846     -0.58789354828124
  Br  0.59643208751185      0.18257703231052      2.20115040599360
  H   1.75417751786524      1.01609154748020     -0.39154308297500
  H   0.75379214357288      0.23147656680777     -1.61773167567446
  C   -0.89289764191512      1.42869181851366      0.13600377528379
  H   -0.27507755026504      2.31755865656669      0.27908587411325
  H   -1.29081439619346      1.43705936677139     -0.88446064918971
  H   -1.73118533231092      1.47814780087735      0.83270333481475
  C   -0.94464664314984     -1.08869936243291      0.18363202425713
  H   -1.80060677358576     -1.05878384170462      0.86002887824259
  H   -1.31760998235328     -1.13180899138992     -0.84582253279365
  H   -0.37490229357973     -1.99689128081076      0.38572396979921
  C   1.92948398166736     -1.06663513033008     -0.48694228022006
  N   2.56360191201467     -2.05165917966413     -0.41843171113241
