18

C	0.0	0.0	0.0
C	-0.235554	0.019241	-1.550023
F	1.361682	0.0	0.0
H	0.525155	-0.695331	-1.884886
C	-0.528666	1.147407	0.727353
N	-0.59855	2.194312	1.277656
N	-0.460101	-1.252243	0.651661
O	-0.491411	-1.26453	1.89482
O	-0.420502	-2.282677	-0.051693
C	0.150184	1.408501	-2.062258
H	1.135759	1.71482	-1.707743
H	-0.580187	2.150823	-1.728919
H	0.161206	1.410567	-3.156752
C	-1.544236	-0.422926	-2.189338
H	-1.906218	-1.347193	-1.745789
H	-2.320303	0.334756	-2.096701
H	-1.339795	-0.596831	-3.259147
H	-2.054413	0.0	0.0
