18

C	0.0	0.0	0.0
C	-0.233611	0.002346	-1.550875
F	1.361782	0.0	0.0
H	0.529473	-0.712348	-1.877938
C	-0.546309	1.147527	0.71355
N	-0.591485	2.196312	1.26497
N	-0.454384	-1.252015	0.664174
O	-0.515217	-1.251451	1.904962
O	-0.402455	-2.286585	-0.029086
C	0.1512	1.388331	-2.074495
H	1.130598	1.703623	-1.711442
H	-0.587173	2.129271	-1.758465
H	0.175432	1.377827	-3.168748
C	-1.539537	-0.447375	-2.190288
H	-1.903646	-1.365065	-1.734515
H	-2.315631	0.311473	-2.104993
H	-1.329286	-0.634153	-3.255706
H	-2.059239	0.0	0.0
