18

C	0.0	0.0	0.0
C	-0.240319	-0.007922	-1.553736
F	1.361479	0.0	0.0
H	0.578009	-0.648718	-1.90088
C	-0.763766	1.035855	0.685603
N	-0.763384	2.084088	1.262716
N	-0.325499	-1.338268	0.646534
O	-0.452662	-1.363673	1.869672
O	-0.218396	-2.340918	-0.06571
C	0.020831	1.418096	-2.044931
H	-0.793337	2.076298	-1.729825
H	0.076116	1.432678	-3.138424
H	0.953456	1.821583	-1.644862
C	-1.50921	-0.554596	-2.199578
H	-1.801309	-1.507914	-1.764655
H	-2.343112	0.136905	-2.099064
H	-1.294377	-0.707891	-3.270567
H	-2.06095	0.0	0.0
