18

C	0.0	0.0	0.0
C	-0.58908	-0.146635	-1.386455
F	1.356347	0.0	0.0
H	-1.680766	-0.166144	-1.146925
C	-0.428909	1.248725	0.665269
N	-0.44191	2.319267	1.15193
N	-0.341951	-1.150639	0.964692
O	-0.161028	-2.28539	0.535951
O	-0.635856	-0.862963	2.119044
C	-0.159408	-1.394585	-2.148398
H	-0.464264	-1.278014	-3.192575
H	-0.640939	-2.288352	-1.756637
H	0.924277	-1.549572	-2.129704
C	-0.275996	1.122162	-2.183332
H	-0.709395	2.006744	-1.709107
H	-0.72299	1.03161	-3.176272
H	0.802163	1.278091	-2.306415
H	-3.000223	0.0	0.0
