18

C	0.0	0.0	0.0
C	-0.343718	-0.148128	-1.511395
F	1.356126	0.0	0.0
H	-1.315165	-0.629011	-1.568846
C	-0.681427	1.116708	0.647299
N	-0.638627	2.181644	1.185496
N	-0.356633	-1.257998	0.793572
O	-0.340645	-1.150629	2.01876
O	-0.42716	-2.326778	0.185995
C	0.69011	-0.98542	-2.269841
H	1.655983	-0.479715	-2.340099
H	0.320535	-1.14992	-3.286263
H	0.838124	-1.958273	-1.802839
C	-0.441025	1.245913	-2.124269
H	-0.558638	1.167459	-3.209583
H	-1.296146	1.785456	-1.711369
H	0.468857	1.82407	-1.922825
H	-2.2157	0.0	0.0
