17
Coordinates from ORCA-job run
  C   -0.83581207975416      0.07519331868662      0.47244357619683
  C   0.64467271275174      0.49361968800607      0.32432383645548
  H   -0.92961189943430     -0.34118500526664      1.48212654932415
  H   0.80855936757735      1.43308107508735      0.85655659146716
  C   -1.27453822234945     -0.97441162683315     -0.55524475989109
  H   -2.28483713580372     -1.31734224908992     -0.32823592989289
  H   -1.28064135624366     -0.54836877596961     -1.55901367849133
  H   -0.60431307929650     -1.83415479905809     -0.54683118770429
  C   -1.72120851064923      1.24242928688709      0.40470625690626
  N   -2.45481720562007      2.15470191780280      0.31299788461344
  N   0.87365476497415      0.82023277460975     -1.12465508930854
  O   0.38131788238744      1.86744140621909     -1.53565055468580
  O   1.48876000476640      0.00066492595278     -1.80424550977831
  C   1.61044008159012     -0.57231564391120      0.80361530281406
  H   2.62855835092350     -0.33717424163327      0.49203230203974
  H   1.58639748276666     -0.60640561804213      1.89563343688577
  H   1.36441884141373     -1.55700643344752      0.40944097304935
