17
Coordinates from ORCA-job run
  C   -0.65838376596808     -0.52094166268164      0.13591093455859
  C   0.53591324456312      0.44379288930840      0.09831410502000
  H   -0.30993985844813     -1.48995890876546     -0.23884930557521
  H   0.22677999504745      1.43745745769259      0.42886678133973
  C   -1.83474079849337     -0.03455456896060     -0.71670675085414
  H   -2.15861122868392      0.95844525599656     -0.39816587956936
  H   -2.67883999242438     -0.71943594606046     -0.62489361218151
  H   -1.54715811376443      0.00945844915288     -1.76843783910054
  C   -1.06651385615103     -0.69007098039586      1.53122464296675
  N   -1.39968556194658     -0.80070686836824      2.65200734654876
  N   0.90513151140243      0.61671000561133     -1.34506291843356
  O   1.23778766839705     -0.39866519138252     -1.95332443234356
  O   0.84163898958517      1.74946404915264     -1.81747902701122
  C   1.75086290553266     -0.05063690713491      0.86104532628011
  H   1.51258699676194     -0.13282100395618      1.92285547977114
  H   2.06057560010110     -1.02776137200491      0.48703835325345
  H   2.58159626448901      0.64922530279636      0.74865679533057
