14

C	0.0	0.0	0.0
C	-0.5427	-0.08558	-1.420141
Cl	1.847818	0.0	0.0
H	-0.268623	0.789228	-2.003217
H	-1.640712	-0.180255	-1.306029
C	-0.324716	1.3393	0.519746
N	-0.494444	2.422214	0.940406
N	-0.521319	-0.981551	0.835509
H	-0.48665	-1.912751	0.455695
H	-0.261805	-0.904165	1.804561
N	-0.022553	-1.259484	-2.164958
O	0.329302	-1.073893	-3.327734
O	-0.004188	-2.350211	-1.594508
Cl	-3.657455	0.0	0.0
