14

C	0.0	0.0	0.0
C	-0.468245	-0.035695	-1.466499
Cl	1.800929	0.0	0.0
H	-0.167962	0.859757	-2.006058
H	-1.561265	-0.145243	-1.435642
C	-0.373661	1.327488	0.522249
N	-0.571274	2.403289	0.948849
N	-0.489637	-1.011434	0.88289
H	-0.335469	-1.910245	0.439792
H	-1.504592	-0.862502	0.934944
N	0.105556	-1.178412	-2.21777
O	0.049852	-2.296024	-1.704312
O	0.5842	-0.942865	-3.326172
Cl	-3.459641	0.0	0.0
