14

C	0.0	0.0	0.0
C	-0.483644	0.418557	-1.389468
Cl	1.784742	0.0	0.0
H	-0.21987	-0.355531	-2.108687
H	-1.572982	0.54165	-1.317712
C	-0.387563	0.955234	1.05499
N	-0.56416	1.700567	1.944784
N	-0.49648	-1.29879	0.366413
H	-1.517398	-1.19636	0.437277
H	-0.292192	-1.952166	-0.383671
N	0.105582	1.678348	-1.908328
O	0.132608	2.648485	-1.157334
O	0.49334	1.675137	-3.077369
Cl	-3.465602	0.0	0.0
