14

C	0.0	0.0	0.0
C	-0.504236	0.051356	-1.435386
Cl	1.781375	0.0	0.0
H	-1.601013	0.125257	-1.39836
H	-0.195777	-0.858316	-1.947469
C	-0.370916	1.191457	0.797194
N	-0.601144	2.081644	1.528336
N	-0.49448	-1.233636	0.552268
H	-0.234914	-1.276579	1.53263
H	-1.520621	-1.154944	0.510035
N	0.000195	1.190445	-2.245155
O	0.005745	1.023877	-3.463649
O	0.331626	2.225159	-1.671909
Cl	-3.474621	0.0	0.0
