15

C	0.0	0.0	0.0
C	-0.393701	-0.645805	-1.367323
Cl	1.78908	0.0	0.0
H	0.325728	-1.458732	-1.522459
H	-0.316162	1.043704	0.032878
C	-0.560711	-0.767784	1.17462
H	-0.269309	-1.821064	1.123039
H	-0.191416	-0.353192	2.114788
H	-1.650316	-0.686837	1.155441
C	-0.136321	0.33625	-2.436439
N	0.073735	1.129929	-3.275498
N	-1.711626	-1.201389	-1.526538
H	-2.466476	-0.570082	-1.248501
H	-1.808268	-2.019969	-0.938488
Br	-4.398243	0.0	0.0
