15

C	0.0	0.0	0.0
C	-0.392244	0.17144	-1.496292
Cl	1.789629	0.0	0.0
H	0.206305	-0.56924	-2.041878
H	-0.310684	0.879167	0.56884
C	-0.576272	-1.260528	0.59853
H	-0.309798	-2.131873	-0.006439
H	-1.665347	-1.163148	0.639864
H	-0.199072	-1.413495	1.611493
C	0.067091	1.493407	-1.965258
N	0.425019	2.542916	-2.349729
N	-1.770016	-0.006692	-1.875028
H	-2.420512	0.550973	-1.324991
H	-2.0627	-0.961907	-1.717408
Br	-4.486594	0.0	0.0
