18
Coordinates from ORCA-job run
  C   0.50581841450567     -0.21463367398163     -0.43587943056110
  C   -0.91418929631666     -0.28708504642813      0.13631488065063
  F   0.38959504953455     -0.61429450681137     -1.79019742313805
  H   -1.18935798196916     -1.35333106951532      0.14818026771031
  C   1.42372898690117     -1.20791714705010      0.23969839413449
  H   1.48967945323813     -0.98980202326491      1.30507690763228
  H   2.41950342000552     -1.15893366983053     -0.20626637783234
  H   1.03809659566304     -2.22196213685032      0.10926913808833
  C   1.06355042328420      1.19252191469273     -0.43517182143624
  H   0.36571207211237      1.87898846755670     -0.91470109691390
  H   1.24965215526568      1.52624987913410      0.58725127692817
  H   2.00964392338091      1.20565182229172     -0.98036071445392
  N   -1.80474961920402      0.51878961800263     -0.69565014677377
  H   -2.76675217724942      0.33210238326188     -0.43643475215449
  H   -1.68902903774173      0.24767784747115     -1.66564188448274
  N   -0.89946881460954      0.17041445261534      1.51469550675755
  H   -0.99523005001447      1.18048024121417      1.50585530621273
  H   -1.69420351678624     -0.20491735250812      2.01696196963206
