18
Coordinates from ORCA-job run
  C   0.52959808213070      0.07000678355833     -0.35195018320710
  C   -0.82307365123542      0.09915414053469      0.37490238783763
  F   0.28107027349985      0.41709948688350     -1.69188075802491
  H   -0.60367543494366      0.08362573329991      1.45476200093914
  C   1.14977180737934     -1.31245041964348     -0.36917205452623
  H   2.13353861529986     -1.27117834916968     -0.84071724290955
  H   0.52102973003406     -1.99084410796015     -0.94595156460159
  H   1.27235441638098     -1.70103823101906      0.64614249174629
  C   1.46854177288018      1.11774889645779      0.21023379893090
  H   0.97550809267746      2.08882357789605      0.21473683218241
  H   1.76518027493285      0.86399506081284      1.23116680287379
  H   2.36704200795877      1.17000447807771     -0.40832501806367
  N   -1.65031398303548     -1.03821044106595     -0.04556429020767
  H   -1.30559831592616     -1.90093989568518      0.36171024073686
  H   -2.58964531649455     -0.89979167970362      0.30951620127345
  N   -1.46481479954131      1.36317057959676      0.09011372518326
  H   -2.30218406513975      1.47159435133703      0.64872293263190
  H   -1.72432950685771      1.37023003579250     -0.88944630279492
