18
Coordinates from ORCA-job run
  C   0.49973249551315      0.00616897971367     -0.49232890013970
  C   -0.92972629265450      0.26900833132256     -0.00583133197360
  F   0.38064309948744     -0.29707804861734     -1.87120682351363
  H   -1.26043933191205      1.19437792806168     -0.50287310912687
  C   1.13035734533526     -1.19788157102632      0.17359952008852
  H   0.47768077771806     -2.06652023615295      0.08630646061723
  H   1.31596924187656     -0.99335252449406      1.22959872606431
  H   2.08527461090087     -1.41809464129471     -0.30822988007000
  C   1.35515232718262      1.24821821206460     -0.38627168976293
  H   1.42058082827381      1.56820939556045      0.65309946671397
  H   2.35702209683334      1.04496868968790     -0.77071652267315
  H   0.91712439175989      2.05567624407062     -0.97802172386341
  N   -0.90991423180897      0.52950014310696      1.42290117346214
  H   -0.94966164264742     -0.36496617500100      1.90029141046909
  H   -1.73200211307046      1.05422292855320      1.69438886338194
  N   -1.76543170912990     -0.88266431528839     -0.33787663854861
  H   -1.65226941025299     -1.10265739622131     -1.32105369977260
  H   -2.73909248340471     -0.64513594404556     -0.18577530135270
