18
Coordinates from ORCA-job run
  C   0.52110052503241     -0.27946956284884     -0.46835563563336
  C   -0.94553378186727     -0.27364423476477     -0.01685688620833
  F   0.53945344348676     -0.95263231691366     -1.69945084910972
  H   -1.30859831298447     -1.29904832924132     -0.18625853515080
  C   1.39653363107301     -1.08743235242797      0.47191481863306
  H   1.55175351795956     -0.56486709568377      1.41709721978864
  H   0.95369684908078     -2.06898168894839      0.66602635292724
  H   2.36908434080918     -1.24641190258156      0.00229546878400
  C   1.06271072775166      1.11349248420595     -0.70095299104913
  H   0.95771405382108      1.71491059124529      0.20409522356660
  H   0.51625296926789      1.58220653869056     -1.51936629696295
  H   2.11900337951075      1.06329362048737     -0.97394818397998
  N   -1.73413068592897      0.59752902676791     -0.86143572996268
  H   -2.70929348760293      0.32890312271734     -0.83841892962886
  H   -1.65736722860849      1.54986532251041     -0.52223903536224
  N   -1.01588343241641      0.14549012174772      1.38855862834202
  H   -1.99282554448127      0.24117664527649      1.64279951669466
  H   -0.62267096390328     -0.56637999023876      1.99449584431184
