18
Coordinates from ORCA-job run
  C   0.45467689301681      0.04290434783491     -0.31610790896269
  C   -0.83424494889294      0.07496911402168      0.52180204387556
  F   0.04326210695625      0.26627478779717     -1.65561630069663
  H   -0.54845546635655     -0.09352429757661      1.56718988619889
  C   1.12654651401813     -1.31434449415515     -0.29290028041413
  H   2.03333822269181     -1.28980846008811     -0.90014987594277
  H   1.40158400650534     -1.58972503711744      0.72872015594757
  H   0.46728243764462     -2.08101977878201     -0.70035757362317
  C   1.41355310317152      1.15573563192617      0.05055948509735
  H   2.28717445772212      1.12356346452949     -0.60463389315032
  H   0.92539860566599      2.12382411133082     -0.03838051398700
  H   1.74807062232200      1.03745520901382      1.08437898388728
  N   -1.80597351561885     -0.96175602955360      0.17677887723581
  H   -1.90778345135977     -0.99985271838772     -0.83198421534838
  H   -1.50090732098446     -1.87332611075509      0.49622406264725
  N   -1.41449884146146      1.40181449798124      0.42163044530321
  H   -1.55892441725577      1.61118515667256     -0.56082153914485
  H   -2.33009900778477      1.36563060530788      0.85466816107702
