16
Coordinates from ORCA-job run
  C   0.83578995585435     -0.10607011861650      0.93399764186917
  C   -0.57030318570273      0.10137479664125      0.37361178744838
  Br  1.44534727292767      1.35001118484035      2.04553747778879
  H   -1.20027567106057      0.22454529208051      1.26297963444181
  H   0.88711259770254     -1.00601466606253      1.54380585391983
  N   1.81334661794621     -0.34460515659344     -0.18757015596575
  O   2.07550675853083     -1.52737773750865     -0.40376470627773
  O   2.21387796738525      0.61552346716704     -0.83375127673561
  C   -1.02003234289474     -1.16113754429209     -0.36571804524118
  H   -0.89622899374586     -2.05862830663411      0.24505564516389
  H   -0.45685683824660     -1.30391577384625     -1.29081067590737
  H   -2.07640448772002     -1.07203772581550     -0.62901744938634
  C   -0.72408711359603      1.33967718637771     -0.50411604837265
  H   -0.15891462577386      1.24146898368909     -1.43238256710197
  H   -1.77863848144736      1.46460320169009     -0.76138581705391
  H   -0.38923943015907      2.24458291688303      0.00352870141064
