16
Coordinates from ORCA-job run
  C   0.88613681115051     -0.30698832085687      0.70281188061434
  C   -0.28521912198498     -0.29418587975141     -0.27751979363078
  Br  0.58737215311431      0.70922119686953      2.31157813798340
  H   0.04778310525087     -0.94917217073150     -1.09269459561937
  H   1.13110353205463     -1.32348679973877      1.00867315587786
  N   2.11810501676120      0.18479446782720     -0.02849596931819
  O   2.50446703087548      1.33502236034091      0.11906079902620
  O   2.59222844637447     -0.65173578724332     -0.79458424026803
  C   -0.56602660680008      1.09225825960465     -0.84667886575758
  H   -0.84442268865409      1.79175513216623     -0.05574291372126
  H   0.29471472250515      1.50352981155613     -1.37746828697581
  H   -1.39575674390752      1.03320454751793     -1.55485586209397
  C   -1.52729303499083     -0.91358764762042      0.35640617515063
  H   -1.93894970215175     -0.26499946134381      1.13169161625389
  H   -2.29511045170326     -1.05857441280214     -0.40712147065420
  H   -1.30913246789409     -1.88705529579433      0.80394023313287
