16
Coordinates from ORCA-job run
  C   0.96626056302956     -0.52001234660968      0.31197165307327
  C   -0.43602692611013      0.06679550235348      0.28390657816674
  Br  1.32263945482016     -1.59824390498237      1.87722419495121
  H   -0.57255519041767      0.61530249645916      1.22180336229083
  H   1.18020408297066     -1.13542242003374     -0.56129867907718
  N   1.97262340746184      0.59774068374541      0.27041807517015
  O   2.69192647206800      0.63876282353461     -0.72547649244184
  O   1.95416701183662      1.40777474497361      1.18863480824763
  C   -1.47963881220671     -1.04107876894573      0.17395266137064
  H   -1.33684914853353     -1.61590833771465     -0.74633721234219
  H   -1.43913992868522     -1.72853749028727      1.01918969411942
  H   -2.48011795160568     -0.60411261259227      0.14190610525113
  C   -0.55416056849294      1.04328125279973     -0.88947113055222
  H   0.10109374210988      1.90840855315276     -0.77392801934561
  H   -1.57971044413438      1.41296972967953     -0.95452162805929
  H   -0.31271576411045      0.55228009446742     -1.83697397082269
