16
Coordinates from ORCA-job run
  C   0.88408955363984     -0.29628329471917      0.71085758360612
  C   -0.28378023156999     -0.29858121388292     -0.27421845142640
  Br  0.57851830193988      0.74238943872924      2.30340983026241
  H   0.05250125464646     -0.96582888056646     -1.07799902141703
  H   1.12819912674983     -1.30862808367669      1.03084788058586
  N   2.11800501766991      0.18614463507564     -0.02312836919804
  O   2.50083716409239      1.33965616163664      0.10730501969696
  O   2.59650383986657     -0.66120584995647     -0.77456465022300
  C   -0.56346366801971      1.07891735884577     -0.86494877997568
  H   0.29847389028434      1.48283094150559     -1.39944182699794
  H   -1.39131151738359      1.00910037333382     -1.57435273922792
  H   -0.84415431586149      1.78995014596775     -0.08516324703105
  C   -1.52787915096599     -0.90882549715028      0.36478998885251
  H   -1.31039863999105     -1.87355041238616      0.83119645806469
  H   -2.29166176097568     -1.06905832434719     -0.39974972992099
  H   -1.94447886412173     -0.24702749840911      1.12616005434950
