16
Coordinates from ORCA-job run
  C   0.83847054212676     -0.09623375485742      0.93235385689509
  C   -0.57023768811365      0.09872711600351      0.37415067786769
  Br  1.43884021764805      1.36823208221365      2.03789407356843
  H   -1.19885327806181      0.22123895728630      1.26456800866390
  H   0.89739168357408     -0.99373868742855      1.54506452041001
  N   1.81585257322886     -0.33090764644640     -0.19009407993067
  O   2.20768248455970      0.63022416155692     -0.84008630379748
  O   2.08759102548373     -1.51223405855049     -0.40237533253403
  C   -1.01259704112284     -1.17054782109647     -0.35814239131146
  H   -0.44952837906162     -1.31482164960735     -1.28306231499393
  H   -2.06982345316314     -1.08949625063397     -0.62064809873486
  H   -0.88248269597808     -2.06392486483414      0.25735527291277
  C   -0.73476356056233      1.33159081019937     -0.50909364270115
  H   -0.17199190524445      1.23219796946835     -1.43872094394214
  H   -1.79088367718266      1.44843807323483     -0.76366538882787
  H   -0.40366684813060      2.24125556349184     -0.00749791354429
