15

C	0.0	0.0	0.0
C	-0.483774	-0.100301	-1.49139
Cl	1.764282	0.0	0.0
H	-0.090511	0.824859	-1.93486
C	-0.484453	1.226588	0.615112
N	-0.804952	2.271302	1.048151
N	-0.459755	-1.19196	0.843807
O	-0.380782	-1.048345	2.054775
O	-0.811852	-2.189531	0.232071
N	-1.87998	-0.176193	-1.749815
H	-2.419972	0.599926	-1.375937
H	-2.315528	-1.002547	-1.359183
C	0.21919	-1.206635	-2.166494
N	0.772921	-2.054361	-2.760646
Br	-4.568313	0.0	0.0
