15

C	0.0	0.0	0.0
C	-0.374279	-0.025554	-1.58466
Cl	1.749439	0.0	0.0
H	-1.440653	0.081653	-1.71133
C	-0.49315	1.145513	0.738737
N	-0.642736	2.066929	1.467915
N	-0.355384	-1.511186	0.628494
O	0.335719	-1.741714	1.644548
O	-1.212165	-2.270896	0.333959
N	0.011037	-1.288087	-2.175782
H	0.588748	-1.182889	-2.996108
H	-0.852339	-1.765397	-2.405926
C	0.125007	1.190295	-2.24006
N	0.412559	2.234558	-2.712936
Br	-2.82806	0.0	0.0
