15

C	-0.280092	0.165232	-1.476597
C	0.0	0.0	0.0
Br	-2.23427	0.493922	-1.860255
H	1.109202	0.0	0.0
N	0.470746	1.32294	-1.860789
H	1.421243	1.190022	-1.481972
H	0.514165	1.394239	-2.871202
C	0.050271	-1.022203	-2.285916
N	0.360622	-1.836271	-3.07858
N	-0.448766	-1.230778	0.626456
O	-0.360267	-1.281789	1.857309
O	-0.778474	-2.173488	-0.098464
C	-0.389231	1.154284	0.774603
N	-0.643255	2.109969	1.412122
H	2.394734	0.0	0.0
