15

C	-0.25836	0.217978	-1.47471
C	0.0	0.0	0.0
Br	-2.207255	0.457824	-1.88825
H	1.104397	0.0	0.0
N	0.439701	1.433404	-1.788064
H	0.476226	1.564692	-2.79288
H	1.39635	1.314899	-1.425244
C	0.16516	-0.903983	-2.328857
N	0.555739	-1.650383	-3.150836
N	-0.438208	-1.268201	0.561197
O	-0.656479	-2.203257	-0.21734
O	-0.44245	-1.35763	1.793388
C	-0.439164	1.107389	0.814049
N	-0.747215	2.018893	1.490409
H	2.40099	0.0	0.0
