15

C	-0.237049	0.229484	-1.487597
C	0.0	0.0	0.0
Br	-2.178726	0.331567	-1.907506
H	1.109034	0.0	0.0
N	0.383512	1.466748	-1.911317
H	-0.020912	2.229417	-1.376749
H	1.368385	1.381116	-1.634292
C	0.318327	-0.842838	-2.321151
N	0.785486	-1.601501	-3.086784
N	-0.447499	-1.255716	0.564342
O	-0.512936	-1.327408	1.79764
O	-0.614207	-2.205394	-0.212147
C	-0.44193	1.120338	0.790048
N	-0.743953	2.099675	1.36963
H	2.375455	0.0	0.0
