15

C	-0.259506	-0.136084	-1.507569
C	0.0	0.0	0.0
Br	-0.184992	1.840814	-2.254865
H	1.109502	0.0	0.0
N	0.734707	-0.932056	-2.038776
H	0.742019	-0.995865	-3.045644
H	1.645739	-0.70985	-1.611109
C	-1.610664	-0.52952	-1.903303
N	-2.688992	-0.860346	-2.236712
N	-0.357126	-1.230373	0.747275
O	-0.213028	-1.16703	1.968419
O	-0.67536	-2.241303	0.119954
C	-0.554474	1.139916	0.683682
N	-0.965671	2.058841	1.293482
H	2.472876	0.0	0.0
