15

C	-0.256274	0.158862	-1.491859
C	0.0	0.0	0.0
Br	-2.203176	0.346205	-1.875197
H	1.109171	0.0	0.0
N	0.418047	1.337541	-1.992833
H	1.399129	1.221503	-1.711962
H	0.055139	2.149099	-1.500854
C	0.211998	-0.985521	-2.282461
N	0.592595	-1.823119	-3.013685
N	-0.463248	-1.214408	0.641028
O	-0.507124	-1.215303	1.877018
O	-0.666911	-2.201506	-0.07611
C	-0.404054	1.168459	0.741558
N	-0.65201	2.174528	1.300382
H	2.383326	0.0	0.0
