15

C	-0.246472	-0.10029	-1.489454
C	0.0	0.0	0.0
Br	-2.197076	-0.046215	-1.950503
H	1.109083	0.0	0.0
N	0.397791	1.057732	-2.046007
H	1.35685	1.051606	-1.675248
H	0.433482	0.981841	-3.056089
C	0.245767	-1.349234	-2.09372
N	0.696161	-2.218948	-2.746675
N	-0.425853	-1.133985	0.802814
O	-0.544266	-2.227091	0.23731
O	-0.518826	-0.955905	2.021919
C	-0.468503	1.24259	0.561688
N	-0.809261	2.264637	1.033523
H	2.390456	0.0	0.0
