15

C	-0.259234	-0.150521	-1.482708
C	0.0	0.0	0.0
Br	-2.211575	-0.006442	-1.935575
H	1.10911	0.0	0.0
N	0.443948	0.944451	-2.088511
H	1.396659	0.924023	-1.699955
H	0.490066	0.819563	-3.093266
C	0.147815	-1.450471	-2.041161
N	0.507337	-2.37648	-2.672009
N	-0.443634	-1.085726	0.857876
O	-0.631511	-2.192523	0.339823
O	-0.484323	-0.858984	2.07118
C	-0.425107	1.281477	0.510132
N	-0.700315	2.346679	0.92679
H	2.393773	0.0	0.0
