9
Coordinates from ORCA-job run
  C   1.22849707485735     -0.45006929693356      0.17631301860844
  C   -0.00959077030409      0.07132278672477      0.05281766767048
  H   2.07635983262123      0.18909615523196      0.37874205385527
  H   1.39352847603687     -1.51951130141447      0.10265354874081
  C   -0.18910314764242      1.49728887404520      0.15817923642150
  N   -0.34849256245368      2.66026558134943      0.21943510063292
  N   -1.19812827102816     -0.64722874966336     -0.08155415076635
  H   -1.05792241226650     -1.60862486266157     -0.35458861590708
  H   -1.89514821982059     -0.19153918667840     -0.65099785925598
