9
Coordinates from ORCA-job run
  C   1.26031420542586     -0.37923349265776      0.09961274725563
  C   -0.00043496422646      0.07935665754755     -0.04151952575085
  H   2.08118398819991      0.30668806564152      0.25404335454979
  H   1.47859104052884     -1.43959446205417      0.03582595672069
  C   -0.25074771676720      1.49560684752205      0.04937464048854
  N   -0.47322143656584      2.64599672610507      0.14339365034227
  N   -1.12403253555632     -0.68184381219343     -0.36710789478629
  H   -0.99098615566293     -1.67264767909092     -0.22712314620010
  H   -1.98066642537587     -0.35432885081993      0.05350021738032
