9
Coordinates from ORCA-job run
  C   1.26066396377048     -0.34994410336238     -0.17959232108370
  C   -0.00599613570535      0.08636568594894     -0.02039853310876
  H   2.09665427348111      0.30929709699201      0.00743954409411
  H   1.46517190819492     -1.35839420252807     -0.52219737554656
  C   -0.23691621315963      1.43402778944814      0.43471949834638
  N   -0.44305085456539      2.52348505380878      0.82502934386361
  N   -1.16817293264509     -0.61523565240890     -0.34443506346972
  H   -1.01860597244313     -1.60623465710388     -0.46472746995618
  H   -1.94974803692791     -0.42336701079466      0.26416237686082
