9
Coordinates from ORCA-job run
  C   1.24809599228820     -0.41641610441172      0.11281293169517
  C   -0.01673501593842      0.05112891608601      0.07092368590428
  H   2.03880594748027      0.17599340237947      0.55131289732029
  H   1.49199892332182     -1.40250686139627     -0.26708549188482
  C   -0.30124479654619      1.36591393992602      0.58770027986940
  N   -0.54714107194283      2.44425654289325      0.98577099926164
  N   -1.14476030664805     -0.65471507897327     -0.35008388803399
  H   -1.84449638268384     -0.08436120515266     -0.80077601186174
  H   -0.92452328933095     -1.47829355135083     -0.89057540227024
