9
Coordinates from ORCA-job run
  C   1.25291566856225     -0.37765360332097      0.17406113510508
  C   0.00107234841663      0.08831757880080     -0.01422440154035
  H   1.54037011322855     -1.36273049711072     -0.17667674518173
  H   2.00091496866993      0.23483331273606      0.65762617827910
  C   -0.34343947576495      1.40251788259942      0.46584136654171
  N   -0.64634416707499      2.46323597765925      0.87202298343817
  N   -1.01609257771525     -0.54523172794567     -0.72971300917330
  H   -0.84661459578309     -1.52850504924361     -0.88190422671844
  H   -1.94278228253907     -0.37478387417454     -0.36903328075023
