9
Coordinates from ORCA-job run
  C   1.22822714945311     -0.43522412084767      0.21120396455883
  C   0.00518919565109      0.08831303023054     -0.01245940949548
  H   1.98406400113581      0.13665935873561      0.73098287215544
  H   1.48639631866999     -1.42498845201359     -0.14975045522332
  C   -0.29931392447463      1.40735334579200      0.48146520627539
  N   -0.56910213805065      2.47323514686863      0.89724022355215
  N   -1.01215649931553     -0.48720798162819     -0.77538566456038
  H   -0.87961894275655     -1.47407301423413     -0.94077382088369
  H   -1.94268516031264     -0.28306731290319     -0.44352291637892
