9
Coordinates from ORCA-job run
  C   1.26640697320780     -0.35683146235159     -0.10917585077879
  C   -0.00567223568676      0.05497663034494      0.06995841158515
  H   2.09427651435672      0.29561250361513      0.13027534079978
  H   1.48394357889831     -1.35678373445309     -0.46851246009316
  C   -0.25431006391222      1.39047365821470      0.55080219721036
  N   -0.47335781289222      2.48436356817211      0.92118901662465
  N   -1.15416489169774     -0.72400261285153     -0.07799652890835
  H   -0.99865123536520     -1.57245003474653     -0.60222142553850
  H   -1.95747082690870     -0.21535851594416     -0.41531870090114
