9
Coordinates from ORCA-job run
  C   1.22309181544186     -0.45367992196755      0.19816942302363
  C   0.00684932326671      0.08015336798063     -0.03758470895926
  H   2.06027284962497      0.17989154628732      0.45536020926708
  H   1.39126979775256     -1.52162029382578      0.11029787229802
  C   -0.17415593476109      1.50406642443893      0.08854733815459
  N   -0.34016556496697      2.66151832198812      0.20966247112163
  N   -1.12001952497514     -0.60342331256372     -0.49627161446033
  H   -1.05444761622724     -1.60453249299024     -0.38523703916761
  H   -1.99369514515567     -0.24237363934771     -0.14394395127775
