9
Coordinates from ORCA-job run
  C   1.25616746139571     -0.38226068095707     -0.12880507192157
  C   -0.00466905887826      0.05342712790029      0.07110398373774
  H   2.10013071326054      0.24740249774007      0.11615604284719
  H   1.44905833595348     -1.37789031947228     -0.51353984634424
  C   -0.21769470302134      1.38252696579912      0.58507648824259
  N   -0.40607257691633      2.47242557105752      0.98319447830434
  N   -1.17146785288397     -0.69654300218299     -0.08292600389907
  H   -1.96605438722735     -0.16292949157614     -0.40183895305609
  H   -1.03939793168249     -1.53615866830852     -0.62742111791089
