9
Coordinates from ORCA-job run
  C   1.22452835183780     -0.44130107125255      0.21880856141412
  C   -0.01211956182683      0.07121068436119      0.05215394120264
  H   1.39885644857444     -1.50999115523295      0.15889994508365
  H   2.06168547475758      0.20519213041117      0.44187344816867
  C   -0.20277094318787      1.49671952659199      0.14123494376778
  N   -0.36968316001205      2.65939049385176      0.18824781115211
  N   -1.19164734753321     -0.65626461374310     -0.11341046667639
  H   -1.87304147495646     -0.20756283681560     -0.70701938813676
  H   -1.03580778765342     -1.61739315817191     -0.37978879597582
