9
Coordinates from ORCA-job run
  C   1.21980703358576     -0.45408855966494      0.22145383814497
  C   0.00837903700162      0.07780603702565     -0.04220806475834
  H   1.37643466334134     -1.52689372817770      0.19466237664532
  H   2.06495346790637      0.18481449893886      0.43606312057832
  C   -0.15861657792363      1.50843139734265      0.00115498921937
  N   -0.31543945791132      2.67215983115036      0.05510417330552
  N   -1.12724433899842     -0.61974737866446     -0.45597088807220
  H   -1.07132207185606     -1.61341621771312     -0.28780532993270
  H   -1.99595175514565     -0.23006588023731     -0.12245421513027
