9
Coordinates from ORCA-job run
  C   1.24176576318984     -0.43204757625727     -0.11427280084336
  C   -0.00000267450354      0.08668927365919     -0.02033029201799
  H   1.39655930958402     -1.45170296676485     -0.44990903779745
  H   2.10822068738730      0.17064210271596      0.11915497760489
  C   -0.16445048180021      1.44557625275800      0.43014720245947
  N   -0.31462387306306      2.54484025247657      0.81862964727505
  N   -1.18648285243510     -0.53539459293145     -0.41120904051885
  H   -1.98558551832160     -0.29377365415233      0.15536069743681
  H   -1.09640036003765     -1.53382909150381     -0.52857135359859
