9
Coordinates from ORCA-job run
  C   1.19884838974343     -0.50938225654965      0.21411590509297
  C   -0.01932360266535      0.05196477288611      0.06997002300092
  H   1.39851033413699     -1.51144350227949     -0.14936833735032
  H   1.99237741531697      0.02158393582542      0.72082317219725
  C   -0.24541629239744      1.38515580647196      0.56797103994247
  N   -0.43823867468982      2.48016075944631      0.94953469367377
  N   -1.15772340004326     -0.56750371993309     -0.44779924107170
  H   -0.95462769705769     -1.40424599532851     -0.97452271400531
  H   -1.77340647234384      0.05371019946093     -0.95072454148004
