9
Coordinates from ORCA-job run
  C   1.26628165077932     -0.34475489089782      0.14069057503805
  C   -0.02193625775036      0.04961413032616      0.07024721588866
  H   1.57531072215062     -1.31279770442682     -0.23826373243623
  H   2.01023381732624      0.28852232306768      0.60317545025746
  C   -0.39292759146434      1.34257713469575      0.58695801219543
  N   -0.70534107359915      2.40360026119567      0.98514621063569
  N   -1.09673153199333     -0.71733894629323     -0.38137784737963
  H   -1.81780342623366     -0.18608685790058     -0.84600449562660
  H   -0.81708630921535     -1.52433544976681     -0.91957138857283
