9
Coordinates from ORCA-job run
  C   1.28400937990651     -0.30029765298368     -0.06101643541914
  C   -0.00586346136678      0.08899483350463      0.00322419918700
  H   1.57415814301128     -1.17673644100663     -0.63017888178586
  H   2.05685535076003      0.27318971992096      0.43103518349403
  C   -0.35330925257869      1.25998785907854      0.76799687833543
  N   -0.65491535918884      2.19950227555195      1.40688405719507
  N   -1.07593312022250     -0.48247788970292     -0.68688643626368
  H   -1.95076316998522     -0.46021382725979     -0.18465383875631
  H   -0.87423851033578     -1.40394887710305     -1.04640472598654
