9
Coordinates from ORCA-job run
  C   1.24735909979891     -0.38969987642718      0.18510395918703
  C   -0.01116677094801      0.07558356308305      0.04680440633278
  H   2.07592367316810      0.29339904048186      0.30852217719648
  H   1.44885168154650     -1.45520290322662      0.20475469997338
  C   -0.24032628429998      1.49820844276477      0.02672449417723
  N   -0.44003713595131      2.65588890834306     -0.01479760742800
  N   -1.17577219754174     -0.69260809576554      0.00911195930787
  H   -1.00549380742151     -1.66894342483145     -0.18294565444615
  H   -1.90033825835096     -0.31562565442195     -0.58327843430063
