16

C	-0.471303	0.020955	-1.460629
C	0.0	0.0	0.0
Cl	-0.150492	-1.588021	-2.200937
H	1.088989	0.0	0.0
H	-0.363457	0.917192	0.46952
C	-1.949116	0.319069	-1.622042
H	-2.556062	-0.43403	-1.121056
H	-2.177225	1.292362	-1.175418
H	-2.192819	0.345594	-2.684656
N	0.317525	0.988832	-2.197923
H	0.114715	1.911213	-1.823365
H	1.304831	0.80466	-2.015951
N	-0.575977	-1.104935	0.800403
O	0.075602	-2.133743	0.945572
O	-1.71181	-0.920372	1.258729
Cl	3.371903	0.0	0.0
