16

C	-0.534974	-0.124351	-1.440721
C	0.0	0.0	0.0
Cl	-0.536846	1.579711	-2.061858
H	1.087773	0.0	0.0
H	-0.396596	0.876886	0.505847
C	0.3908	-0.934955	-2.325746
H	0.417285	-1.965438	-1.9682
H	0.025415	-0.906448	-3.353231
H	1.402883	-0.535118	-2.261739
N	-1.893861	-0.607922	-1.560411
H	-2.495106	-0.132912	-0.89531
H	-1.895696	-1.598778	-1.344875
N	-0.451912	-1.155911	0.813948
O	-0.2542	-2.290142	0.376758
O	-1.02566	-0.916713	1.878914
Cl	3.357031	0.0	0.0
