16

C	-0.443779	-0.110803	-1.469545
C	0.0	0.0	0.0
Cl	-0.29899	-1.879682	-1.838921
H	1.090239	0.0	0.0
H	-0.415987	-0.775675	0.636678
C	-1.893749	0.284958	-1.694048
H	-2.555705	-0.269684	-1.024702
H	-2.01873	1.356477	-1.512621
H	-2.162304	0.071808	-2.728552
N	0.416376	0.581428	-2.40048
H	1.38192	0.341544	-2.176029
H	0.326655	1.570827	-2.184597
N	-0.453973	1.28829	0.579848
O	-0.188491	2.324771	-0.030957
O	-1.085672	1.251326	1.636679
Cl	3.330138	0.0	0.0
