16

C	-0.473758	0.016147	-1.451756
C	0.0	0.0	0.0
Cl	-0.133101	-1.658751	-2.182162
H	1.088871	0.0	0.0
H	-0.375811	0.906812	0.47558
C	-1.962098	0.247923	-1.639192
H	-2.235074	1.199204	-1.176888
H	-2.541267	-0.549984	-1.179586
H	-2.198757	0.286428	-2.705096
N	0.291993	1.039718	-2.071127
H	1.285461	0.896293	-1.90336
H	0.119809	1.067388	-3.066814
N	-0.552795	-1.129362	0.783417
O	-1.731015	-1.015232	1.151953
O	0.164044	-2.097531	1.019452
Cl	3.398012	0.0	0.0
