14
Coordinates from ORCA-job run
  C   0.61267385205169     -0.52752204274864     -0.10261536543565
  C   -0.72518779591071      0.19725357670733     -0.23869602775250
  Br  0.61039153414958     -1.59229747326414      1.52619998641842
  H   -0.73929738077259      0.70758670957352     -1.20870102997830
  H   0.67777472021203     -1.24242868431784     -0.92380555063966
  C   1.77797028441987      0.44394251842691     -0.10813778126836
  H   1.73080905712630      1.12095993623243      0.74632936157662
  H   2.71992669924830     -0.10315716174057     -0.06199280627368
  H   1.76654639303733      1.03463711396040     -1.02963520753627
  C   -0.96937018636616      1.15947030233927      0.82696844555354
  N   -1.10681412984121      1.97983458096895      1.65589907561366
  N   -1.85409766395449     -0.81277441773782     -0.32686752637183
  O   -1.74822903092951     -1.60842317411058     -1.25272907899334
  O   -2.75309635247045     -0.75708178428921      0.49978350508734
