14
Coordinates from ORCA-job run
  C   0.62974555048469     -0.34280334396523     -0.64745376160521
  C   -0.83594082975948      0.10232590691748     -0.52365691575328
  Br  0.67428441010334     -2.26705714413292     -0.95562002970152
  H   -1.40349166927224     -0.23021034173951     -1.39449633491562
  H   0.99531248041315      0.10136774119888     -1.57662174933820
  C   1.53204450399434      0.03758588270071      0.51180451455354
  H   1.48382298811501      1.11540195601447      0.68715618913904
  H   2.56062837447401     -0.22940962082746      0.26664736658629
  H   1.24653465881553     -0.47671375306855      1.42767622170634
  C   -0.91280189223397      1.55340738366225     -0.38335394367316
  N   -0.93972046833827      2.72204511433256     -0.26952462012419
  N   -1.51683564175638     -0.53645914667598      0.66598543883849
  O   -1.17817514577614     -0.13642163598764      1.77487092369410
  O   -2.33640731926357     -1.41205899842904      0.41558670059339
