14
Coordinates from ORCA-job run
  C   0.61487421398314     -0.52623524692785     -0.09477698665394
  C   -0.72871862374782      0.18644093984861     -0.23651569246389
  Br  0.63558181188037     -1.54692656930147      1.56187462903857
  H   -0.75612340382002      0.67090677521850     -1.21946398219227
  H   0.67638275546741     -1.26262471928915     -0.89701746529067
  C   1.77392919300837      0.45172754764471     -0.13817494379242
  H   1.73145642639389      1.15052521975543      0.69883660745353
  H   2.71976605662767     -0.08831880163000     -0.08790632733815
  H   1.74896791068945      1.01804822154306     -1.07462741794754
  C   -0.96850711013487      1.17551010232851      0.80536882898173
  N   -1.10265272698257      2.01667564723341      1.61358000527334
  N   -1.85216472292239     -0.83228906301259     -0.28650137031313
  O   -1.75043290195134     -1.65142458367386     -1.19219373689553
  O   -2.74335887849129     -0.76001546973733      0.54751785214038
