14
Coordinates from ORCA-job run
  C   0.70735145797146     -0.34054526998249     -0.55869581144509
  C   -0.79768094777260     -0.03145131273733     -0.58467394581006
  Br  0.95025478434611     -2.27162681470555     -0.65863531774234
  H   -1.26153206536051     -0.49812087999789     -1.45550916558379
  H   1.10375694292798      0.04378647748053     -1.50157286746572
  C   1.47618024725280      0.23881183097983      0.61412543136799
  H   2.54047556412948      0.04603890474395      0.47484964955334
  H   1.32162255619767      1.31953972542287      0.66681816080948
  H   1.16175769461481     -0.20366229239654      1.55754499441925
  C   -1.01674253558862      1.41190946306028     -0.60174905976797
  N   -1.15456638577941      2.57700347633811     -0.65741025460676
  N   -1.51006366189229     -0.61814012501895      0.61297060363788
  O   -1.30186533429486     -0.07965055984565      1.69513060586752
  O   -2.21894831675202     -1.59389262334117      0.39780697676627
