14
Coordinates from ORCA-job run
  C   0.63930465417269     -0.48158254143524     -0.15344185589240
  C   -0.74540947371155      0.16195931824038     -0.20056437097839
  Br  0.77015644907185     -1.62415521367236      1.41634528704162
  H   -0.83121677586681      0.71712408945070     -1.14179431844087
  H   0.71433465299065     -1.14908614398337     -1.01281234373716
  C   1.74094399755471      0.56154681526915     -0.15237408354399
  H   1.65291499198445      1.19801477789565     -1.03873734439958
  H   1.68910167077394      1.18844337392124      0.73934513449945
  H   2.71604117813143      0.07414603938068     -0.17421399738381
  C   -1.00455866051806      1.05332984880232      0.92159188708495
  N   -1.15800169613697      1.82167077083114      1.79620685781021
  N   -1.81192748961844     -0.91286270767665     -0.29754253494750
  O   -1.69642174284605     -1.65200736866567     -1.26800608465700
  O   -2.67626175598184     -0.95754105835797      0.56599776754446
