14
Coordinates from ORCA-job run
  C   0.72728728646793      0.39001341166728     -0.28174459947859
  C   -0.73082152835496     -0.02883659643025     -0.49533017065677
  Br  1.53722350382895      0.54388422588198     -2.04643172721194
  H   -0.78757716108298     -0.98205318858415     -1.02423222680812
  H   0.74440619491346      1.39264876135078      0.14802403686347
  C   1.49386353013066     -0.59862704690146      0.57649385022631
  H   2.54269394048575     -0.30657034188434      0.63189411854721
  H   1.43542071811532     -1.60733714226945      0.16260197828033
  H   1.09251810531485     -0.60804255011582      1.59314140377031
  C   -1.52115461784952      0.99159156532116     -1.17387906145124
  N   -2.15865937975286      1.81408562817471     -1.71796940330807
  N   -1.33175928815112     -0.27332520689057      0.87281764073360
  O   -1.44424618958105      0.70857297804599      1.59789867226822
  O   -1.59819511448443     -1.43600449736587      1.15571548822530
