14
Coordinates from ORCA-job run
  C   0.64369672254077     -0.49956207295257     -0.04389802691894
  C   -0.73585375046732      0.12242552810900     -0.25027276266768
  Br  0.71523126277446     -1.35109691438359      1.70446096562753
  H   -0.78640975918012      0.50892201398045     -1.27480606774466
  H   0.74718118834699     -1.30646939515716     -0.77040604757553
  C   1.74807692085416      0.53099928154373     -0.18575843538829
  H   2.72184242736284      0.05063563308776     -0.08673871134621
  H   1.69407102318319      1.00188028610048     -1.17246529583484
  H   1.66622428006683      1.30415027890940      0.57993637784666
  C   -1.03259537802478      1.19276385792462      0.69201799205004
  N   -1.22835085570947      2.10321861850560      1.40723521555645
  N   -1.80241941811470     -0.95555617155362     -0.19999073926023
  O   -2.69870528503126     -0.85251052554087      0.62520147187672
  O   -1.65398937860159     -1.85080041857321     -1.02351593622103
