15
Coordinates from ORCA-job run
  C   0.73898113542815     -0.73425811482598      0.51661720976469
  C   -0.50947977437255      0.12831107438305      0.33014946888804
  Cl  0.92437777976146     -1.28624966586440      2.17539360529770
  H   -0.49254205827804      0.87154566654051      1.13256639873198
  H   0.72964581141475     -1.60289485611692     -0.13987687216922
  N   1.94496457844913      0.06846726570509      0.11707336227638
  O   2.50831829367033     -0.27758940924507     -0.91932574709253
  O   2.22240793716446      1.04379373298455      0.80522849623038
  N   -1.65813369178619     -0.74635692374844      0.52498782880053
  H   -1.97558454483487     -1.11250417051503     -0.36446721482594
  H   -2.42509679947034     -0.24169888993385      0.94669779609761
  C   -0.49371965065420      0.83817151858831     -1.02315080606726
  H   0.32614162614702      1.55285453704019     -1.11392399545739
  H   -0.40965252942049      0.11510864183849     -1.84052892225666
  H   -1.43062811321860      1.38529959316949     -1.14644060821829
