15
Coordinates from ORCA-job run
  C   1.05203515287322      0.11324255634025      0.29984665089855
  C   -0.46456369971111      0.02868018697352      0.15820775126691
  Cl  1.85001623458330      0.64073761216010     -1.17633706849944
  H   -0.81292762488661     -0.29112040370457      1.14509426914341
  H   1.34218749694313      0.78700765393266      1.10571062150336
  N   1.54749155596584     -1.25574436532418      0.72889550370704
  O   1.17987641589539     -1.56042487517151      1.86003807062810
  O   2.21614442285783     -1.93497054262965     -0.02951766267459
  N   -0.77338787105385     -1.04566188519032     -0.77106580768704
  H   -0.61533320880363     -0.74837354159877     -1.72672929874267
  H   -1.74377419659660     -1.31730970390896     -0.68311395666103
  C   -1.07236194464313      1.39077398474289     -0.16576351679062
  H   -0.76987925888758      2.15397540244975      0.55743978101620
  H   -0.77451915754988      1.72458724261235     -1.16154511372834
  H   -2.16200431698630      1.31560067831645     -0.14316022337986
