15
Coordinates from ORCA-job run
  C   0.70362765336137     -0.74533799071746      0.44699395134293
  C   -0.51726023244779      0.14247257499195      0.24941800144799
  Cl  0.75825912586936     -1.43483799963112      2.07309473631199
  H   -0.49207046066089      0.90192864440766      1.04399436918802
  H   0.72113000113238     -1.55771335280732     -0.27596743916586
  N   1.94295205239010      0.06904321147531      0.21195687222031
  O   2.16692376653572      0.99007832511338      0.98877177469157
  O   2.59162991743810     -0.21428858925794     -0.79290568699408
  N   -1.68338641292115     -0.73189238516307      0.29724223801414
  H   -1.86578312409322     -1.02800546126629      1.24849187717561
  H   -2.49831290447803     -0.22645426207764     -0.02734913934638
  C   -0.45762219436754      0.82649061725565     -1.10928814303932
  H   -1.36216802098116      1.42212090349477     -1.25621788971387
  H   -0.40188915697844      0.08414562988302     -1.90849384379918
  H   0.39396999020118      1.50325013429910     -1.18874167833389
