15
Coordinates from ORCA-job run
  C   0.65015749768016     -0.73247056622064      0.42057335244436
  C   -0.54293878216771      0.22389810115464      0.29349944165911
  Cl  0.73637897318952     -1.47021852469356      2.02314728527294
  H   -0.44569618482173      0.94808068953852      1.10831537286800
  H   0.61870525708592     -1.52842182093598     -0.32248108804468
  N   1.91884010432522      0.02615409381690      0.15403929143337
  O   2.50759932507576     -0.25428219054973     -0.88804019361715
  O   2.21882376731173      0.91066923089516      0.94732899663644
  N   -1.82369430156828     -0.44132697423524      0.43479246530429
  H   -1.89322750236954     -0.92291742100118      1.32224722964110
  H   -1.96117364160383     -1.11629483161442     -0.30885027310264
  C   -0.49413030203505      0.95114457511675     -1.04380417928288
  H   0.38210734590801      1.59417338319202     -1.13317351488061
  H   -0.48346394072688      0.24204891234356     -1.87760540954175
  H   -1.38828761528330      1.56876334319323     -1.12998877678988
