15
Coordinates from ORCA-job run
  C   0.98874081675635      0.08414067545663      0.31828366835320
  C   -0.54070415056900      0.07676778897287      0.11078706842875
  Cl  1.87794446124581      0.45412404911278     -1.15172069702712
  H   -0.94800691544941     -0.21532625525206      1.08634635700930
  H   1.28478578399857      0.78969057426222      1.09298565340727
  N   1.37553054247644     -1.27049536987014      0.85527814702012
  O   1.68342739040793     -2.15969789727844      0.07141628669841
  O   1.24699045755895     -1.38253166237462      2.07243968383311
  N   -1.02835507988416     -0.86278177468805     -0.87284716134281
  H   -0.64786876125550     -0.65053722185097     -1.78718307021626
  H   -0.77906190347036     -1.81699253365568     -0.64462759725708
  C   -1.02954243446946      1.47871437447287     -0.22172716660520
  H   -0.66638339855256      1.79638098873909     -1.20148401085615
  H   -2.11936068939076      1.47263797120611     -0.24693846719944
  H   -0.69513611940283      2.20690629274739      0.52099130575391
