15
Coordinates from ORCA-job run
  C   1.08993118207518      0.08304310879991      0.18267153258241
  C   -0.43990308086785      0.13871763130577      0.15138939220599
  Cl  1.84709732853047      0.35533148433772     -1.36997867758498
  H   -0.73465519502665      0.06077181249791      1.20860864640456
  H   1.48441545318942      0.80272453326575      0.89991805864575
  N   1.46969449412875     -1.27183102186902      0.75020955316381
  O   1.20991216784847     -1.38578178646778      1.94735225094682
  O   1.92237247939032     -2.13987260780314      0.02033371504730
  N   -0.94056686981153     -0.94969373665056     -0.66973499424984
  H   -0.95378755296982     -1.82400539685767     -0.15898735612878
  H   -1.88591732467216     -0.75521958592375     -0.97204980208157
  C   -0.92056583994647      1.47274989997845     -0.39501011711391
  H   -0.71050865110764      1.53989392564862     -1.46300658760282
  H   -1.99906212676734      1.56524164051473     -0.24400494349984
  H   -0.43645646399314      2.30993009922305      0.11228932926509
