15
Coordinates from ORCA-job run
  C   1.07392573161130      0.02641495059220      0.23290377630421
  C   -0.44700567903576      0.12040815729491      0.16632505311370
  Cl  1.83806274382202      0.14613041464566     -1.34745065299586
  H   -0.77044492356163      0.04648076005242      1.20920534089764
  H   1.49579609691839      0.79883448945912      0.87546611171132
  N   1.42174957208450     -1.28734571663621      0.90928333188172
  O   1.09131944330186     -1.31442749155970      2.09146015929496
  O   1.95156665129271     -2.18411089426430      0.27767190942989
  N   -0.94412525653988     -1.06222023003129     -0.51785258914241
  H   -0.80395933276260     -0.98084163766793     -1.51814991479967
  H   -1.93521787560984     -1.17376282006254     -0.34856231043076
  C   -0.89975348354395      1.46339937820617     -0.40023920451585
  H   -1.98686805163831      1.54038221683843     -0.32414901166793
  H   -0.46155867231465      2.30424768619272      0.14558529636448
  H   -0.62448696402416      1.55641073694033     -1.45249729544542
