13

C	0.0	0.0	0.0
C	-0.469269	0.330976	-1.416286
F	1.378873	0.0	0.0
H	-1.567724	0.333273	-1.426952
H	-0.111171	-0.447579	-2.095838
N	-0.49704	0.960173	0.919323
H	-0.301618	0.660733	1.868079
H	-1.516562	0.988597	0.804307
C	-0.341437	-1.420579	0.313995
N	-0.505846	-2.560828	0.544451
C	0.069539	1.618817	-1.843205
N	0.491781	2.645006	-2.223215
Br	-3.666851	0.0	0.0
