13

C	0.0	0.0	0.0
C	-0.476318	0.334146	-1.413248
F	1.379462	0.0	0.0
H	-1.575351	0.337945	-1.417213
H	-0.12684	-0.445275	-2.095918
N	-0.496088	0.955277	0.92522
H	-0.293869	0.652389	1.871333
H	-1.516956	0.977376	0.814911
C	-0.344438	-1.420511	0.312885
N	-0.515611	-2.559145	0.547649
C	0.059212	1.6202	-1.846061
N	0.477263	2.646495	-2.231038
Br	-3.664062	0.0	0.0
