13

C	0.0	0.0	0.0
C	-0.49732	-0.409436	-1.383219
F	1.376804	0.0	0.0
H	-1.589884	-0.51624	-1.32777
H	-0.258948	0.416324	-2.059351
N	-0.490887	1.30215	0.298514
H	-0.292562	1.519912	1.269564
H	-1.51282	1.262228	0.201914
C	-0.343959	-1.044655	1.012435
N	-0.536143	-1.868528	1.826888
C	0.134585	-1.632736	-1.860486
N	0.644396	-2.606401	-2.271557
Br	-3.669308	0.0	0.0
