13

C	0.0	0.0	0.0
C	-0.506011	0.257552	-1.417026
F	1.404236	0.0	0.0
H	-0.111613	-0.504214	-2.093902
H	-1.607927	0.192575	-1.363391
N	-0.52079	0.931209	0.894357
H	-0.414225	0.714272	1.868933
H	-0.373067	1.896656	0.65232
C	-0.362101	-1.373258	0.423916
N	-0.513311	-2.484857	0.768061
C	-0.076669	1.575597	-1.870429
N	0.253915	2.644243	-2.227038
Br	-3.812437	0.0	0.0
