13

C	0.0	0.0	0.0
C	-0.49253	-0.408328	-1.385853
F	1.376796	0.0	0.0
H	-0.251271	0.416051	-2.061932
H	-1.584633	-0.51871	-1.336322
N	-0.493362	1.301009	0.300256
H	-0.30337	1.515148	1.273656
H	-1.514163	1.259654	0.193837
C	-0.342534	-1.047147	1.010322
N	-0.550676	-1.874691	1.817209
C	0.142178	-1.632621	-1.859127
N	0.653788	-2.607314	-2.266601
Br	-3.670263	0.0	0.0
