15
Coordinates from ORCA-job run
  C   0.85102956064568      0.39021441590607      0.01838649079853
  C   -0.42203231451069     -0.34826992071966     -0.42720848599576
  H   1.19699747047417      0.97428596214256     -0.84958111888136
  H   -0.10936242527267     -1.09630120915682     -1.17388710358558
  N   1.84998362163877     -0.53030353574794      0.54371570520010
  H   1.77861382177590     -1.42659211548757      0.07934387049015
  H   2.77843724220204     -0.15859327907163      0.39390061396739
  C   0.49701023522459      1.37115703434391      1.06078737667664
  N   0.23477404938206      2.13401306844647      1.91354583768283
  N   -1.33158579922834      0.65708979307894     -0.97385926587019
  H   -1.00806751356011      0.99957375317904     -1.87083444344748
  H   -2.24763701699080      0.25548268963465     -1.11390641740928
  N   -0.98252945314462     -1.07588775103409      0.67758126987980
  H   -1.70428487353261     -1.71373473496089      0.36770921348217
  H   -1.38234660510337     -0.43413417055306      1.35430645701206
