15
Coordinates from ORCA-job run
  C   0.59681467888490      0.50345900561145      0.37489792440832
  C   -0.47529976993406     -0.48939813420819     -0.11645390406240
  H   0.09424197794921      1.46224643141579      0.55618951459958
  H   -0.12459600397538     -1.50714786340487      0.08875948061696
  N   1.63537994554756      0.72547472981645     -0.62078830555324
  H   2.43006101306137      1.19461159031761     -0.20368808268488
  H   1.94345541609033     -0.15851114747024     -1.00583334216288
  C   1.09978483949057      0.03016027618739      1.67990019675433
  N   1.57928962187784     -0.34101821432295      2.68566882185453
  N   -0.61270300404294     -0.36706728963208     -1.55754236187557
  H   -1.44188223855809     -0.85637009220588     -1.87145710813086
  H   -0.66532779375688      0.60310409589215     -1.84328981832889
  N   -1.64245747664552     -0.28592482784151      0.73097981322824
  H   -2.13564387871107      0.55352382162568      0.44691824309435
  H   -2.28211732727783     -1.06714238178082      0.65673892824241
