15
Coordinates from ORCA-job run
  C   0.67167147518166      0.57470642738398      0.31540388569210
  C   -0.41817862008004     -0.44294894701181     -0.07891115731384
  H   0.25572828899816      1.57885976849724      0.14098938574890
  H   -0.01840956224181     -1.44436239634276      0.11305303056874
  N   1.90953391376924      0.47014563186630     -0.44730319720380
  H   1.64119371079411      0.31441621453637     -1.41383890942828
  H   2.42294733498446     -0.34797324128425     -0.13834386560360
  C   0.96899200198243      0.46942190953564      1.74771148622677
  N   1.25954817045966      0.36002480990544      2.87910240036079
  N   -0.60256744181229     -0.32786419981918     -1.52563323717439
  H   -1.10602042076106     -1.13061310516046     -1.88327960361961
  H   -1.15570253501964      0.49738590765360     -1.73411989614811
  N   -1.56782992399951     -0.25494548686264      0.78391296026653
  H   -2.26795979158933     -0.96775904618442      0.61996023927625
  H   -1.99394660066604      0.65050575328693      0.61929647835155
