19

C	0.0	0.0	0.0
C	-0.567902	-0.031897	-1.417998
Cl	1.805577	0.0	0.0
H	-1.636264	-0.252864	-1.242277
C	-0.484639	1.232394	0.739034
H	-0.079469	2.144397	0.295943
H	-1.583382	1.216593	0.68538
H	-0.173029	1.188297	1.786344
C	-0.461873	-1.251672	0.727549
H	-0.135132	-2.142218	0.189833
H	-1.558748	-1.212228	0.760999
H	-0.059073	-1.268908	1.744447
N	0.01851	-1.105518	-2.195217
H	0.930864	-0.800806	-2.521089
H	-0.56759	-1.286578	-3.002318
N	-0.404807	1.272655	-2.090119
H	-0.741431	1.140384	-3.04049
H	-1.074371	1.909103	-1.663189
H	-3.423196	0.0	0.0
