19

C	0.0	0.0	0.0
C	-0.446786	-0.010103	-1.491257
Cl	1.803971	0.0	0.0
H	0.35929	-0.486547	-2.061082
C	-0.500659	1.208786	0.765463
H	-0.175233	1.146587	1.807737
H	-1.597778	1.186467	0.736227
H	-0.123557	2.132431	0.327097
C	-0.426748	-1.27537	0.715675
H	0.020024	-1.295402	1.714589
H	-1.515959	-1.282151	0.798633
H	-0.110426	-2.160409	0.162273
N	-0.50815	1.381578	-1.982959
H	-0.60818	1.333847	-2.992203
H	-1.382798	1.76948	-1.637056
N	-1.636589	-0.819568	-1.653012
H	-2.423197	-0.480229	-1.049408
H	-1.947077	-0.738801	-2.61693
H	-3.649749	0.0	0.0
