19

C	0.0	0.0	0.0
C	-0.593352	0.100093	-1.405611
Cl	1.792734	0.0	0.0
H	-1.681727	0.087147	-1.199698
C	-0.478972	1.187796	0.821363
H	-1.577147	1.188747	0.787516
H	-0.072	2.123099	0.429622
H	-0.1476	1.084641	1.85862
C	-0.482633	-1.284927	0.65525
H	-1.581036	-1.279179	0.621611
H	-0.076892	-2.161747	0.14456
H	-0.152041	-1.319481	1.697051
N	-0.187632	-1.036284	-2.241488
H	-0.485123	-0.838175	-3.193078
H	-0.756677	-1.825914	-1.95111
N	-0.179496	1.338768	-2.073958
H	-0.745535	2.084115	-1.679694
H	-0.4713	1.27601	-3.044975
H	-3.484629	0.0	0.0
