19

C	0.0	0.0	0.0
C	-0.385529	0.013289	-1.516175
Cl	1.815556	0.0	0.0
H	0.384841	-0.582449	-2.023913
C	-0.519868	1.190417	0.77486
H	-0.220782	1.111973	1.824063
H	-0.13984	2.134092	0.379747
H	-1.616783	1.164225	0.713789
C	-0.44173	-1.294916	0.661912
H	-1.533389	-1.292903	0.724612
H	-0.012743	-1.365117	1.666861
H	-0.122765	-2.158542	0.075177
N	-0.320971	1.342351	-2.142857
H	-1.055964	1.912511	-1.736572
H	0.573265	1.780568	-1.935777
N	-1.658688	-0.622749	-1.717284
H	-2.407107	-0.315494	-1.05319
H	-1.97088	-0.400372	-2.656288
H	-3.64084	0.0	0.0
