19

C	0.0	0.0	0.0
C	-0.367693	-0.045329	-1.512607
Cl	1.81821	0.0	0.0
H	0.260494	-0.851759	-1.930547
C	-0.518375	1.233948	0.702244
H	-0.173777	2.138347	0.204069
H	-1.614427	1.191779	0.663908
H	-0.197586	1.236369	1.748829
C	-0.471647	-1.261924	0.694387
H	-0.142178	-2.155025	0.153261
H	-0.075588	-1.3088	1.71277
H	-1.566218	-1.231199	0.729971
N	-0.063003	1.249262	-2.126658
H	-0.518993	1.231368	-3.030042
H	0.93704	1.34543	-2.257834
N	-1.737681	-0.366669	-1.82785
H	-2.444667	-0.003816	-1.147209
H	-1.859661	-1.371447	-1.777982
H	-3.6811	0.0	0.0
