19

C	0.0	0.0	0.0
C	-0.367414	0.068836	-1.511567
Cl	1.817274	0.0	0.0
H	0.25807	0.883953	-1.916479
C	-0.472304	1.250656	0.714145
H	-1.566955	1.218797	0.749819
H	-0.143387	2.152297	0.18691
H	-0.075795	1.281864	1.733098
C	-0.517735	-1.245265	0.682845
H	-1.613985	-1.202662	0.647261
H	-0.173745	-2.141268	0.169195
H	-0.194927	-1.264953	1.728788
N	-1.73849	0.389991	-1.822068
H	-2.444515	0.016984	-1.146031
H	-1.86384	1.393693	-1.758409
N	-0.057832	-1.214913	-2.146813
H	-0.513384	-1.183199	-3.050093
H	0.942673	-1.305147	-2.278969
H	-3.682287	0.0	0.0
