15
Coordinates from ORCA-job run
  C   0.77770262604317     -0.81636156272699      0.15502129213919
  C   -0.21688344027864      0.20192505563639      0.70357019687762
  Br  2.41588628919459     -0.82275896908841      1.21082992533605
  H   -0.38720357224083     -0.04695870028425      1.75730270129609
  H   0.37039488418894     -1.82532905607891      0.28996525235895
  N   1.11566777491297     -0.49648541589083     -1.22728760047453
  H   0.40373111427122     -0.88527998617470     -1.83643282236510
  H   1.99756833527326     -0.92387532142407     -1.47958248711758
  C   -1.54355388894220      0.05779831858425     -0.05387155509084
  H   -1.42584929756826      0.36556419325814     -1.09609790272166
  H   -1.93000784706113     -0.96675395438496     -0.02451767663459
  H   -2.29813347867458      0.70765328472588      0.39701236385333
  N   0.36764425076379      1.53028042804921      0.63958050752715
  H   -0.32739857900042      2.22817475227455      0.87400617478130
  H   0.68243482911813      1.69240693352469     -0.31049836976539
