15

C	0.0	0.0	0.0
C	-0.411035	-0.245416	-1.477963
Cl	1.762534	0.0	0.0
H	0.496148	-0.595912	-1.979182
H	-0.388027	0.923165	0.418105
N	-0.376612	-1.094515	0.96621
O	-0.565829	-0.741321	2.123043
O	-0.33907	-2.244231	0.546307
C	-0.794512	1.090079	-2.121919
H	-0.956974	0.948586	-3.192222
H	0.016695	1.81338	-1.988312
H	-1.710161	1.455463	-1.656124
C	-1.371249	-1.30806	-1.795705
N	-1.889127	-2.218586	-2.331043
Cl	-3.099287	0.0	0.0
