15

C	0.0	0.0	0.0
C	-0.416389	-0.19531	-1.478775
Cl	1.762525	0.0	0.0
H	0.479596	-0.551707	-1.995461
H	-0.391862	0.909692	0.443725
N	-0.374947	-1.115509	0.93975
O	-0.354098	-2.256107	0.493846
O	-0.55263	-0.789864	2.105938
C	-0.78428	1.168128	-2.069934
H	-1.694132	1.524388	-1.589881
H	-0.954471	1.072179	-3.144635
H	0.037824	1.875139	-1.912365
C	-1.406401	-1.225547	-1.813465
N	-1.961038	-2.115411	-2.344626
Cl	-3.146118	0.0	0.0
