15

C	0.0	0.0	0.0
C	-0.414305	-0.226441	-1.482452
Cl	1.762502	0.0	0.0
H	0.494038	-0.56245	-1.993684
H	-0.394213	0.917695	0.423628
N	-0.37535	-1.094786	0.962051
O	-0.340284	-2.245566	0.545448
O	-0.563782	-0.741157	2.1185
C	-0.82611	1.11605	-2.093895
H	-0.973702	1.006335	-3.170191
H	-1.760794	1.4302	-1.631204
H	-0.043829	1.861782	-1.92321
C	-1.367642	-1.295778	-1.796415
N	-1.920869	-2.212505	-2.282408
Cl	-3.150843	0.0	0.0
