17

C	-0.470342	0.035852	-1.47057
C	0.0	0.0	0.0
Cl	-0.060412	-1.501277	-2.29987
H	1.094792	0.0	0.0
C	-1.931177	0.165742	-1.485395
N	-3.098042	0.297525	-1.434285
C	0.206985	1.174213	-2.22322
H	-0.0723	2.121962	-1.764155
H	1.28729	1.035272	-2.130063
H	-0.08022	1.161115	-3.276277
N	-0.463438	-1.198199	0.669782
H	-1.377759	-1.055195	1.084413
H	0.194558	-1.44343	1.396856
N	-0.393788	1.283767	0.587774
H	0.289091	1.538114	1.290001
H	-1.301933	1.208198	1.0297
Br	3.551162	0.0	0.0
