17

C	-0.420638	-0.034457	-1.472985
C	0.0	0.0	0.0
Cl	-2.233897	0.029942	-1.609075
H	1.101598	0.0	0.0
C	0.082502	1.156757	-2.161686
N	0.514718	2.084557	-2.73905
C	0.075235	-1.297967	-2.159263
H	-0.415753	-2.158861	-1.703343
H	1.159107	-1.362418	-2.016743
H	-0.155867	-1.277303	-3.225399
N	-0.482967	-1.22685	0.665023
H	-0.521547	-1.016031	1.656108
H	0.245802	-1.92942	0.569278
N	-0.465086	1.21365	0.615341
H	0.130653	1.450943	1.398201
H	-1.426959	1.115485	0.920177
Br	3.53941	0.0	0.0
