17

C	-0.433412	-0.191867	-1.456515
C	0.0	0.0	0.0
Cl	-2.247226	-0.420687	-1.50386
H	1.102956	0.0	0.0
C	-0.165568	1.009417	-2.2494
N	0.033445	1.915253	-2.970534
C	0.236425	-1.403397	-2.078613
H	-0.036776	-2.284182	-1.499531
H	1.318665	-1.256164	-2.010415
H	-0.063762	-1.521668	-3.121615
N	-0.37414	-1.187014	0.763186
H	0.295105	-1.3029	1.514356
H	-1.300524	-1.07931	1.159924
N	-0.448937	1.292458	0.480223
H	-1.405312	1.242734	0.813472
H	0.15328	1.593915	1.235747
Br	3.521345	0.0	0.0
