17

C	-0.535825	0.039043	-1.450739
C	0.0	0.0	0.0
Cl	0.262706	1.383669	-2.32441
H	1.098088	0.0	0.0
C	-0.202109	-1.203599	-2.151597
N	-0.01443	-2.224862	-2.702668
C	-2.0432	0.25186	-1.495562
H	-2.262628	1.210321	-1.025248
H	-2.396106	0.264555	-2.528213
H	-2.533077	-0.553057	-0.944687
N	-0.528873	-1.222937	0.634784
H	-0.116974	-2.02757	0.167165
H	-0.128077	-1.234331	1.569017
N	-0.460272	1.172764	0.711267
H	-1.261464	0.927361	1.281379
H	0.287152	1.518359	1.299378
Br	3.577045	0.0	0.0
