17

C	-0.569996	0.000641	-1.433005
C	0.0	0.0	0.0
Cl	0.097424	1.395574	-2.345816
H	1.100957	0.0	0.0
C	-0.183609	-1.218621	-2.146642
N	0.038726	-2.188296	-2.770803
C	-2.089402	0.117193	-1.425694
H	-2.515597	-0.74521	-0.906375
H	-2.359702	1.042527	-0.916068
H	-2.476069	0.139992	-2.445795
N	-0.417604	-1.255462	0.620628
H	-1.216525	-1.124065	1.228025
H	0.351866	-1.613784	1.172515
N	-0.420874	1.226332	0.678047
H	0.391763	1.636727	1.122141
H	-1.101595	1.021132	1.398396
Br	3.524586	0.0	0.0
