14

C	-0.082077	0.018771	-1.523206
C	0.0	0.0	0.0
Br	-0.274123	-1.944943	-2.230904
H	1.0944	0.0	0.0
H	-0.33311	0.977215	0.360325
N	-1.365689	0.607973	-2.107093
O	-2.357034	0.627937	-1.382785
O	-1.311518	1.02685	-3.258685
N	1.014683	0.689033	-1.993512
H	1.113693	0.705765	-2.995387
H	1.868786	0.469344	-1.410135
C	-0.659952	-1.059389	0.721939
N	-1.156849	-1.9112	1.360775
F	2.645154	0.0	0.0
