14

C	-0.112071	-0.024187	-1.509875
C	0.0	0.0	0.0
Br	-1.929964	-0.546574	-2.170816
H	1.092514	0.0	0.0
H	-0.297362	-0.996537	0.3375
N	0.06208	1.394427	-2.141549
O	0.301478	1.407403	-3.347172
O	-0.004427	2.381538	-1.418766
N	0.875588	-0.893719	-1.982394
H	1.742582	-0.69967	-1.425173
H	1.008836	-0.794374	-2.979951
C	-0.710345	0.996943	0.762478
N	-1.304381	1.722698	1.471133
F	2.607319	0.0	0.0
