14

C	-0.0501	0.058776	-1.522523
C	0.0	0.0	0.0
Br	-0.211618	-2.004291	-2.166128
H	1.093779	0.0	0.0
H	-0.458683	-0.888088	0.421445
N	-1.335179	0.563404	-2.159536
O	-2.370157	0.430137	-1.517549
O	-1.240223	1.066087	-3.276873
N	1.041812	0.699157	-1.987656
H	1.124616	0.788072	-2.988417
H	1.898318	0.491015	-1.393573
C	-0.500789	1.222167	0.601061
N	-0.89193	2.204884	1.112758
F	2.647035	0.0	0.0
