14

C	-0.545614	0.009462	-1.409899
C	0.0	0.0	0.0
Br	0.27563	1.435782	-2.472985
H	1.089716	0.0	0.0
H	-0.313119	-0.940987	0.474027
N	-0.050686	-1.302919	-2.127148
O	-0.859024	-1.827609	-2.899115
O	1.068827	-1.715994	-1.877769
N	-1.950509	0.135667	-1.498824
H	-2.388646	-0.538088	-0.879251
H	-2.263973	-0.025475	-2.449006
C	-0.530705	1.115643	0.755735
N	-0.940186	2.004999	1.406677
F	2.522671	0.0	0.0
