14

C	-0.531585	-0.01351	-1.407552
C	0.0	0.0	0.0
Br	0.39929	1.478788	-2.392473
H	1.089345	0.0	0.0
H	-0.281227	0.964986	0.43875
N	-0.113401	-1.26891	-2.173426
O	-0.630194	-1.41449	-3.27994
O	0.670445	-2.034577	-1.635241
N	-1.933504	0.045102	-1.525683
H	-2.30103	0.813872	-0.982618
H	-2.221735	0.112868	-2.493163
C	-0.575871	-1.066457	0.797929
N	-1.030473	-1.909641	1.479549
F	2.518927	0.0	0.0
