14

C	-0.098172	0.040728	-1.531739
C	0.0	0.0	0.0
Br	0.104565	-1.759549	-2.260589
H	1.092861	0.0	0.0
H	-0.317257	0.982886	0.365648
N	-1.467875	0.588561	-1.95117
O	-2.388634	-0.182727	-2.191243
O	-1.563012	1.816534	-1.914543
N	0.925187	0.87024	-2.085805
H	1.773468	0.63163	-1.529577
H	0.679081	1.832015	-1.879439
C	-0.688617	-1.057249	0.697201
N	-1.253636	-1.892101	1.302771
F	2.597333	0.0	0.0
