14

C	-0.109239	0.026043	-1.529836
C	0.0	0.0	0.0
Br	-0.092985	-1.874653	-2.156674
H	1.092918	0.0	0.0
H	-0.46685	-0.861792	0.47094
N	-1.471266	0.567357	-1.978774
O	-1.48105	1.551273	-2.715679
O	-2.462052	0.012426	-1.518177
N	0.944719	0.727241	-2.135446
H	0.704459	1.700038	-2.274731
H	1.775737	0.602255	-1.52229
C	-0.482003	1.25218	0.547699
N	-0.865507	2.278504	0.974785
F	2.605237	0.0	0.0
