16

C	-0.397387	0.001054	-1.479007
C	0.0	0.0	0.0
Br	-2.369713	-0.044662	-1.643857
H	1.095218	0.0	0.0
C	0.141051	1.274905	-2.129011
H	-0.315736	2.154623	-1.675158
H	1.223004	1.296101	-1.966376
H	-0.076228	1.264883	-3.197602
C	0.104492	-1.152449	-2.22457
N	0.432058	-1.989642	-2.982175
N	-0.450477	-1.225499	0.734179
O	-0.923183	-1.078604	1.85744
O	-0.270626	-2.295069	0.164077
C	-0.486005	1.190651	0.678226
N	-0.837523	2.190047	1.186147
Cl	3.112165	0.0	0.0
