16

C	-0.522985	0.008378	-1.461024
C	0.0	0.0	0.0
Br	0.167476	-1.572854	-2.395008
H	1.09194	0.0	0.0
C	-2.041196	0.03407	-1.601302
H	-2.303812	0.090586	-2.658659
H	-2.436774	0.911327	-1.084088
H	-2.479275	-0.862922	-1.167549
C	0.050549	1.185199	-2.113764
N	0.457862	2.155957	-2.638439
N	-0.497205	-1.226462	0.719277
O	0.291357	-2.151041	0.858603
O	-1.668458	-1.212263	1.106265
C	-0.514253	1.173105	0.694152
N	-0.923509	2.136736	1.228072
Cl	3.174996	0.0	0.0
