16

C	-0.515998	-0.00359	-1.45944
C	0.0	0.0	0.0
Br	0.153588	-1.612579	-2.36129
H	1.092262	0.0	0.0
C	-2.036172	0.048548	-1.606184
H	-2.49039	-0.838607	-1.169275
H	-2.425089	0.935384	-1.09912
H	-2.290047	0.100454	-2.665793
C	0.064348	1.156608	-2.135502
N	0.427723	2.135348	-2.677096
N	-0.496219	-1.223161	0.728366
O	0.303467	-2.133691	0.905473
O	-1.679205	-1.219867	1.079404
C	-0.506783	1.178059	0.693007
N	-0.908939	2.140001	1.235431
Cl	3.172885	0.0	0.0
