15

C	0.0	0.0	0.0
C	-0.66089	-0.03524	-1.354767
Br	2.038027	0.0	0.0
H	-1.787451	-0.159866	-0.983969
H	-0.195218	0.989501	0.412676
N	-0.460938	-0.985279	0.860931
H	-0.080503	-0.960543	1.789706
H	-0.501907	-1.904841	0.448189
N	-0.208761	-1.219004	-2.119137
O	-0.40258	-2.326626	-1.59668
O	0.329951	-1.071427	-3.215739
N	-0.558647	1.149484	-2.136237
H	-1.282927	1.785394	-1.822488
H	0.355436	1.581715	-2.063126
H	-3.021169	0.0	0.0
