15

C	0.0	0.0	0.0
C	-0.337435	0.111619	-1.508949
Br	1.946095	0.0	0.0
H	0.267135	-0.626256	-2.038925
H	-0.27755	0.920391	0.51877
N	-0.571739	-1.212431	0.510769
H	-1.591698	-1.058861	0.437533
H	-0.358926	-1.278369	1.501505
N	0.225213	1.443484	-2.012279
O	0.839679	1.429523	-3.078202
O	-0.03556	2.45587	-1.366707
N	-1.695378	0.062728	-1.897794
H	-2.391951	0.164086	-1.09868
H	-1.890018	-0.822069	-2.346642
H	-3.33208	0.0	0.0
