15

C	0.0	0.0	0.0
C	-0.348682	-0.007979	-1.509793
Br	1.949204	0.0	0.0
H	0.272097	-0.764974	-1.991232
H	-0.278496	0.955068	0.450104
N	-0.558607	-1.175644	0.606553
H	-0.332428	-1.16829	1.59671
H	-1.578633	-1.035584	0.53723
N	0.168998	1.298263	-2.111913
O	0.759034	1.227817	-3.189284
O	-0.102022	2.345077	-1.528297
N	-1.707018	-0.128834	-1.886093
H	-2.407119	0.055587	-1.104522
H	-1.883251	-1.06565	-2.219726
H	-3.360641	0.0	0.0
