15

C	0.0	0.0	0.0
C	-0.485037	-0.016282	-1.446572
Br	2.038833	0.0	0.0
H	-1.594374	-0.063525	-1.277753
H	-0.248475	1.002523	0.350152
N	-0.529879	-0.957721	0.88974
H	-0.456046	-1.873264	0.461104
H	-1.547689	-0.709625	0.871002
N	-0.079932	-1.294296	-2.149359
O	0.56691	-1.20405	-3.197921
O	-0.432467	-2.365645	-1.651685
N	-0.106547	1.150827	-2.163721
H	0.879713	1.116007	-2.389333
H	-0.628829	1.207774	-3.027772
H	-2.960424	0.0	0.0
