15

C	0.0	0.0	0.0
C	-0.395651	0.038956	-1.486964
Br	1.942257	0.0	0.0
H	0.312673	-0.534617	-2.090449
H	-0.273662	0.944872	0.47144
N	-0.514165	-1.182782	0.62728
H	-1.516867	-1.201209	0.423637
H	-0.416701	-1.077809	1.631736
N	-0.077342	1.49168	-1.995143
O	0.318323	1.569556	-3.161631
O	-0.331289	2.460305	-1.282694
N	-1.70992	-0.346231	-1.707903
H	-1.986298	-0.350232	-2.678481
H	-2.486012	-0.066809	-1.011338
H	-3.493792	0.0	0.0
