15

C	0.0	0.0	0.0
C	-0.317947	0.079442	-1.520157
Br	1.961495	0.0	0.0
H	0.26336	-0.688614	-2.039312
H	-0.299873	0.929503	0.480537
N	-0.58411	-1.105815	0.677873
H	-1.588141	-0.876094	0.750695
H	-0.51392	-1.935842	0.099366
N	0.301831	1.379699	-2.071784
O	0.114908	2.417165	-1.441647
O	0.866192	1.312872	-3.164475
N	-1.676002	0.080672	-1.87345
H	-1.908927	-0.683137	-2.490994
H	-2.376816	0.12739	-1.068571
H	-3.331035	0.0	0.0
