13
Coordinates from ORCA-job run
  C   0.00535663167105     -0.17224775316750      0.29166032838909
  C   0.30941746372811      1.29947671738102      0.45494040878763
  Br  -0.20876990779430     -0.99672594312010      2.05051563000374
  H   0.49610062036290      1.74033387763832     -0.52832338827176
  H   -0.55191887125965      1.79264192203506      0.90735991528752
  H   1.18444525303997      1.45677059051657      1.08061155765130
  C   -1.21770133218132     -0.45141839414932     -0.55171453229001
  H   -1.41050567592649     -1.51846064261151     -0.62998722624718
  H   -1.06303674338575     -0.04721915173533     -1.55606265969527
  H   -2.08073568601221      0.03977563450906     -0.10038843051119
  N   1.21693652961815     -0.87309830742956     -0.32732272976528
  O   1.00251128692507     -1.88955180803470     -0.97903542404466
  O   2.31890043121447     -0.38027674183201     -0.11125344929393
