11
Coordinates from ORCA-job run
  C   0.54522158160015     -0.38333726988855     -0.57797818686832
  C   -0.18315734826072      0.39542221254291      0.49655309385385
  F   0.09287197005597      0.03435540217345     -1.81242560405969
  H   0.17855529110508      0.12811648739653      1.49119911752781
  H   0.33263626398352     -1.44996153140798     -0.48407753778795
  H   -0.10248236443585      1.46804336629922      0.33134257470945
  C   1.99057032872423     -0.14378818766719     -0.47266529668280
  N   3.14236077316376      0.05064453135657     -0.36094164205438
  N   -1.64072883860988      0.05315011106117      0.46012820973842
  O   -2.43154378593541      0.98345685702616      0.56361670262150
  O   -1.92430387139085     -1.13710197889230      0.36324856900210
