11
Coordinates from ORCA-job run
  C   0.59890264785216     -0.76181795752493     -0.28513309671717
  C   -0.37008021924439     -0.17535847773008      0.71975398781959
  F   -0.11075445562466     -1.29354423089741     -1.33965435611411
  H   0.15679532203359      0.30439459153151      1.54735814181375
  H   1.13151669506549     -1.58442205735667      0.20449839353058
  H   -1.02978312356662     -0.95122914449298      1.10529431900676
  C   1.60350182194995      0.19242994006100     -0.77466776550150
  N   2.47644789732179      0.89829627175458     -1.11506205237667
  N   -1.26557463624225      0.86353677046351      0.11581460740651
  O   -2.35186281632915      1.00965038287039      0.66456383993059
  O   -0.84010913321592      1.49906391132108     -0.84176601879833
