11
Coordinates from ORCA-job run
  C   0.59282340800846     -0.40879461388993     -0.51246624379924
  C   -0.22294424576192      0.36738759484940      0.49908654272492
  F   0.48184116537985      0.20897640992775     -1.74063072676525
  H   0.04833836615864      1.42135253220484      0.50149182121406
  H   0.20864969570965     -1.42579970808619     -0.61072629990591
  H   -0.12241603106169     -0.05925870944133      1.49886464607845
  C   2.00139759019143     -0.43798889270139     -0.09659487931584
  N   3.11802135246631     -0.46359666590431      0.26307686908733
  N   -1.67527672605145      0.28885888360433      0.14133741643563
  O   -2.10185938407837     -0.81071041708661     -0.19801809716217
  O   -2.32857519096090      1.31957358652344      0.25357895140803
