11
Coordinates from ORCA-job run
  C   0.57706483728449     -0.54986228319805     -0.37789174249326
  C   -0.22002240184370      0.55817950765239      0.27672556300487
  F   0.06464989879062     -0.78104587446530     -1.63758426003312
  H   -0.26306620332141      1.44220004647417     -0.35648710947737
  H   0.48726348236855     -1.47322354668955      0.19745214775226
  H   0.18329924383008      0.80558319725513      1.26047950716792
  C   1.98747473101600     -0.15267110844956     -0.48203203599138
  N   3.11142994423748      0.17895575775328     -0.54226898262637
  N   -1.62974128599580      0.10059046426145      0.49048109469235
  O   -1.77819660295854     -1.02528945527879      0.95610712914757
  O   -2.51915564340776      0.89758329468483      0.21601868885652
