11
Coordinates from ORCA-job run
  C   0.89698204077180     -0.48054494103828      0.02311302017368
  C   -0.55655766414644     -0.39366092242007      0.46440778561537
  F   1.27825971311770     -1.80231615728092      0.16159337498630
  H   -1.20267360912508     -0.99110593279250     -0.17602179786631
  H   1.53755293993543      0.13236789580518      0.65658709199362
  H   -0.64790747105193     -0.72954141959813      1.49892875053558
  C   1.05448398099598     -0.07006895181773     -1.37836230389930
  N   1.16126389533534      0.25036496712872     -2.50212393828780
  N   -1.05072398098323      1.01351097031902      0.41544947877114
  O   -0.21347877135134      1.90221839390408      0.56304905391312
  O   -2.25720107349823      1.16877609779063      0.27437948406459
