16
Coordinates from ORCA-job run
  C   0.70158150699896     -0.89664689753269     -0.19198561873387
  C   -0.42475567855992     -0.00373559040135      0.28941323261760
  F   0.90595478769233     -0.76273596434987     -1.52871441706450
  H   -0.51904404650093     -0.19235275377435      1.36394345350649
  H   0.54220171930657     -1.95171397053021      0.04125819082485
  N   1.97647351542251     -0.51545077838695      0.52278974307892
  O   2.85103973411116      0.06272865829767     -0.10657832942435
  O   1.99026407191720     -0.80032210413122      1.71677058135741
  C   -1.71852907281816     -0.41336318667005     -0.41117210663229
  H   -2.55514788673308      0.17432372781632     -0.02772640102931
  H   -1.94794869708536     -1.46986932159041     -0.24746328465596
  H   -1.64742131122952     -0.24111770130117     -1.48686132003538
  C   -0.09538684133500      1.46931227133268      0.06040416767770
  H   0.10979366992382      1.66116057468868     -0.99476419015911
  H   -0.94252450426274      2.08891348179919      0.36163247751667
  H   0.77244903315219      1.79086955473373      0.64005382115514
