16
Coordinates from ORCA-job run
  C   0.82620190412176     -0.79508753715538     -0.53667585930302
  C   -0.42279563391596      0.06845896409978     -0.54205087437471
  F   1.69272079043948     -0.38972287717058     -1.50447717147337
  H   -0.78232936579137     -0.01341106986891     -1.57580451541663
  H   0.61572212995072     -1.85778556972463     -0.66731592088184
  N   1.53606618035599     -0.68611805659738      0.79045123767985
  O   1.10518591562198     -1.42385103028522      1.67422149119146
  O   2.43540743924738      0.13745670583216      0.89781576020248
  C   -0.09462565238629      1.53197568714988     -0.25755783641060
  H   0.19377246763093      1.67724728242549      0.78622979115379
  H   0.72025699834840      1.89012252020937     -0.88780245867045
  H   -0.97470707179739      2.14932891569228     -0.45004980656202
  C   -1.50178274104604     -0.47329170626318      0.39138716960746
  H   -2.42204233174285      0.09894562839498      0.25545858759376
  H   -1.72426738010014     -1.52390650592222      0.18879252654033
  H   -1.20278364893659     -0.39036135081644      1.43737787912351
