16
Coordinates from ORCA-job run
  C   0.83143661819317     -0.79038470939833     -0.53543392641686
  C   -0.42260677848593      0.06584075041794     -0.54214962866160
  F   1.69521799276329     -0.38101009793245     -1.50420373390030
  H   -0.77980757545228     -0.01744408399536     -1.57658162021903
  H   0.62711098928175     -1.85444557667302     -0.66487842285253
  N   1.54069351752622     -0.67570464350183      0.79125688950707
  O   1.11140945296554     -1.41286161841556      1.67630092611386
  O   2.43718669911811      0.15109134832061      0.89675449633783
  C   -0.10324755442755      1.53103725289194     -0.25635371713289
  H   -0.98773325183613      2.14303850667992     -0.44575941862217
  H   0.70778072764226      1.89524696644088     -0.88813308019841
  H   0.18668083534376      1.67689956619702      0.78693964453557
  C   -1.50030166729159     -0.48244827896852      0.38899430088118
  H   -1.71620620725886     -1.53427798480955      0.18555158127425
  H   -2.42353559611255      0.08450013502603      0.25103657057265
  H   -1.20407820196922     -0.39807753227973      1.43565913878136
