15

C	0.0	0.0	0.0
C	-0.656206	-0.118078	-1.36096
F	1.379413	0.0	0.0
H	-1.78859	-0.092227	-1.038826
H	-0.343665	0.9609	0.398828
C	-0.455887	-1.128805	0.900572
H	-0.044921	-2.079504	0.543307
H	-1.55162	-1.145514	0.893583
H	-0.091101	-0.955095	1.916837
N	-0.303786	-1.432954	-1.990683
O	0.838348	-1.55068	-2.437073
O	-1.152766	-2.320198	-1.998448
C	-0.281315	0.939985	-2.276866
N	-0.01819	1.810739	-3.021938
H	-2.995062	0.0	0.0
