14

C	-0.468788	0.057043	-1.446829
C	0.0	0.0	0.0
Br	-2.562951	0.585954	-1.293538
H	1.093891	0.0	0.0
H	-0.307623	0.94644	0.462309
N	0.242479	0.957308	-2.201237
H	0.577663	1.772363	-1.711117
H	-0.0659	1.121009	-3.145063
C	-0.586307	-1.238442	-2.106892
N	-0.654839	-2.266453	-2.671393
N	-0.514032	-1.172183	0.677598
H	0.235736	-1.609897	1.193472
H	-1.264479	-0.938128	1.308965
Br	3.563262	0.0	0.0
