14

C	-0.326702	-0.061132	-1.492019
C	0.0	0.0	0.0
Br	-0.125487	1.867725	-2.216367
H	1.101892	0.0	0.0
H	-0.410109	0.900806	0.452405
N	0.551063	-0.971038	-2.099234
H	0.457095	-1.02403	-3.103684
H	1.516161	-0.786825	-1.820075
C	-1.724978	-0.375856	-1.795417
N	-2.843936	-0.615367	-2.06359
N	-0.566059	-1.190552	0.643196
H	0.0116	-1.979551	0.371978
H	-0.447021	-1.082807	1.644462
Br	3.594485	0.0	0.0
