14

C	-0.276404	0.099706	-1.492478
C	0.0	0.0	0.0
Br	-2.191975	0.501022	-1.877134
H	1.105401	0.0	0.0
H	-0.398071	-0.931816	0.404879
N	0.520548	1.176068	-2.020465
H	1.487321	1.029234	-1.71869
H	0.478911	1.199461	-3.032204
C	-0.049659	-1.201075	-2.144323
N	0.156917	-2.232612	-2.670148
N	-0.550527	1.150091	0.720418
H	-0.254867	1.976309	0.208571
H	-0.059678	1.190981	1.608232
Br	3.556539	0.0	0.0
