14

C	-0.483761	0.015958	-1.438261
C	0.0	0.0	0.0
Br	-2.673138	-0.25282	-1.232467
H	1.094978	0.0	0.0
H	-0.360887	-0.908902	0.488361
N	-0.188231	1.187257	-2.065647
H	-0.53096	1.312981	-3.004089
H	-0.292585	1.973273	-1.433633
C	-0.178574	-1.171411	-2.219776
N	0.072118	-2.126091	-2.858561
N	-0.41509	1.247011	0.634593
H	-1.292328	1.130777	1.123494
H	0.304422	1.528366	1.287705
Br	3.541146	0.0	0.0
