14

C	-0.332068	0.1534	-1.482308
C	0.0	0.0	0.0
Br	-2.26943	0.61646	-1.658001
H	1.093241	0.0	0.0
H	-0.316194	0.92962	0.494339
N	0.432848	1.18824	-2.141557
H	1.415242	0.916511	-2.050752
H	0.326472	2.04128	-1.599427
C	-0.162458	-1.111712	-2.20254
N	-0.012695	-2.1083	-2.805466
N	-0.540159	-1.208834	0.583964
H	-1.37628	-1.019965	1.118879
H	0.154526	-1.628784	1.187005
Br	3.537603	0.0	0.0
