14

C	-0.602177	0.074031	-1.40205
C	0.0	0.0	0.0
Br	0.186549	-1.461105	-2.489805
H	1.093357	0.0	0.0
H	-0.354754	0.898272	0.516566
N	-2.012679	-0.004129	-1.315693
H	-2.224437	-0.765357	-0.675521
H	-2.444261	-0.152719	-2.218013
C	-0.201722	1.27975	-2.125785
N	0.063041	2.280005	-2.682847
N	-0.55716	-1.18465	0.671524
H	0.082924	-1.953233	0.50165
H	-0.538066	-1.015572	1.669617
Br	3.607297	0.0	0.0
