14

C	-0.34404	0.020496	-1.489239
C	0.0	0.0	0.0
Br	-0.107465	1.963676	-2.161537
H	1.094575	0.0	0.0
H	-0.331751	-0.981042	0.356455
N	0.501209	-0.882774	-2.149194
H	1.469935	-0.752172	-1.855861
H	0.414626	-0.854605	-3.155382
C	-1.754905	-0.243241	-1.772352
N	-2.884649	-0.492869	-1.97741
N	-0.66923	1.037009	0.767343
H	-0.145094	1.897984	0.66138
H	-0.615795	0.781505	1.746647
Br	3.59214	0.0	0.0
