16

C	-0.470379	-0.005691	-1.469537
C	0.0	0.0	0.0
Br	0.175444	1.584661	-2.446992
H	1.099274	0.0	0.0
C	0.055571	-1.176555	-2.173478
N	0.442379	-2.109777	-2.773851
C	-1.933311	-0.000403	-1.56148
N	-3.107956	0.052405	-1.583839
N	-0.431538	-1.294884	0.52699
H	0.382514	-1.74323	0.927004
H	-1.147301	-1.199303	1.236993
C	-0.542325	1.173558	0.790125
H	-0.274295	2.128987	0.336249
H	-1.634249	1.134303	0.909212
H	-0.080051	1.140832	1.779844
F	2.593355	0.0	0.0
