16

C	-0.369314	-0.006643	-1.46769
C	0.0	0.0	0.0
Br	-2.380169	-0.032418	-1.764269
H	1.097517	0.0	0.0
C	0.100376	1.18528	-2.173309
N	0.469846	2.142737	-2.746523
C	0.127331	-1.209581	-2.13311
N	0.520895	-2.175677	-2.673441
N	-0.413834	-1.263715	0.58985
H	0.378956	-1.62746	1.103041
H	-1.196394	-1.145507	1.221821
C	-0.4778	1.236228	0.733973
H	-1.568236	1.251297	0.86089
H	-0.170948	2.153577	0.2242
H	-0.005758	1.239318	1.720106
F	2.555912	0.0	0.0
