16

C	-0.319525	-0.030507	-1.524152
C	0.0	0.0	0.0
Br	0.398967	1.548179	-2.464632
H	1.095592	0.0	0.0
C	0.293914	-1.209344	-2.137719
N	0.753752	-2.169286	-2.636327
C	-1.761962	-0.05777	-1.775936
N	-2.934073	-0.090323	-1.876248
N	-0.422777	-1.245769	0.617699
H	0.275479	-1.95686	0.437768
H	-1.337239	-1.56977	0.320039
C	-0.627476	1.187021	0.696536
H	-1.725086	1.142236	0.694438
H	-0.287985	1.162074	1.733481
H	-0.309374	2.132596	0.255022
F	2.591538	0.0	0.0
