16

C	-0.369224	0.095572	-1.460402
C	0.0	0.0	0.0
Br	-2.38666	0.152901	-1.757757
H	1.107894	0.0	0.0
C	0.139204	1.312751	-2.091167
N	0.524719	2.306307	-2.587346
C	0.080799	-1.08049	-2.202799
N	0.432846	-2.004784	-2.837411
N	-0.424925	-1.295646	0.505064
H	-1.214191	-1.209469	1.134483
H	0.358586	-1.696549	1.005742
C	-0.460347	1.189197	0.818468
H	0.02301	1.125436	1.796884
H	-1.549348	1.204043	0.958535
H	-0.152652	2.135345	0.365567
F	2.547694	0.0	0.0
