16

C	-0.473711	0.191169	-1.455127
C	0.0	0.0	0.0
Br	0.215997	1.87695	-2.222929
H	1.112102	0.0	0.0
C	0.014044	-0.892073	-2.310068
N	0.361789	-1.736887	-3.049371
C	-1.935417	0.253532	-1.541266
N	-3.108749	0.333322	-1.534708
N	-0.43946	-1.349641	0.358068
H	-1.145287	-1.33559	1.083563
H	0.373058	-1.850032	0.695555
C	-0.534347	1.06523	0.935412
H	-0.262832	2.06923	0.606525
H	-0.071256	0.904723	1.912103
H	-1.626864	1.016798	1.050668
F	2.594242	0.0	0.0
