16

C	-0.472243	-0.152733	-1.461455
C	0.0	0.0	0.0
Br	0.361289	-1.738569	-2.277797
H	1.110795	0.0	0.0
C	-1.922794	-0.344214	-1.531713
N	-3.094048	-0.454635	-1.522116
C	-0.104634	0.996439	-2.289234
N	0.15432	1.938504	-2.942796
N	-0.451004	-1.174819	0.736253
H	-1.142252	-0.934554	1.435645
H	0.361283	-1.565675	1.196768
C	-0.510702	1.305421	0.588338
H	-0.196002	2.168434	-0.002134
H	-1.605605	1.325664	0.689706
H	-0.066433	1.412467	1.581027
F	2.594021	0.0	0.0
