16

C	-0.487078	-0.16891	-1.452739
C	0.0	0.0	0.0
Br	0.264069	-1.814781	-2.232256
H	1.112125	0.0	0.0
C	-1.947371	-0.279131	-1.513576
N	-3.122871	-0.276475	-1.508412
C	-0.069715	0.93605	-2.316997
N	0.215675	1.833894	-3.020306
N	-0.465375	-1.156053	0.760185
H	0.355386	-1.600665	1.1549
H	-1.079916	-0.877074	1.51294
C	-0.499014	1.317569	0.571177
H	-1.591153	1.339434	0.69691
H	-0.198444	2.167873	-0.045729
H	-0.029435	1.446807	1.550066
F	2.594088	0.0	0.0
