16

C	-0.242111	0.161469	-1.488888
C	0.0	0.0	0.0
Br	-2.232815	0.296591	-1.971982
H	1.105004	0.0	0.0
C	0.36332	1.371265	-2.03793
N	0.825715	2.358362	-2.478203
C	0.219773	-1.016935	-2.219183
N	0.562332	-1.993272	-2.776284
N	-0.46764	-1.261319	0.53116
H	0.187146	-1.99088	0.277425
H	-1.391598	-1.50438	0.18688
C	-0.498474	1.176097	0.811026
H	-0.104937	1.057902	1.821951
H	-0.127137	2.123467	0.411502
H	-1.593588	1.213136	0.862543
F	2.540845	0.0	0.0
