16

C	-0.377027	-0.15164	-1.454091
C	0.0	0.0	0.0
Br	-2.391758	-0.10359	-1.755889
H	1.109152	0.0	0.0
C	0.158887	0.925381	-2.285087
N	0.574199	1.804952	-2.945185
C	0.046793	-1.447024	-1.98367
N	0.382671	-2.469302	-2.455624
N	-0.426569	-1.188221	0.722044
H	0.370527	-1.519365	1.251976
H	-1.185151	-0.984679	1.361265
C	-0.452519	1.312643	0.606711
H	-1.539918	1.352279	0.754779
H	0.04318	1.418529	1.575342
H	-0.151381	2.166088	-0.006795
F	2.548666	0.0	0.0
