16

C	-0.47805	-0.225467	-1.450249
C	0.0	0.0	0.0
Br	0.166146	1.197986	-2.658912
H	1.109876	0.0	0.0
C	0.035662	-1.491955	-1.973095
N	0.407141	-2.50732	-2.433215
C	-1.940905	-0.22741	-1.532991
N	-3.116867	-0.188827	-1.518269
N	-0.430848	-1.201097	0.716632
H	0.386485	-1.590225	1.169961
H	-1.139202	-0.99865	1.41066
C	-0.539262	1.279591	0.606977
H	-0.081673	1.390247	1.594301
H	-1.632498	1.263636	0.724703
H	-0.263102	2.157173	0.01906
F	2.596991	0.0	0.0
