16

C	-0.505415	-0.268788	-1.431389
C	0.0	0.0	0.0
Br	0.470547	-1.7831	-2.220929
H	1.110753	0.0	0.0
C	-1.925925	-0.629359	-1.401364
N	-3.076478	-0.85203	-1.298421
C	-0.33444	0.863695	-2.342281
N	-0.245843	1.768981	-3.087373
N	-0.407994	-1.143052	0.807358
H	0.372624	-1.387298	1.404238
H	-1.220295	-0.93662	1.377707
C	-0.516702	1.332814	0.51994
H	-0.109079	1.466908	1.52545
H	-0.16478	2.169692	-0.088102
H	-1.614151	1.372697	0.582221
F	2.591775	0.0	0.0
