16

C	-0.423744	0.045154	-1.486102
C	0.0	0.0	0.0
Br	0.303102	1.641304	-2.395196
H	1.110108	0.0	0.0
C	0.098749	-1.125001	-2.19353
N	0.496143	-2.062276	-2.779945
C	-1.87902	0.100598	-1.637805
N	-3.052454	0.174285	-1.689837
N	-0.452943	-1.30293	0.481991
H	-1.220078	-1.219912	1.138298
H	0.332568	-1.757978	0.929931
C	-0.549121	1.161557	0.803427
H	-0.129973	1.091152	1.810947
H	-1.645626	1.142779	0.878562
H	-0.242598	2.12361	0.389204
F	2.59284	0.0	0.0
