16

C	-0.470777	0.032593	-1.468361
C	0.0	0.0	0.0
Br	0.111902	1.680334	-2.389791
H	1.110443	0.0	0.0
C	0.096332	-1.092731	-2.213702
N	0.51673	-1.985723	-2.851412
C	-1.932672	-0.01458	-1.558812
N	-3.108647	-0.041437	-1.551235
N	-0.418632	-1.31766	0.48147
H	0.399081	-1.772011	0.869699
H	-1.14024	-1.254442	1.188965
C	-0.555379	1.139919	0.827967
H	-0.283371	2.113179	0.416331
H	-0.108162	1.068966	1.82267
H	-1.649123	1.093366	0.930071
F	2.591998	0.0	0.0
