16

C	-0.480929	-0.109233	-1.461883
C	0.0	0.0	0.0
Br	0.330464	-1.681185	-2.325485
H	1.10992	0.0	0.0
C	-1.93438	-0.282381	-1.52579
N	-3.107185	-0.373287	-1.506974
C	-0.107942	1.055562	-2.264795
N	0.151056	2.004333	-2.908953
N	-0.45136	-1.194596	0.704132
H	0.363174	-1.603148	1.14524
H	-1.135496	-0.970863	1.415969
C	-0.504435	1.289616	0.627234
H	-0.057506	1.364963	1.621992
H	-1.59878	1.313702	0.730096
H	-0.18401	2.167556	0.062018
F	2.592628	0.0	0.0
