20

C	-0.478394	-0.026113	-1.456491
C	0.0	0.0	0.0
Br	0.101824	1.662353	-2.328189
H	1.091568	0.0	0.0
C	0.266547	-1.151566	-2.165558
H	1.333522	-1.089103	-1.928152
H	0.114764	-1.084614	-3.245733
H	-0.122245	-2.117727	-1.827127
C	-1.982522	-0.112549	-1.667112
H	-2.201587	-0.135593	-2.73789
H	-2.365636	-1.032888	-1.215213
H	-2.50054	0.73293	-1.216635
C	-0.439947	-1.208434	0.814991
H	-0.030146	-1.096941	1.822943
H	-1.523525	-1.312984	0.885969
H	0.00373	-2.112328	0.395833
N	-0.500255	1.217274	0.705805
O	-1.6985	1.238807	1.027527
O	0.291415	2.124064	0.948885
H	2.863089	0.0	0.0
