20

C	-0.481026	0.002298	-1.460098
C	0.0	0.0	0.0
Br	0.283946	-1.626868	-2.319885
H	1.09069	0.0	0.0
C	-1.989996	-0.114611	-1.612029
H	-2.26464	-0.09333	-2.67013
H	-2.363447	-1.044567	-1.180978
H	-2.475373	0.722309	-1.099795
C	0.093432	1.183924	-2.226783
H	-0.089217	1.062671	-3.29796
H	-0.378125	2.110621	-1.890595
H	1.165721	1.252753	-2.030344
C	-0.478428	-1.151725	0.861419
H	-0.127874	-2.086278	0.422674
H	-1.559743	-1.180729	0.993914
H	-0.012205	-1.056017	1.845454
N	-0.442533	1.281164	0.616805
O	-1.478446	1.290726	1.303384
O	0.252999	2.281669	0.424522
H	2.772095	0.0	0.0
