17

C	0.0	0.0	0.0
C	-0.38756	0.078127	-1.493949
F	1.379903	0.0	0.0
H	0.111708	0.97079	-1.882688
C	-0.386821	1.210207	0.755409
N	-0.491461	2.142288	1.462891
C	-0.498256	-1.245824	0.6933
H	-0.170598	-2.11359	0.120448
H	-0.080329	-1.289796	1.703362
H	-1.589822	-1.207027	0.721319
N	-1.84356	0.300866	-1.767367
O	-2.570025	-0.774526	-1.699128
O	-2.329919	1.353397	-1.208605
N	0.070339	-1.117336	-2.166484
H	-0.770757	-1.690737	-2.236233
H	0.335357	-0.866002	-3.110874
H	-3.085437	0.0	0.0
