17

C	0.0	0.0	0.0
C	-0.603137	-0.066574	-1.388282
F	1.389282	0.0	0.0
H	-1.721608	-0.071511	-1.144646
C	-0.379192	1.319922	0.561206
N	-0.512575	2.350025	1.108138
C	-0.470399	-1.090852	0.937886
H	-0.108653	-0.866968	1.943953
H	-0.080748	-2.054748	0.614189
H	-1.568352	-1.080474	0.909475
N	-0.268224	-1.39124	-2.031551
O	0.499092	-1.382193	-3.001644
O	-0.812099	-2.404941	-1.593792
N	-0.198918	1.04193	-2.182905
H	-0.795236	1.120235	-2.994905
H	0.75644	0.92211	-2.495436
H	-3.054842	0.0	0.0
