17

C	0.0	0.0	0.0
C	-0.587255	-0.094474	-1.411105
F	1.38971	0.0	0.0
H	-1.678081	-0.249477	-1.220165
C	-0.383753	1.323459	0.543789
N	-0.503489	2.405365	0.987487
C	-0.479051	-1.103572	0.917854
H	-0.083407	-0.933502	1.92222
H	-1.577087	-1.058453	0.914356
H	-0.130552	-2.066789	0.544645
N	-0.001019	-1.316792	-2.056367
O	1.002924	-1.168851	-2.750725
O	-0.547437	-2.397908	-1.833984
N	-0.379723	1.030068	-2.267448
H	-1.116461	1.698962	-2.084637
H	0.520557	1.46255	-2.112203
H	-3.085583	0.0	0.0
