11

C	-0.460064	-0.128511	-1.43722
C	0.0	0.0	0.0
Br	-0.572337	1.638394	-2.267815
H	1.088107	0.0	0.0
H	0.271569	-0.691741	-2.016114
H	-1.447338	-0.576032	-1.539022
H	-0.377638	0.874528	0.523682
N	-0.400287	-1.174255	0.754273
O	-0.49019	-2.249469	0.138817
O	-0.515474	-1.070404	1.981499
H	2.628243	0.0	0.0
