18

C	-0.405506	-0.097382	-1.484289
C	0.0	0.0	0.0
Cl	-2.172696	-0.499069	-1.626575
H	1.09291	0.0	0.0
C	-0.24924	1.225819	-2.093635
N	-0.129359	2.270678	-2.617274
C	0.408271	-1.103214	-2.291767
H	0.176593	-2.113789	-1.969587
H	1.467324	-0.908003	-2.100878
H	0.180816	-0.991749	-3.353625
N	-0.42774	-1.251646	0.705339
O	-1.223456	-1.150947	1.63953
O	0.045728	-2.313728	0.312168
C	-0.52568	1.22188	0.718297
H	-0.220934	1.182033	1.763532
H	-1.614067	1.291834	0.672526
H	-0.076568	2.110277	0.271942
Cl	3.279422	0.0	0.0
