18

C	-0.405098	-0.106239	-1.483574
C	0.0	0.0	0.0
Cl	-2.179489	-0.4735	-1.622811
H	1.092881	0.0	0.0
C	-0.219065	1.206947	-2.105188
N	-0.073899	2.250198	-2.624994
C	0.389012	-1.138174	-2.279224
H	0.16728	-1.030976	-3.342758
H	0.134094	-2.141792	-1.950669
H	1.451418	-0.964663	-2.088865
N	-0.437354	-1.244205	0.710213
O	-1.259926	-1.133699	1.619446
O	0.04836	-2.310106	0.342047
C	-0.521217	1.228985	0.708573
H	-0.067246	2.111888	0.256793
H	-1.609089	1.303854	0.661174
H	-0.216563	1.195133	1.754289
Cl	3.277521	0.0	0.0
