18

C	-0.546772	0.008128	-1.445416
C	0.0	0.0	0.0
Cl	0.192309	1.402553	-2.302661
H	1.090458	0.0	0.0
C	-0.167422	-1.202357	-2.180904
N	0.026961	-2.181745	-2.799757
C	-2.064691	0.155083	-1.520684
H	-2.546621	-0.653621	-0.96822
H	-2.369105	1.1098	-1.094727
H	-2.384124	0.11993	-2.563969
N	-0.451593	-1.29058	0.629611
O	0.220671	-2.290848	0.40502
O	-1.488466	-1.276246	1.301407
C	-0.4647	1.168192	0.84515
H	-0.12203	2.097113	0.386287
H	-1.543913	1.194062	0.991215
H	0.01663	1.089404	1.82179
Cl	3.304966	0.0	0.0
