18

C	-0.386375	-0.054986	-1.489097
C	0.0	0.0	0.0
Cl	-2.181876	-0.285039	-1.677882
H	1.092913	0.0	0.0
C	-0.07956	1.247423	-2.085238
N	0.153216	2.292445	-2.567896
C	0.337071	-1.142833	-2.273688
H	0.141178	-1.016697	-3.340106
H	1.406774	-1.052789	-2.063588
H	-0.00356	-2.124787	-1.954171
N	-0.44521	-1.266335	0.664301
O	0.143106	-2.302043	0.359856
O	-1.372851	-1.203974	1.473152
C	-0.524182	1.204251	0.747935
H	-1.608985	1.287519	0.690955
H	-0.234608	1.127439	1.795678
H	-0.057798	2.10067	0.339226
Cl	3.274626	0.0	0.0
