18

C	-0.5231	0.006073	-1.448787
C	0.0	0.0	0.0
Cl	0.152483	1.485414	-2.237774
H	1.093812	0.0	0.0
C	-0.022247	-1.120558	-2.242945
N	0.298776	-1.98162	-2.975348
C	-2.043732	0.080434	-1.56926
H	-2.492916	-0.803616	-1.115498
H	-2.410473	0.98162	-1.075973
H	-2.326333	0.122978	-2.62245
N	-0.398786	-1.267569	0.697698
O	-0.885351	-2.189668	0.038319
O	-0.193599	-1.316003	1.906756
C	-0.474938	1.166785	0.853472
H	-1.538101	1.095708	1.098682
H	0.098466	1.165016	1.777763
H	-0.281279	2.105059	0.336495
Cl	3.245402	0.0	0.0
