18

C	-0.535895	-0.172198	-1.437223
C	0.0	0.0	0.0
Cl	0.121833	1.176877	-2.432835
H	1.100688	0.0	0.0
C	-0.076116	-1.416141	-2.062974
N	0.160231	-2.408264	-2.646667
C	-2.06066	-0.126268	-1.527013
H	-2.496505	-0.914211	-0.908595
H	-2.424676	0.840825	-1.181736
H	-2.372365	-0.269899	-2.562582
N	-0.446844	-1.210395	0.770482
O	0.187816	-2.248248	0.601047
O	-1.435975	-1.104536	1.503965
C	-0.469351	1.257995	0.702022
H	-0.014575	1.278257	1.693856
H	-1.551078	1.313518	0.818552
H	-0.101632	2.126271	0.15514
Cl	3.292135	0.0	0.0
