17

C	0.0	0.0	0.0
C	-0.515988	0.217701	-1.415475
Cl	1.800856	0.0	0.0
H	-0.194235	-0.59072	-2.069534
H	-1.611035	0.277536	-1.353221
C	-0.471107	1.050234	0.991867
H	-0.054078	2.030015	0.767432
H	-0.160162	0.752868	1.996592
H	-1.562427	1.094493	0.948133
C	-0.46829	-1.383862	0.430332
H	-0.108768	-2.151339	-0.260164
H	-0.082664	-1.60702	1.427641
H	-1.561858	-1.38288	0.452511
N	-0.021854	1.461603	-2.063899
O	-0.332097	2.539898	-1.562069
O	0.661817	1.335383	-3.081743
Cl	-3.788251	0.0	0.0
