17

C	0.0	0.0	0.0
C	-0.518142	-0.338749	-1.389487
Cl	1.800946	0.0	0.0
H	-0.206694	0.414732	-2.110883
H	-1.612762	-0.400478	-1.316436
C	-0.476548	1.412074	0.311591
H	-0.149164	2.116687	-0.456316
H	-1.568252	1.390771	0.356754
H	-0.074155	1.735119	1.273029
C	-0.480044	-0.957566	1.075786
H	-0.198216	-0.559054	2.052725
H	-1.56845	-1.016655	1.011689
H	-0.048354	-1.948219	0.961067
N	-0.014947	-1.629527	-1.937726
O	-0.275413	-2.665826	-1.329973
O	0.624087	-1.580825	-2.988711
Cl	-3.794748	0.0	0.0
