17

C	0.0	0.0	0.0
C	-0.518134	0.177817	-1.420958
Cl	1.800905	0.0	0.0
H	-0.194919	-0.646547	-2.054044
H	-1.612994	0.239048	-1.358125
C	-0.475591	1.080861	0.95591
H	-1.56752	1.115801	0.913049
H	-0.067331	2.055688	0.696047
H	-0.16068	0.82196	1.970047
C	-0.472752	-1.368966	0.471207
H	-0.11368	-2.158283	-0.194492
H	-1.566658	-1.363961	0.488753
H	-0.092601	-1.562496	1.476615
N	-0.024515	1.40666	-2.097832
O	0.709816	1.257848	-3.077
O	-0.382285	2.496055	-1.652969
Cl	-3.799559	0.0	0.0
