17

C	0.0	0.0	0.0
C	-0.189488	-0.453011	-1.470896
Cl	1.80659	0.0	0.0
H	0.411262	-1.346782	-1.633031
H	0.149311	0.344545	-2.132047
C	-0.543423	1.390678	0.237583
H	-0.111021	2.108119	-0.463849
H	-0.322138	1.713238	1.258003
H	-1.630829	1.344104	0.107837
C	-0.537185	-1.007855	0.990267
H	-1.62983	-1.006377	0.911112
H	-0.251005	-0.720401	2.005652
H	-0.157079	-2.009744	0.783323
N	-1.544438	-0.843841	-1.960472
O	-2.116985	-0.056749	-2.708414
O	-1.922926	-1.973624	-1.664332
Cl	-3.964757	0.0	0.0
