15

C	-0.320853	0.109178	-1.478299
C	0.0	0.0	0.0
Br	-0.15583	2.073852	-2.040504
H	1.100769	0.0	0.0
H	-0.409178	0.840903	0.551912
N	0.477387	-0.757053	-2.202132
H	1.456342	-0.646344	-1.948243
H	0.317524	-0.739676	-3.198156
N	-1.792105	-0.160767	-1.762531
O	-2.05975	-0.817006	-2.763928
O	-2.602956	0.31495	-0.98201
N	-0.547434	-1.273789	0.478188
H	0.180142	-1.974316	0.40488
H	-0.777834	-1.18134	1.459322
Cl	3.431188	0.0	0.0
