15

C	-0.524006	0.130096	-1.414242
C	0.0	0.0	0.0
Br	-0.033081	1.837384	-2.196973
H	1.092488	0.0	0.0
H	-0.318992	-0.987046	0.358547
N	-0.08895	-0.912964	-2.251115
H	-0.11953	-1.812616	-1.79018
H	-0.539589	-0.916746	-3.15575
N	-2.095757	0.123222	-1.367354
O	-2.699811	0.438474	-2.387222
O	-2.624978	-0.344017	-0.359313
N	-0.500116	1.0803	0.839026
H	-1.185669	0.736916	1.494622
H	0.277311	1.479055	1.345021
Cl	3.47911	0.0	0.0
