15

C	-0.354723	0.080449	-1.477164
C	0.0	0.0	0.0
Br	-2.335721	0.151825	-1.683579
H	1.096453	0.0	0.0
H	-0.393879	-0.9145	0.447928
N	0.21547	1.176992	-2.167627
H	1.21208	0.98763	-2.265856
H	0.111277	1.9634	-1.530239
N	0.063431	-1.222291	-2.151324
O	0.753671	-1.147851	-3.160272
O	-0.317282	-2.258259	-1.616533
N	-0.416568	1.242335	0.643757
H	-1.30312	1.127298	1.115831
H	0.286856	1.500166	1.323501
Cl	3.382877	0.0	0.0
