15

C	-0.4548	0.011053	-1.436511
C	0.0	0.0	0.0
Br	-2.604458	-0.362243	-1.355376
H	1.092935	0.0	0.0
H	-0.362205	-0.901291	0.494818
N	-0.147277	1.147059	-2.090531
H	-0.401215	1.214632	-3.061486
H	-0.242224	1.960561	-1.497617
N	-0.050007	-1.204393	-2.233788
O	0.167217	-2.231879	-1.610304
O	0.009678	-1.067258	-3.451849
N	-0.430918	1.260114	0.606614
H	0.268744	1.539713	1.281732
H	-1.319369	1.142752	1.076063
Cl	3.39514	0.0	0.0
