18

C	-0.26871	-0.040584	-1.521079
C	0.0	0.0	0.0
Br	-0.139753	1.973049	-2.169754
H	1.093041	0.0	0.0
N	0.756322	-0.79763	-2.069445
H	0.804648	-0.766076	-3.077308
H	1.652165	-0.602221	-1.59252
C	-1.666203	-0.432246	-1.955537
H	-1.848078	-1.473132	-1.673585
H	-2.404112	0.209326	-1.471149
H	-1.782506	-0.332636	-3.0372
N	-0.454089	-1.360896	0.521474
O	-1.540966	-1.411427	1.117013
O	0.255095	-2.339986	0.320695
N	-0.602295	1.052389	0.738071
H	0.022749	1.311028	1.489268
H	-1.491907	0.758507	1.120091
F	2.627278	0.0	0.0
