18

C	-0.359378	-0.194817	-1.457147
C	0.0	0.0	0.0
Br	-2.498922	-0.814177	-1.487439
H	1.096064	0.0	0.0
N	-0.257625	1.010574	-2.103901
H	-0.607095	1.780015	-1.54636
H	-0.558734	0.999098	-3.065776
C	0.378307	-1.298124	-2.174575
H	0.067069	-2.283652	-1.846178
H	0.233542	-1.206689	-3.255128
H	1.428127	-1.136265	-1.904772
N	-0.397864	-1.171487	0.844775
O	-0.047705	-2.291168	0.481471
O	-1.013012	-0.951489	1.894193
N	-0.497359	1.237064	0.518902
H	-1.376687	1.084067	1.003502
H	0.18167	1.57729	1.187991
F	2.550159	0.0	0.0
