18

C	-0.443944	0.147402	-1.454484
C	0.0	0.0	0.0
Br	0.015076	-1.63832	-2.379383
H	1.090446	0.0	0.0
N	-1.817533	0.443488	-1.617552
H	-2.051916	0.528444	-2.598336
H	-2.389178	-0.273093	-1.186308
C	0.477676	1.167509	-2.09532
H	0.214209	2.145082	-1.685399
H	1.501381	0.919413	-1.797518
H	0.366216	1.176774	-3.183073
N	-0.577543	-1.263984	0.602351
O	0.174133	-2.135148	1.023256
O	-1.817157	-1.324389	0.682895
N	-0.432432	1.151298	0.737145
H	0.129352	1.232027	1.57446
H	-1.420044	1.120442	0.953901
F	2.622436	0.0	0.0
