18

C	-0.136285	0.030176	-1.526763
C	0.0	0.0	0.0
Br	-2.07336	0.161467	-2.038354
H	1.101564	0.0	0.0
N	0.536801	1.223596	-1.997733
H	1.496936	1.083165	-1.658456
H	0.172973	1.991398	-1.438772
C	0.488327	-1.160543	-2.222596
H	1.496197	-1.243287	-1.802905
H	-0.05226	-2.087318	-2.048586
H	0.532987	-0.941393	-3.290674
N	-0.527754	-1.250826	0.635894
O	-0.038378	-2.328994	0.299899
O	-1.413822	-1.141019	1.493181
N	-0.510226	1.182955	0.613183
H	-1.490448	1.070318	0.841293
H	0.003458	1.349836	1.468801
F	2.605235	0.0	0.0
