18

C	-0.428596	0.070821	-1.464925
C	0.0	0.0	0.0
Br	0.027936	-1.744924	-2.298766
H	1.089642	0.0	0.0
N	-1.801446	0.38146	-1.643097
H	-2.042147	0.415324	-2.624958
H	-2.369978	-0.307393	-1.165743
C	0.495713	1.058563	-2.154018
H	0.398643	0.999312	-3.239658
H	1.51628	0.839971	-1.829581
H	0.220063	2.066325	-1.829883
N	-0.581159	-1.209306	0.678011
O	0.15173	-1.905356	1.370188
O	-1.798347	-1.407271	0.549001
N	-0.439665	1.149521	0.753334
H	-1.19771	1.632538	0.289236
H	0.36086	1.754683	0.877167
F	2.624267	0.0	0.0
