18

C	-0.064684	-0.092362	-1.537102
C	0.0	0.0	0.0
Br	-1.916428	0.285849	-2.24419
H	1.097237	0.0	0.0
N	0.812148	0.972425	-1.968033
H	1.694802	0.804364	-1.445639
H	0.992038	0.871606	-2.961005
C	0.351828	-1.454721	-2.062802
H	0.429212	-1.415029	-3.153113
H	-0.335643	-2.25479	-1.787223
H	1.336528	-1.64371	-1.6249
N	-0.609198	-1.196624	0.631725
O	0.06129	-2.228314	0.698057
O	-1.771108	-1.099274	1.031031
N	-0.509629	1.184369	0.612111
H	0.179376	1.908669	0.464779
H	-1.379977	1.467731	0.176493
F	2.647767	0.0	0.0
