18

C	-0.299721	-0.175707	-1.473521
C	0.0	0.0	0.0
Br	-2.465695	-0.748568	-1.59397
H	1.101409	0.0	0.0
N	-0.146336	1.031285	-2.099453
H	-0.392423	1.038132	-3.076132
H	-0.493364	1.804972	-1.548549
C	0.436653	-1.290575	-2.171377
H	1.477316	-1.15543	-1.853369
H	0.086622	-2.269876	-1.866092
H	0.341014	-1.183919	-3.255564
N	-0.421181	-1.185278	0.81255
O	-1.098519	-0.986043	1.82482
O	-0.026589	-2.293007	0.462475
N	-0.527013	1.226639	0.508656
H	-1.461174	1.0764	0.873046
H	0.068201	1.538239	1.264922
F	2.551581	0.0	0.0
