18

C	-0.242392	-0.148717	-1.540325
C	0.0	0.0	0.0
Br	-0.15507	1.702015	-2.281432
H	1.101064	0.0	0.0
N	0.837376	-0.87179	-2.164014
H	1.694412	-0.599935	-1.654237
H	0.693072	-1.852064	-1.945299
C	-1.601252	-0.698767	-1.928778
H	-1.701664	-0.695725	-3.016114
H	-2.397489	-0.09407	-1.489845
H	-1.696658	-1.729962	-1.571903
N	-0.423775	-1.294117	0.636906
O	-1.198394	-1.263053	1.600796
O	0.011227	-2.348114	0.171576
N	-0.601923	1.113716	0.659356
H	0.114348	1.573742	1.205167
H	-1.331853	0.795361	1.282879
F	2.603831	0.0	0.0
