18

C	-0.100455	-0.124123	-1.527745
C	0.0	0.0	0.0
Br	-2.013078	0.038078	-2.112612
H	1.101945	0.0	0.0
N	0.645001	0.978291	-2.099753
H	0.298985	1.817975	-1.641627
H	1.585639	0.833704	-1.703317
C	0.478981	-1.413768	-2.067704
H	0.549315	-1.324884	-3.15265
H	1.475851	-1.493646	-1.624003
H	-0.108878	-2.288427	-1.800159
N	-0.553481	-1.182867	0.736858
O	0.004661	-2.271181	0.596783
O	-1.5373	-1.00671	1.467645
N	-0.517591	1.239266	0.477419
H	-0.038911	1.485039	1.334284
H	-1.509108	1.15969	0.66744
F	2.615677	0.0	0.0
