18

C	-0.471056	0.03063	-1.472217
C	0.0	0.0	0.0
Br	-0.262865	-1.766995	-2.26909
H	1.090141	0.0	0.0
N	-1.84926	0.419822	-1.6975
H	-2.449876	-0.190664	-1.15055
H	-1.932189	1.352391	-1.299762
C	0.491687	0.965707	-2.185123
H	1.511197	0.694193	-1.895396
H	0.336141	0.923537	-3.264481
H	0.29974	1.982371	-1.829117
N	-0.57673	-1.184739	0.714681
O	0.128912	-2.161868	0.935761
O	-1.777393	-1.113394	1.033495
N	-0.443231	1.22787	0.624829
H	-1.318221	1.083581	1.112903
H	0.276089	1.508613	1.278661
F	2.621696	0.0	0.0
