14

C	0.0	0.0	0.0
C	-0.45229	0.116723	-1.454636
Br	2.064869	0.0	0.0
H	-1.542071	0.00244	-1.394765
H	-0.015239	-0.702439	-2.034863
N	-0.521705	1.023933	0.738096
H	-0.429687	1.016601	1.737052
H	-0.527499	1.912537	0.262011
C	-0.288076	-1.319055	0.560395
N	-0.488283	-2.380377	1.021751
N	-0.127634	1.450289	-1.943381
H	0.788085	1.456203	-2.372055
H	-0.816631	1.739803	-2.623152
Br	-3.944991	0.0	0.0
