14

C	0.0	0.0	0.0
C	-0.546434	-0.270772	-1.399824
Br	2.018256	0.0	0.0
H	-0.040872	0.409696	-2.092467
H	-1.610567	-0.006564	-1.319884
N	-0.506321	1.205675	0.499649
H	-0.395981	1.985034	-0.131705
H	-0.219804	1.427616	1.440522
C	-0.31887	-1.101275	0.916211
N	-0.537822	-1.974894	1.670075
N	-0.320039	-1.65518	-1.790459
H	-0.228865	-1.719808	-2.79473
H	-1.140444	-2.189173	-1.525429
Br	-3.973647	0.0	0.0
