16
Coordinates from ORCA-job run
  C   0.50767668243659     -0.02092868830540      0.61643617207307
  C   -0.59507426399743      0.19726250157961     -0.42608375919208
  Br  2.06652438560877      1.10722308009511      0.27805971528950
  H   -1.38509587462144     -0.54296567664085     -0.28795953277535
  C   0.96601113492116     -1.48324634343383      0.62809670542562
  H   0.10940465713139     -2.14083609126440      0.79798006785617
  H   1.68400942138967     -1.61961527228785      1.43672322852426
  H   1.43845249804333     -1.74725205161247     -0.31623703692355
  C   -0.04782723371104      0.31428661185578      1.92605550658843
  N   -0.50683780706645      0.48737800804371      2.99459539913988
  N   -0.08531331140352      0.01620988793137     -1.83055397031140
  O   0.22104860885805      1.02224189676391     -2.45510849396469
  O   -0.00951407056437     -1.14936326734210     -2.20561719478293
  N   -1.27882949472716      1.53783258059987     -0.38224272064317
  O   -0.78962808510157      2.43171987313857      0.29469338202424
  O   -2.29400724719599      1.59005295087897     -1.06783746832801
