16
Coordinates from ORCA-job run
  C   0.26518055152569      0.03252725406974      0.84656463379404
  C   -0.68563252738349      0.55585975609852     -0.24044094539769
  Br  0.88751256275117      1.61247736774282      1.83517173951041
  H   -1.56039152275506      1.03218789937623      0.19832882924752
  C   1.45439105818441     -0.80131021480060      0.37640024832406
  H   2.02486055497004     -1.11513205021487      1.25128533979144
  H   2.09004889271217     -0.22412459710434     -0.28866427351228
  H   1.09782952274327     -1.69361023911876     -0.14299448106697
  C   -0.54570993082779     -0.74966651913285      1.77897866900564
  N   -1.17098481063688     -1.41244206636593      2.52246243967048
  N   -1.18940408492915     -0.59333935961961     -1.08111830907377
  O   -2.23107847224470     -1.10895801939779     -0.69265308136236
  O   -0.50158939471118     -0.92481660866367     -2.03967595879146
  N   -0.10119334045187      1.55570256700335     -1.19754618888739
  O   1.10248010265668      1.54031720864480     -1.41574731328142
  O   -0.93631916160331      2.29432762148296     -1.71235134797024
