16
Coordinates from ORCA-job run
  C   0.16869881371872     -0.02286006777925      0.87211867488925
  C   -0.69240410112185      0.51956176919667     -0.27720830747044
  Br  0.56507231316101      1.54101744415964      2.00553428070941
  H   -1.56287677375355      1.05680734862932      0.09863994402288
  C   1.48830136990103     -0.69231643981774      0.49901214927698
  H   1.97488368290879     -1.02786514131693      1.41532455973476
  H   2.14357348200547      0.01179809641682     -0.00986821242552
  H   1.30276427646071     -1.55046891444496     -0.14465128038986
  C   -0.67664574535761     -0.90868899529528      1.66904800994288
  N   -1.35325125127055     -1.61496261338749      2.32171588287483
  N   -1.22449512683924     -0.55068138819144     -1.20578303321717
  O   -0.90322813625679     -1.71601038968312     -1.01026329768409
  O   -1.96020723749408     -0.12167987994195     -2.08568145838524
  N   0.06148509757683      1.46691442005563     -1.16517170423661
  O   0.90624055312205      0.95810298036740     -1.89632905591876
  O   -0.23891121676094      2.65133177103269     -1.08543715172332
