16
Coordinates from ORCA-job run
  C   0.50570822492793      0.05589021105343      0.66818888606831
  C   -0.12612420300614      0.54119727531955     -0.63261446819619
  Br  1.63752067625931      1.52895713138674      1.30106767675500
  H   0.63763512950606      0.81717201306082     -1.35737314970023
  C   1.39729952132109     -1.15876647244244      0.39925902907082
  H   0.78860617781246     -2.01596965208738      0.10427606771927
  H   2.11467360652439     -0.93609757964693     -0.39215912850160
  H   1.93826990126864     -1.41339138586514      1.31051588823062
  C   -0.46800626419543     -0.27173033988775      1.70405712125411
  N   -1.18061531457470     -0.64686271040117      2.56072040698107
  N   -1.05170265651830      1.71956684532128     -0.50490822109951
  O   -1.49043832710872      2.00603645049206      0.60014670547980
  O   -1.29929100215205      2.26994440225730     -1.57350646793021
  N   -0.94498176928672     -0.56030823047842     -1.25413284412491
  O   -0.38909834832035     -1.20363814927276     -2.13794246172545
  O   -2.06945535245748     -0.73199980880919     -0.79659504028091
