16
Coordinates from ORCA-job run
  C   0.49905965499270      0.03926177977927      0.62221737205328
  C   -0.61973591666796      0.10548356602779     -0.42405696585998
  Br  1.81383542096770      1.46339123886517      0.37711931319710
  H   -1.25285543438987     -0.77984646449055     -0.34343759341235
  C   1.22951756378406     -1.30634061971551      0.55590783433546
  H   1.74881152596813     -1.41722385825430     -0.39420111321588
  H   0.51414673626413     -2.12467544926408      0.67261123368092
  H   1.95610289086434     -1.35186814736362      1.36707232028636
  C   -0.11725166101204      0.18145311644799      1.93980712820235
  N   -0.60683161629409      0.19560720452740      3.00870446557075
  N   -0.07720759233108      0.11213430901206     -1.82790884668204
  O   0.03147182687479      1.19446086852762     -2.38714984897805
  O   0.22465006154503     -0.99184746994303     -2.26957125264979
  N   -1.54867050732527      1.28468477922016     -0.31228437811133
  O   -2.55219825502896      1.18287185452473     -1.00940839690989
  O   -1.24384469821162      2.21245329209890      0.42457872849309
