16

C	-0.568667	0.008819	-1.426595
C	0.0	0.0	0.0
Br	0.330001	1.305893	-2.551966
H	1.08874	0.0	0.0
N	-0.190456	-1.37187	-2.06459
O	0.846815	-1.90124	-1.700389
O	-0.980899	-1.793208	-2.904018
N	-1.95615	0.240179	-1.443737
H	-2.324904	0.087745	-2.373721
H	-2.428897	-0.365191	-0.779815
C	-0.522374	-1.166327	0.702449
N	-0.960804	-2.126039	1.219863
N	-0.488027	1.245075	0.697801
O	-1.532254	1.162497	1.346444
O	0.191243	2.250574	0.545005
Cl	3.194045	0.0	0.0
