16

C	-0.462792	0.005832	-1.439812
C	0.0	0.0	0.0
Br	0.150233	-1.721723	-2.254423
H	1.093107	0.0	0.0
N	-1.989483	-0.084858	-1.624499
O	-2.589936	-0.821782	-0.862849
O	-2.481088	0.622772	-2.498557
N	-0.012853	1.160311	-2.081104
H	0.998467	1.196768	-2.136857
H	-0.453583	1.301401	-2.980669
C	-0.476253	-1.072107	0.842365
N	-0.767475	-1.916904	1.609199
N	-0.413513	1.330572	0.600028
O	-1.61629	1.575041	0.644061
O	0.489292	2.060652	0.986864
Cl	2.682699	0.0	0.0
