16

C	-0.470027	0.015882	-1.426752
C	0.0	0.0	0.0
Br	0.133739	-1.734648	-2.245461
H	1.093086	0.0	0.0
N	-2.010363	0.036359	-1.525259
O	-2.466316	0.535288	-2.574826
O	-2.592946	-0.864269	-0.909782
N	0.000538	1.159413	-2.068442
H	1.016662	1.185027	-2.082667
H	-0.416172	1.288563	-2.980912
C	-0.475604	-1.071406	0.840166
N	-0.757508	-1.923372	1.600776
N	-0.425897	1.319879	0.611281
O	-1.632928	1.566091	0.637461
O	0.459125	2.078333	0.985926
Cl	2.862481	0.0	0.0
