16
Coordinates from ORCA-job run
  C   -0.71688645735682      0.14458009269875     -0.54226762211319
  C   0.73541879536459      0.52348002835170     -0.21001175929768
  H   -0.74109410231264     -0.16465369416238     -1.59210275270768
  H   1.07133894339474      1.31909753123740     -0.87801191705158
  C   -1.54760797890374      1.34237623439811     -0.40985469416912
  N   -2.23055378442487      2.29212042901845     -0.31175315731991
  C   -1.25113681027418     -0.98820184739318      0.33903125155901
  H   -0.61860097002169     -1.87456707470943      0.25728816419131
  H   -1.30337320281542     -0.67781279099225      1.38373222765980
  H   -2.25882203843848     -1.26026618608078      0.02235226175572
  N   1.57689434128430     -0.69588868477837     -0.64280225814742
  O   1.62549652596865     -0.91851323323430     -1.84851840826956
  O   2.10363223279027     -1.36787352149419      0.23972359206906
  N   0.91372532985640      0.89562292477132      1.13947237601340
  H   1.81520366743648      1.32655687939251      1.29166164408947
  H   0.82736550845241      0.10294291297665      1.76106105173836
