16
Coordinates from ORCA-job run
  C   -0.73914022280022      0.11653262094959     -0.51945907733422
  C   0.71537336872619      0.53340197535004     -0.24701485283381
  H   -0.79225196793854     -0.21827557956094     -1.56037200924202
  H   1.00970665044686      1.32169502474999     -0.94276749878530
  C   -1.59018143866098      1.29962568260922     -0.38580240438642
  N   -2.28921375635357      2.23705231480512     -0.28345996436139
  C   -1.21771929038099     -1.00583883069476      0.40592346435375
  H   -2.23067619817965     -1.30475544223749      0.13289431664275
  H   -0.57071181329327     -1.88151774122971      0.32035748385396
  H   -1.23781283120946     -0.67255523528559      1.44473980017292
  N   1.56849729417951     -0.67575124354051     -0.68408131925094
  O   1.58318369361712     -0.92050962904107     -1.88648851918974
  O   2.13994302782875     -1.31813560050375      0.19271233446522
  N   0.93232130858360      0.93852066717695      1.08754617726284
  H   1.82911431728707      1.39170110424214      1.19785495113453
  H   0.88756785814760      0.15680991221077      1.72741711749787
