16
Coordinates from ORCA-job run
  C   -0.70092703823564      0.15402028000920     -0.56696975830774
  C   0.76862239168432      0.40837969026644     -0.18972254966964
  H   -0.73763393352204     -0.03641942294426     -1.64318912405023
  H   1.19698152810744      1.15099007996047     -0.87928815543963
  C   -1.43293779788464      1.39200529768808     -0.29377773255001
  N   -1.99117006484503      2.39431098924165     -0.04255647086253
  C   -1.30380728212417     -1.02700523310671      0.19753289065777
  H   -2.36476748115893     -1.12412227655568     -0.03738589590884
  H   -1.18356994334991     -0.88284334278214      1.27016108091457
  H   -0.80592748477827     -1.95236849649386     -0.09758631364231
  N   1.54650529507890     -0.84947724056433     -0.51263178824758
  O   2.32166918434351     -1.28610704881942      0.33077111628104
  O   1.36314969793797     -1.31584154216043     -1.63305853285624
  N   0.90141669467806      0.69907198365751      1.20906359535944
  H   0.55194401513528      1.63152650700910      1.39518434934996
  H   1.87045221893315      0.64387977559438      1.49445328897196
