16
Coordinates from ORCA-job run
  C   -0.65081484401090     -0.14279060909416     -0.30174489228460
  C   0.78878358041464      0.24403313121433      0.08644188115538
  H   -0.60461615810351     -1.14293997847604     -0.74846354627407
  H   0.82606838657494      1.27215788747909      0.44983816928592
  C   -1.16075522773254      0.77992026091729     -1.31822539071002
  N   -1.57637491436555      1.54398493359697     -2.10746285469847
  C   -1.56920833366750     -0.15200669074840      0.92227561362767
  H   -1.59362918565051      0.83332199190275      1.39365335751176
  H   -1.22186802483500     -0.88563013102377      1.65090684803475
  H   -2.58726025739076     -0.41565210845084      0.63279410008290
  N   1.60709267576761      0.23808689297496     -1.18126938907684
  O   2.08277708135393      1.30032555062363     -1.56661627844312
  O   1.72765164168921     -0.85823185910589     -1.72320720204793
  N   1.44661202740275     -0.62563873200766      1.01132213445886
  H   1.23823605395153     -0.38864431807522      1.96955477336101
  H   1.24730549860168     -1.60029622172703      0.83020267601679
