16
Coordinates from ORCA-job run
  C   -0.68997907621182     -0.16577131274593     -0.29041487619263
  C   0.70143326439288      0.24673701976316      0.20517390543060
  H   -0.57076922619737     -1.10780007379927     -0.83970851982879
  H   0.66318793606880      1.20454581209804      0.72677825911134
  C   -1.20840898119105      0.83065124189588     -1.23067477543805
  N   -1.64939189545033      1.63705475669908     -1.96161996646457
  C   -1.65678155549725     -0.35738855618835      0.88100609996155
  H   -1.26558267759356     -1.11319829312024      1.56004612426064
  H   -2.63577423441576     -0.66991334518462      0.51432011216617
  H   -1.77873526454802      0.57920714020830      1.42953271144104
  N   1.55269521514270      0.51868762490896     -1.03325880154308
  O   1.84963347066932     -0.46906555128007     -1.70345150817788
  O   1.87241630356546      1.68039943495292     -1.26611573026414
  N   1.25650051195065     -0.76474769921704      1.03637876886620
  H   2.11085859408364     -0.45320813577160      1.47995259308204
  H   1.44969761523172     -1.59819006321921      0.49305560358955
