16
Coordinates from ORCA-job run
  C   -0.72666407571969      0.26029969373396     -0.27153698143626
  C   0.81797607719846      0.28115577535836     -0.36131704369591
  H   -1.06612877442701      0.97197750786600     -1.03482220087385
  H   1.10911020142899      0.05877916432388     -1.38879762648671
  C   -1.17297913562303      0.78593637287262      1.02038570429159
  N   -1.53518210286268      1.22784502285579      2.04641787378577
  C   -1.33490924303066     -1.11589087022786     -0.55684650676805
  H   -0.94368203665092     -1.51456415398868     -1.49509818046805
  H   -1.09646508587707     -1.81971701468011      0.24171166757963
  H   -2.42052909819666     -1.04027501914373     -0.63249290634912
  N   1.32567063711241     -0.88440427490738      0.44504047892960
  O   1.33037949851638     -0.73630373971343      1.66342516729854
  O   1.64797388174422     -1.89924132395620     -0.16797832594923
  N   1.49223186282783      1.45520981042010      0.09347212598759
  H   1.43881523268854      2.19732474532041     -0.58977398151505
  H   1.13538216087089      1.77286830386626      0.98621073566950
