14

C	0.0	0.0	0.0
C	-0.487362	-0.006227	-1.430071
F	1.356704	0.0	0.0
H	-1.583173	0.065135	-1.442185
H	-0.03141	0.826172	-1.962304
N	-0.366107	1.347416	0.644627
O	-0.394739	2.312953	-0.108517
O	-0.451232	1.364488	1.863441
C	-0.461363	-1.084521	0.869703
N	-0.602509	-1.988207	1.607547
N	-0.08443	-1.241357	-2.15512
O	-0.291912	-1.225066	-3.365431
O	0.409691	-2.177277	-1.530504
Br	-3.447697	0.0	0.0
