14

C	0.0	0.0	0.0
C	-0.162601	0.219706	-1.524001
F	1.373917	0.0	0.0
H	0.533892	1.028025	-1.736581
H	0.194407	-0.707884	-1.971058
N	-0.346224	1.191541	0.869439
O	-0.277265	2.285308	0.324073
O	-0.480368	0.967403	2.06482
C	-0.470605	-1.255042	0.57422
N	-0.49593	-2.346532	1.016839
N	-1.385402	0.590317	-2.294337
O	-1.857144	-0.28959	-3.008729
O	-1.698791	1.77337	-2.299463
Br	-3.129459	0.0	0.0
