14

C	0.0	0.0	0.0
C	-0.143349	0.274534	-1.515077
F	1.381243	0.0	0.0
H	0.281963	1.265367	-1.65712
H	0.499139	-0.481498	-1.96728
N	-0.35861	1.163293	0.90454
O	-0.441955	0.898968	2.096098
O	-0.35774	2.274932	0.394604
C	-0.470508	-1.272749	0.527106
N	-0.471567	-2.377882	0.936222
N	-1.37865	0.234412	-2.343267
O	-1.713618	-0.866679	-2.765831
O	-1.847783	1.316527	-2.678671
Br	-3.122979	0.0	0.0
