15

C	0.0	0.0	0.0
C	-0.474937	0.438742	-1.387998
Br	1.965729	0.0	0.0
H	-0.547688	1.532556	-1.396407
H	-0.242441	-1.054819	0.14973
H	0.279843	0.167836	-2.130691
C	-0.571694	0.827113	1.130421
H	-0.262051	0.444132	2.104522
H	-1.664803	0.782134	1.069263
H	-0.253798	1.868966	1.045304
C	-1.808171	-0.196081	-1.773956
H	-1.701413	-1.283092	-1.849529
H	-2.625261	0.006122	-1.07969
H	-2.121782	0.172423	-2.755455
Br	-5.026185	0.0	0.0
