14

C	-0.464268	-0.087354	-1.467418
C	0.0	0.0	0.0
F	0.116337	0.93578	-2.173411
H	1.101416	0.0	0.0
C	-0.09771	-1.371968	-2.092193
N	0.145209	-2.398024	-2.60972
C	-1.931565	0.078789	-1.543111
N	-3.09742	0.213608	-1.590597
C	-0.498877	-1.163156	0.735837
N	-0.95105	-2.050825	1.35976
N	-0.444934	1.270549	0.546406
H	-1.200308	1.159128	1.20894
H	0.342416	1.717835	0.998516
Cl	3.198454	0.0	0.0
