14

C	-0.492014	0.03898	-1.457008
C	0.0	0.0	0.0
F	-0.133966	-1.115747	-2.115255
H	1.094719	0.0	0.0
C	-1.967092	0.148955	-1.486246
N	-3.138684	0.229598	-1.46849
C	0.077121	1.202209	-2.159089
N	0.507243	2.135314	-2.727242
C	-0.491785	-1.223743	0.638894
N	-0.918932	-2.170675	1.188808
N	-0.440832	1.225845	0.645253
H	0.325356	1.601341	1.189723
H	-1.24484	1.081549	1.240743
Cl	3.19532	0.0	0.0
