14

C	-0.492144	0.062847	-1.456198
C	0.0	0.0	0.0
F	-0.133905	-1.082059	-2.132872
H	1.09472	0.0	0.0
C	-1.967432	0.172881	-1.484272
N	-3.139206	0.254046	-1.472699
C	0.075685	1.236849	-2.139751
N	0.501981	2.181729	-2.691057
C	-0.492801	-1.232532	0.619215
N	-0.920574	-2.185378	1.158261
N	-0.441273	1.215187	0.66537
H	-1.244232	1.060147	1.259017
H	0.325134	1.581695	1.21543
Cl	3.197054	0.0	0.0
