14

C	-0.502163	0.061567	-1.445097
C	0.0	0.0	0.0
F	-1.896641	0.097093	-1.438033
H	1.095186	0.0	0.0
C	-0.033192	1.292472	-2.101286
N	0.332538	2.275587	-2.628537
C	-0.09846	-1.117484	-2.22965
N	0.184073	-2.048263	-2.887459
C	-0.488283	-1.2388	0.618144
N	-0.903968	-2.191308	1.167009
N	-0.431536	1.205777	0.685083
H	0.302385	1.495874	1.317902
H	-1.292103	1.067184	1.195951
Cl	3.185402	0.0	0.0
