14

C	-0.500891	0.024058	-1.446745
C	0.0	0.0	0.0
F	-1.894641	0.061433	-1.441856
H	1.095191	0.0	0.0
C	-0.029246	1.236159	-2.134684
N	0.336001	2.202624	-2.691696
C	-0.097466	-1.175006	-2.201159
N	0.183171	-2.123195	-2.834929
C	-0.490695	-1.220405	0.651266
N	-0.911798	-2.158567	1.220395
N	-0.430912	1.224792	0.651247
H	-1.287419	1.100132	1.17186
H	0.306541	1.536464	1.269641
Cl	3.18769	0.0	0.0
