14

C	-0.493224	0.048034	-1.456347
C	0.0	0.0	0.0
F	-0.134806	-1.102563	-2.12238
H	1.094713	0.0	0.0
C	-1.968581	0.156251	-1.481902
N	-3.140247	0.23745	-1.46318
C	0.073465	1.215537	-2.152617
N	0.497442	2.152489	-2.719072
C	-0.490447	-1.2283	0.630113
N	-0.914424	-2.181059	1.172315
N	-0.441988	1.221694	0.653701
H	0.325652	1.595012	1.197025
H	-1.241934	1.071331	1.252677
Cl	3.196556	0.0	0.0
