14

C	-0.463833	0.035755	-1.469729
C	0.0	0.0	0.0
F	0.128295	1.104104	-2.093231
H	1.095095	0.0	0.0
C	-0.11393	-1.199712	-2.194715
N	0.116099	-2.186539	-2.78843
C	-1.929399	0.224945	-1.529751
N	-3.093928	0.375443	-1.556487
C	-0.500877	-1.220263	0.637894
N	-0.947252	-2.152099	1.198758
N	-0.440971	1.221743	0.649527
H	-1.22518	1.066822	1.269741
H	0.337262	1.607057	1.16991
Cl	3.196618	0.0	0.0
