14

C	-0.497391	0.017968	-1.45504
C	0.0	0.0	0.0
F	-0.154008	-1.149124	-2.098756
H	1.097299	0.0	0.0
C	-1.971671	0.139385	-1.478008
N	-3.143943	0.209586	-1.48849
C	0.074103	1.165618	-2.180551
N	0.472308	2.070687	-2.814149
C	-0.49494	-1.209311	0.661019
N	-0.945891	-2.133831	1.229345
N	-0.439251	1.237767	0.624897
H	0.335504	1.642415	1.134869
H	-1.225883	1.10153	1.24536
Cl	3.19361	0.0	0.0
