12
Coordinates from ORCA-job run
  C   0.12399888662840     -0.11481260813359      0.41406616565858
  C   -0.55948018435619      1.10757280490860     -0.17978747376092
  H   0.44963790555687      0.06726811115867      1.43795135419370
  H   0.09317666956145      1.98315873563054     -0.14447336302240
  H   -0.82697954954497      0.90823820383271     -1.21976238542749
  H   -1.46865292329291      1.32526283604755      0.38395291230161
  N   1.40479816116319     -0.31453511543502     -0.36090197045256
  O   1.28336025302879     -0.77109686903502     -1.49345800186800
  O   2.45638197973916      0.02735002418542      0.17313726807023
  N   -0.60240516209580     -1.35289232147048      0.35997479435867
  H   -1.11053753525567     -1.44076994863757     -0.50992018909833
  H   -1.24329850113233     -1.42474385305183      1.13722088904690
