12
Coordinates from ORCA-job run
  C   0.01704130516141     -0.06824855237291      0.45102838774964
  C   -0.53464385877843      1.20459005932071     -0.16187842737409
  H   0.37375240671792      0.10247391223330      1.46776080580828
  H   0.20299727745878      2.00594433631589     -0.11774854234526
  H   -0.80211770357116      1.02787498211047     -1.20720084130237
  H   -1.43004700644545      1.50186206269250      0.38358854199489
  N   1.30952466639996     -0.38422321071450     -0.32498017271333
  O   1.23429327310528     -1.19927232731685     -1.24110877622953
  O   2.31409800036858      0.23988364661204      0.00352291555716
  N   -0.92614873515582     -1.12608542366579      0.42631901954303
  H   -0.55406392528267     -1.96820499806363      0.84493435669417
  H   -1.20468569997841     -1.33659448715122     -0.52323726738258
