12
Coordinates from ORCA-job run
  C   0.12592788788653     -0.12722052399508      0.41197812631277
  C   -0.54486641975587      1.11891658233499     -0.14647256455089
  H   0.46186992157788      0.02539942183416      1.43737565689475
  H   -0.82067108020111      0.95012291005840     -1.18968059596204
  H   -1.44832240182348      1.33330983616832      0.42770993982094
  H   0.11917323157789      1.98490127690778     -0.09165567342669
  N   1.39715542560872     -0.32552410834550     -0.37822598042939
  O   1.26025567323971     -0.76076206751121     -1.51750847935754
  O   2.45672684536766     -0.00117370384173      0.15074361471110
  N   -0.61758407359181     -1.35432059068064      0.33408107829987
  H   -1.11914874734477     -1.42033216629137     -0.54174570527178
  H   -1.26851626254136     -1.42431686663812      1.10340058295890
