17

C	-0.476301	0.012198	-1.468408
C	0.0	0.0	0.0
Cl	0.350461	1.259584	-2.397332
H	1.093779	0.0	0.0
N	-0.16951	-1.352793	-2.096593
O	0.995009	-1.584454	-2.371041
O	-1.119227	-2.128884	-2.19638
C	-1.919956	0.229019	-1.543894
N	-3.07826	0.427909	-1.540805
C	-0.496975	-1.243332	0.727914
H	-0.159242	-1.176403	1.764165
H	-1.590575	-1.315687	0.714577
H	-0.077757	-2.159812	0.30936
N	-0.455597	1.250078	0.587062
H	-1.262088	1.103844	1.181426
H	0.296339	1.652469	1.130826
Cl	3.38325	0.0	0.0
