17

C	-0.507025	-0.006537	-1.449687
C	0.0	0.0	0.0
Cl	-2.287035	-0.103316	-1.514902
H	1.094193	0.0	0.0
N	-0.063053	1.308301	-2.128122
O	-0.883149	2.197772	-2.277722
O	1.120904	1.328164	-2.425853
C	0.036027	-1.104186	-2.24171
N	0.457658	-1.991572	-2.887015
C	-0.429064	-1.263985	0.736424
H	-0.116834	-2.166786	0.205369
H	0.069345	-1.265429	1.708188
H	-1.511724	-1.29858	0.891109
N	-0.424551	1.243421	0.617264
H	0.322489	1.580368	1.210701
H	-1.263964	1.12003	1.169952
Cl	3.338148	0.0	0.0
