17

C	-0.474694	-0.022074	-1.462788
C	0.0	0.0	0.0
Cl	-2.257664	-0.106654	-1.570869
H	1.094212	0.0	0.0
N	-0.004064	1.279769	-2.145512
O	-0.805396	2.184603	-2.310895
O	1.184978	1.27329	-2.429216
C	0.084001	-1.136565	-2.220225
N	0.521784	-2.051318	-2.813538
C	-0.446939	-1.256036	0.73867
H	-0.113714	-2.16322	0.228069
H	0.017109	-1.244151	1.727476
H	-1.534621	-1.29212	0.855505
N	-0.431937	1.252131	0.594425
H	-1.287484	1.139175	1.123742
H	0.301795	1.590926	1.202905
Cl	3.354261	0.0	0.0
