17

C	-0.506967	-0.021297	-1.448837
C	0.0	0.0	0.0
Cl	-2.286964	-0.126473	-1.510117
H	1.094115	0.0	0.0
N	-0.07121	1.286839	-2.139974
O	-0.884416	2.18649	-2.263013
O	1.105628	1.295185	-2.472135
C	0.038187	-1.128745	-2.226614
N	0.409713	-2.057243	-2.843991
C	-0.426313	-1.259014	0.746627
H	0.081767	-1.257603	1.713676
H	-1.507893	-1.28921	0.911296
H	-0.122545	-2.165122	0.216327
N	-0.425088	1.245993	0.611748
H	-1.23877	1.116831	1.199264
H	0.33809	1.610188	1.16758
Cl	3.337242	0.0	0.0
