17

C	-0.429656	0.007748	-1.499866
C	0.0	0.0	0.0
Cl	0.342236	1.339573	-2.368398
H	1.09478	0.0	0.0
N	-0.013025	-1.311749	-2.15543
O	-0.900858	-2.157056	-2.262493
O	1.164281	-1.441879	-2.441651
C	-1.879261	0.135491	-1.627591
N	-3.044527	0.292057	-1.632543
C	-0.507297	-1.257219	0.688552
H	-1.599132	-1.340517	0.648666
H	-0.198309	-1.191027	1.731885
H	-0.06848	-2.160209	0.262811
N	-0.460871	1.175912	0.699688
H	0.037313	1.997914	0.387132
H	-1.45946	1.317075	0.597091
Cl	3.393027	0.0	0.0
