17

C	-0.394407	-0.009333	-1.504766
C	0.0	0.0	0.0
Cl	-2.168123	-0.051852	-1.724867
H	1.095454	0.0	0.0
N	0.134814	1.283725	-2.142305
O	-0.589144	2.271294	-2.104124
O	1.280892	1.224279	-2.563433
C	0.175143	-1.132089	-2.237208
N	0.625668	-2.057435	-2.805055
C	-0.483173	-1.274226	0.67382
H	-0.056898	-1.286209	1.676952
H	-1.573565	-1.298457	0.755322
H	-0.141561	-2.165935	0.143826
N	-0.461435	1.167657	0.710023
H	0.122865	1.966719	0.504034
H	-1.42425	1.390216	0.489572
Cl	3.364648	0.0	0.0
