15
Coordinates from ORCA-job run
  C   -0.70601216410312     -0.65759143443390     -0.10821813759578
  C   0.65168857690922      0.02096205133450     -0.34986095273225
  H   -0.56863821899997     -1.58328228505886      0.45908481008819
  H   1.08690608622234     -0.37663765158759     -1.26811858864640
  C   -1.39627470210810     -0.92107565322979     -1.36165382361575
  N   -1.93559251864060     -1.20108793029433     -2.36543333113423
  N   -1.54344477148970      0.23322239423765      0.78525515036412
  O   -1.00936570862569      0.51747258461223      1.85590469412135
  O   -2.66910006025618      0.53912931836862      0.42435242783459
  N   1.63114646979715     -0.44085265404699      0.74260926467947
  O   2.68717927038007      0.19181527629233      0.76987249821805
  O   1.37485810400034     -1.44699318729847      1.39459430782619
  N   0.55368530390362      1.43729502120336     -0.46637006930030
  H   0.48749500795418      1.87751892957710      0.44296401575166
  H   1.35546932505643      1.81110522032415     -0.95498226585891
