15
Coordinates from ORCA-job run
  C   -0.66867370576843     -0.55640902315869      0.15138470585036
  C   0.57000020783193      0.27542238430353     -0.18594654814715
  H   -0.57317844537610     -0.99050983070756      1.14626124008895
  H   0.57822685221497      0.52850009836675     -1.25344707300553
  C   -0.96450771930430     -1.57030616447443     -0.85438120365914
  N   -1.21630452132564     -2.35364325917982     -1.69241519862172
  N   -1.85677893205376      0.38061717286647      0.21127685791729
  O   -1.89978279619045      1.26196360641421     -0.64283557704627
  O   -2.68330203888714      0.16121397055717      1.08499083640004
  N   1.79393906254135     -0.58983776418001      0.02233014100910
  O   1.63190068759654     -1.79011289072517      0.21765668175192
  O   2.86886881460761     -0.00490494792276     -0.04584807529993
  N   0.67415996016271      1.38943179520268      0.72179157499475
  H   1.63818721683373      1.70269288213743      0.74181934783875
  H   0.10724535711698      2.15388197050018      0.37536228992857
