15
Coordinates from ORCA-job run
  C   -0.65505232378738     -0.50470468928295      0.07184711305226
  C   0.63035555453947      0.31367192701186     -0.17745847925833
  H   -0.64528582211264     -0.91209943563140      1.08429868159351
  H   0.66563886824999      0.64144878587702     -1.21594844563289
  C   -0.84748966952354     -1.55140075811482     -0.92068701566614
  N   -0.96901274321582     -2.40034192163822     -1.72334992162214
  N   -1.78708691356241      0.48525001933119      0.00941862077217
  O   -2.31661956295643      0.77487962950416      1.07709052638552
  O   -2.02917211431253      0.96671543824757     -1.09174351468345
  N   1.76710965864099     -0.66612284937281      0.00045341701186
  O   2.49347187724141     -0.87975360451083     -0.96276780725048
  O   1.86356105189628     -1.15579374531689      1.12315232428695
  N   0.83548260773180      1.40447215172157      0.70533092878915
  H   0.44108103456675      2.26700277176627      0.36288800916409
  H   0.55301849660406      1.21877628040828      1.65747556305791
