15
Coordinates from ORCA-job run
  C   -0.88061114129601     -0.27044864142804     -0.21629311086226
  C   0.64797183298013     -0.42198938680403     -0.11091754390224
  H   -1.21435504182614     -1.01072712782045     -0.94880487229989
  H   0.87788685810262     -1.29417087813308      0.50350591844259
  C   -1.27589089759011      1.06415020661577     -0.64790555920964
  N   -1.48166889926780      2.18386474967209     -0.99390212805349
  N   -1.56494462424107     -0.63702327430919      1.08181275234596
  O   -1.17221104122371     -1.66600922253757      1.58163770106199
  O   -2.46403959401818      0.04654590211268      1.48649179528994
  N   1.13429871795381      0.78310722906637      0.72787385805563
  O   0.55588120775859      0.94996858009455      1.80309215021911
  O   2.06961017955615      1.53920742229539      0.24803643276739
  N   1.23887915655507     -0.45660044860394     -1.39582145239231
  H   1.63155783644795      0.37954691284143     -1.63510290803545
  H   1.89563545010869     -1.19142202306197     -1.48270303342735
