15
Coordinates from ORCA-job run
  C   -0.81195415523261     -0.34991030268002     -0.33560647708611
  C   0.70714579947161     -0.32750407852356     -0.13364323678745
  H   -1.00732350052906     -1.00562358888915     -1.18683446388408
  H   1.02128678103137     -1.30014619439038      0.24554535656453
  C   -1.31186388592964      0.99398956570532     -0.60111547763394
  N   -1.61852234097550      2.08733976309909     -0.90661317044166
  N   -1.53768040958636     -0.99608993818879      0.82690353725140
  O   -1.06406889780594     -2.06384978307339      1.20219967555688
  O   -2.55637980328353     -0.46375446314800      1.24235597684210
  N   0.99502117666599      0.65721331378241      1.00842424160766
  O   1.88286871095606      1.49001163476134      0.83686318771393
  O   0.30337111834404      0.55566297172483      2.01062502062718
  N   1.36923939880393     -0.01892502152690     -1.34476633358637
  H   1.26574960669239      0.95188286701377     -1.59427383764551
  H   2.36211040137725     -0.21129674566656     -1.27106399909856
