20

C	0.0	0.0	0.0
C	-0.367918	-0.112613	-1.495856
F	1.411339	0.0	0.0
H	0.410958	-0.784427	-1.890537
C	-0.494822	1.255129	0.681373
H	-0.07471	2.151748	0.220983
H	-0.200191	1.238667	1.735432
H	-1.589008	1.272386	0.618359
C	-0.439596	-1.233793	0.763225
H	-0.122619	-2.137388	0.237656
H	0.017574	-1.216359	1.758644
H	-1.528068	-1.239935	0.853716
C	-0.21242	1.225631	-2.226176
H	-1.005124	1.917122	-1.932037
H	0.764055	1.683168	-2.031257
H	-0.29678	1.060163	-3.306217
N	-1.658419	-0.755876	-1.685147
H	-1.988214	-0.566211	-2.626227
H	-2.398504	-0.39846	-1.03941
H	-3.673203	0.0	0.0
