20

C	0.0	0.0	0.0
C	-0.370112	0.184184	-1.498186
F	1.411265	0.0	0.0
H	0.37032	-0.446162	-2.013128
C	-0.501219	1.095965	0.910926
H	-0.206378	0.882485	1.943544
H	-0.089262	2.06666	0.629286
H	-1.595957	1.116661	0.850767
C	-0.45187	-1.354359	0.503666
H	-0.017337	-1.541479	1.49056
H	-0.118653	-2.145914	-0.175493
H	-1.543218	-1.361331	0.574482
C	-0.156712	1.622056	-1.960787
H	-0.216705	1.653729	-3.051483
H	-0.950017	2.263475	-1.567747
H	0.815038	2.012182	-1.640884
N	-1.692235	-0.256602	-1.915618
H	-1.72016	-1.269686	-1.880615
H	-2.429704	0.024178	-1.236077
H	-3.656699	0.0	0.0
