20

C	0.0	0.0	0.0
C	-0.377734	-9.4e-05	-1.503085
F	1.405536	0.0	0.0
H	0.475431	0.49875	-1.980505
C	-0.433766	1.276965	0.694361
H	-1.524707	1.313957	0.755503
H	-0.013644	1.291907	1.704682
H	-0.0631	2.155082	0.157739
C	-0.498683	-1.212017	0.752084
H	-0.17892	-1.151096	1.796778
H	-1.594565	-1.224102	0.719147
H	-0.092722	-2.119766	0.305863
C	-1.658995	0.754251	-1.849815
H	-1.873126	0.609133	-2.916287
H	-2.526294	0.407909	-1.260981
H	-1.553871	1.830574	-1.680513
N	-0.378333	-1.385122	-2.011816
H	-0.395427	-1.330911	-3.025489
H	-1.271037	-1.795389	-1.746868
H	-3.979372	0.0	0.0
