15

C	-0.339795	0.046965	-1.503672
C	0.0	0.0	0.0
Br	-0.002489	-1.826367	-2.24995
H	1.092559	0.0	0.0
C	-1.74581	0.301918	-1.818964
N	-2.856842	0.540864	-2.12133
N	0.497455	1.032448	-2.046816
H	0.396002	1.134132	-3.046794
H	1.47187	0.884962	-1.773642
N	-0.573313	-1.204804	0.681646
O	-1.798412	-1.309468	0.63774
O	0.204708	-1.974447	1.227904
C	-0.519844	1.186854	0.664223
N	-0.940058	2.135701	1.215497
Cl	3.188802	0.0	0.0
