15

C	-0.562387	-0.044836	-1.428364
C	0.0	0.0	0.0
Br	0.099504	1.652692	-2.313722
H	1.09105	0.0	0.0
C	-0.017069	-1.113592	-2.265232
N	0.289674	-1.938073	-3.044536
N	-1.976674	-0.145632	-1.396854
H	-2.383768	0.634049	-0.891877
H	-2.368774	-0.19266	-2.328794
N	-0.421142	-1.257239	0.724494
O	-0.151973	-2.309475	0.159781
O	-0.961388	-1.142709	1.820678
C	-0.531293	1.155674	0.708188
N	-0.99022	2.100281	1.236089
Cl	3.116775	0.0	0.0
