15

C	-0.317847	0.049567	-1.509983
C	0.0	0.0	0.0
Br	-0.017817	-1.836036	-2.247054
H	1.092606	0.0	0.0
C	-1.711907	0.337153	-1.850025
N	-2.811554	0.604007	-2.16977
N	0.553127	1.009649	-2.04291
H	0.477613	1.107822	-3.044761
H	1.51803	0.84562	-1.744651
N	-0.58734	-1.196561	0.679453
O	0.179612	-1.966276	1.24072
O	-1.811997	-1.295094	0.619906
C	-0.51453	1.194155	0.655687
N	-0.933209	2.147308	1.200455
Cl	3.192843	0.0	0.0
