15

C	-0.306831	-0.031483	-1.525773
C	0.0	0.0	0.0
Br	-2.200869	-0.546932	-1.801586
H	1.095375	0.0	0.0
C	-0.179507	1.335891	-2.040086
N	-0.080027	2.432487	-2.449861
N	0.53492	-0.898002	-2.302144
H	0.463614	-1.829548	-1.906137
H	1.498441	-0.591931	-2.13907
N	-0.41192	-1.270379	0.678935
O	-0.974519	-1.188576	1.766057
O	-0.120726	-2.317882	0.10754
C	-0.573706	1.140214	0.685892
N	-1.012854	2.085912	1.228361
Cl	3.118242	0.0	0.0
