15

C	-0.314712	0.046003	-1.510902
C	0.0	0.0	0.0
Br	-0.009615	-1.841961	-2.240155
H	1.09251	0.0	0.0
C	-1.706262	0.332902	-1.85706
N	-2.800232	0.60718	-2.188332
N	0.554232	1.007172	-2.044485
H	0.475068	1.105608	-3.047032
H	1.520664	0.844173	-1.748892
N	-0.590656	-1.19534	0.679189
O	-1.813908	-1.30009	0.601795
O	0.171334	-1.95624	1.259601
C	-0.516215	1.195577	0.651792
N	-0.929924	2.152999	1.193453
Cl	3.194117	0.0	0.0
