15

C	-0.325914	-0.03896	-1.508044
C	0.0	0.0	0.0
Br	-2.239971	-0.591784	-1.779546
H	1.097022	0.0	0.0
C	-0.280069	1.328812	-2.048338
N	-0.194739	2.376711	-2.578618
N	0.54169	-0.946448	-2.165288
H	0.607859	-0.743095	-3.153284
H	1.466008	-0.935587	-1.729159
N	-0.426301	-1.269669	0.681478
O	-1.275271	-1.188757	1.564982
O	0.124866	-2.2931	0.299695
C	-0.57051	1.149819	0.672535
N	-0.999373	2.10926	1.197965
Cl	3.135509	0.0	0.0
