15

C	-0.560007	-0.072421	-1.428444
C	0.0	0.0	0.0
Br	0.107656	1.608493	-2.340995
H	1.0912	0.0	0.0
C	-0.012162	-1.154668	-2.245954
N	0.303418	-1.995307	-3.004561
N	-1.975143	-0.167782	-1.400221
H	-2.363532	-0.231803	-2.332991
H	-2.378969	0.626653	-0.915666
N	-0.410925	-1.240478	0.757951
O	-0.216985	-2.30497	0.186331
O	-0.858124	-1.100882	1.892384
C	-0.534225	1.168575	0.68341
N	-1.008254	2.117933	1.188783
Cl	3.111694	0.0	0.0
