12
Coordinates from ORCA-job run
  C   -0.81540280070874     -0.06098520466294      0.30509834245399
  C   0.63380734662320     -0.61109937994258      0.25006845845319
  Br  -1.88673173406223     -1.19670847313474      1.49545637729620
  H   1.01086685073170     -0.62443062591550      1.27671779349398
  H   0.57101464610200     -1.64503424332001     -0.10047784956039
  C   -1.40884895160070     -0.09196917715159     -1.02859281024611
  N   -1.85184801845076     -0.16052827429086     -2.11485514984317
  C   -0.80848381189922      1.29802533778747      0.83893332066788
  N   -0.75244389400876      2.37893135137119      1.29663729857633
  N   1.40106788362757      0.23677277945619     -0.62830306696998
  H   2.14484256646268      0.72663172441415     -0.15640240486829
  H   1.76115991718326     -0.24960581461078     -1.43428030945362
