12
Coordinates from ORCA-job run
  C   -0.81399009216488     -0.03666549959701      0.31186431395885
  C   0.61318407519494     -0.63876039623494      0.23271533479548
  Br  -1.91690276886695     -1.15716271219391      1.48799978242586
  H   0.99895771975202     -0.68430719748556      1.25499413876406
  H   0.50888916815113     -1.66312210752990     -0.13562376766931
  C   -1.41901772119819     -0.01792698260012     -1.01684403436134
  N   -1.87263637539405     -0.04502636250382     -2.10054824602357
  C   -0.75313656253326      1.30984841089661      0.87323239988405
  N   -0.65454822538190      2.37764290377772      1.35400939726807
  N   1.40445139227066      0.19793679464987     -0.63517648833680
  H   2.17948216054556      0.63739238359111     -0.16406462422616
  H   1.72526722962492     -0.27984923477004     -1.46255820647919
