12
Coordinates from ORCA-job run
  C   -0.65423189328342      0.25515492845487      0.35292497279155
  C   0.75392137441894      0.20535016227335     -0.28618394571747
  Br  -0.48814164140535     -0.02693129929019      2.29099905332581
  H   1.33225886405707      1.02722222629582      0.15342788335672
  H   0.61495866129374      0.42213344618049     -1.34983414915618
  C   -1.50407357033570     -0.79798854688891     -0.19592651732266
  N   -2.18704591263698     -1.62284952266268     -0.67951026610163
  C   -1.25968511491876      1.56758264182528      0.13904012845958
  N   -1.69154562560812      2.64020993449928     -0.07247326432011
  N   1.32135049321629     -1.11037104563347     -0.11973642271514
  H   1.85020886543235     -1.39230755181869     -0.93151348789001
  H   1.91102549976994     -1.16620537323515      0.69778601528954
