12
Coordinates from ORCA-job run
  C   -0.76978493520633      0.03002256625255      0.15630149332938
  C   0.62731250842037     -0.46424703471393     -0.28857261792708
  Br  -1.06365508676642     -0.48257171119084      2.03085367500065
  H   0.61857399802491     -1.55816231709333     -0.20722809339889
  H   0.71963089324110     -0.20556157964536     -1.34796213746781
  C   -1.80963433467091     -0.60262908154138     -0.65199458610479
  N   -2.59597926879379     -1.14092346378217     -1.34017838088385
  C   -0.85512420683754      1.48441752380624      0.05654623327739
  N   -0.92131419262336      2.65065504479047     -0.07060707015764
  N   1.65087535524699      0.20639045196309      0.47514615497026
  H   2.45924220688321      0.41600406168043     -0.09114028089162
  H   1.93785706308175     -0.33439446052577      1.27783561025401
