12
Coordinates from ORCA-job run
  C   -0.76318541370767     -0.00309355252105      0.20809901808360
  C   0.61615281436959     -0.43500377300129     -0.35066930165355
  Br  -0.93343516432443     -0.64384310420674      2.05662631798360
  H   0.63465200932963     -0.11593412778813     -1.39743918925844
  H   0.63778907409938     -1.53059880545858     -0.33119453746700
  C   -1.83878480271829     -0.60212221961607     -0.57857427495477
  N   -2.65631720480130     -1.11274720669835     -1.25145233297966
  C   -0.87676815779199      1.45264728946697      0.21024934970266
  N   -0.96419449302008      2.62361884713612      0.16557475492479
  N   1.67018051179190      0.20556784092507      0.39620414496837
  H   2.39099981741439      0.57128636981445     -0.20685117620479
  H   2.08391100935889     -0.41077755805238      1.07942722685518
