11
Coordinates from ORCA-job run
  C   -0.73580450297438      0.32503664609515      0.01170471114543
  C   0.71947770461974      0.76353021048216     -0.10593630296001
  F   -1.04545647738661      0.30617719286740      1.38455192170392
  H   0.86279083888738      1.69351066150611      0.44794042722150
  H   -1.38675888487558      1.08290119315106     -0.42998623135905
  H   0.95711111433113      0.93957772123199     -1.15734069471719
  N   -0.95748180180646     -0.91490312206222     -0.62424482745706
  H   -1.93438202930098     -1.17295253892961     -0.59495524423890
  H   -0.40690524844450     -1.65079462409734     -0.19810533642445
  C   1.61817854780073     -0.25928003133490      0.42610998327904
  N   2.30923073914951     -1.11180330890981      0.84026159380676
