11
Coordinates from ORCA-job run
  C   -0.61363212949997      0.13340771368563     -0.00578376501023
  C   0.88889726546803     -0.07926647681006      0.12761153414949
  F   -1.10094262207065      0.56058064362669      1.21326437367985
  H   1.29775645135501     -0.49644633612152     -0.79741200953928
  H   -0.83061791353960      0.94692025342506     -0.71125963259641
  H   1.04671200999473     -0.80634798840658      0.92728017745088
  N   -1.24636847247659     -1.12169212069541     -0.30321361406141
  H   -0.91315570570235     -1.49020053434299     -1.18519147934073
  H   -2.24804227952168     -0.98941873107379     -0.37284224520340
  C   1.58453786095930      1.16680967173733      0.43736589126188
  N   2.13485553503379      2.17565390497565      0.67118076920935
