11
Coordinates from ORCA-job run
  C   -0.70339696396597      0.37038830611060     -0.12026373535921
  C   0.78271086646242      0.70431082610427     -0.05603842620823
  F   -1.20383518578310      0.48735026517750      1.18986899466191
  H   0.91547958296440      1.66697773871933      0.44175186385033
  H   -1.22682873672808      1.12808691030467     -0.70779758664540
  H   1.17851329371603      0.77558103623101     -1.07148367104420
  N   -0.92566725847527     -0.90207359703495     -0.68802594696188
  H   -1.91362527334438     -1.09360813002159     -0.78372529944560
  H   -0.49844045746111     -1.63340052173258     -0.13212005715981
  C   1.51844162622764     -0.32440519909008      0.67688132627604
  N   2.07864850638742     -1.18020763476818      1.25095253803604
