11
Coordinates from ORCA-job run
  C   -0.56330759676882     -0.19832542264450      0.19823324695064
  C   0.86196848516505      0.21533218552647     -0.14504112466081
  F   -0.50908946723287     -1.33174544555811      0.98437928667459
  H   0.85508803267021      1.06697597206600     -0.83193739972179
  H   -1.05205759805479      0.56629917366825      0.81704456918865
  H   1.33482487555438     -0.62813252039233     -0.65327397916375
  N   -1.25948350489907     -0.54747922940746     -1.00881489781425
  H   -1.30869380502376      0.24550174698378     -1.63575526850068
  H   -2.20465101453538     -0.83497926042034     -0.78596561008529
  C   1.62327118658176      0.57308089816589      1.04905525721967
  N   2.22113040654328      0.87347190201235      2.01207591991303
