11
Coordinates from ORCA-job run
  C   -0.62253177033073      0.34115772394333     -0.38831462620962
  C   0.68502286117336      0.67213618183615      0.32431529840180
  F   -1.44843646537649      1.44599281297926     -0.22443339600376
  H   1.07502251107576      1.61444859448236     -0.06536909517089
  H   -0.46262337351642      0.26322385784548     -1.47103815879379
  H   0.46094017199593      0.80678507460507      1.38579680485076
  N   -1.24868113828785     -0.78987662999019      0.21050173014814
  H   -1.95879669129476     -1.18680756236663     -0.38876749668065
  H   -0.58457753808156     -1.50855014032287      0.46217911454406
  C   1.67298604360255     -0.38818986352013      0.15251500998147
  N   2.43067538904020     -1.27132004949183      0.00161481493247
