11
Coordinates from ORCA-job run
  C   -0.72235150638242      0.40862572590879     -0.12560537432303
  C   0.58721486024939      0.45128801705837      0.66096111188856
  F   -1.65397258394815      1.04062917079459      0.70918098991747
  H   0.81178082555108      1.47964219039325      0.95012372468072
  H   -0.66173112670408      1.03380486148425     -1.01990488541055
  H   0.44924607776592     -0.12484803004782      1.58123807510617
  N   -1.13325517423635     -0.89910899189201     -0.44605808507865
  H   -1.31998306254614     -1.06750660351479     -1.41861738536162
  H   -0.60894238810541     -1.64688875802078     -0.02353531373989
  C   1.69199246003922     -0.10764130020083     -0.11214855383679
  N   2.55800161831694     -0.56799628196302     -0.75563430384239
