11
Coordinates from ORCA-job run
  C   -0.63629875712749      0.26050089411713     -0.10632325469504
  C   0.80634947967768     -0.14546760461289      0.19430266248925
  F   -1.10735367502769      0.88300360327660      1.04957714548147
  H   1.24019648279468     -0.63548691293829     -0.68095429910187
  H   -0.67212432909356      1.01838035842712     -0.89261065246575
  H   0.79205374918254     -0.86636356288694      1.01819666155499
  N   -1.45277430901874     -0.83934389506708     -0.45001449184397
  H   -1.10683221971337     -1.74571502163479     -0.18129563733008
  H   -1.82211173854958     -0.82651107527814     -1.38402067359604
  C   1.64254057792637      0.98957047158631      0.57612413421798
  N   2.31635473894917      1.90743274501097      0.85701840528906
