11
Coordinates from ORCA-job run
  C   -0.73705916644320      0.37771634655218     -0.13618196452594
  C   0.60244842174468      0.53072803852570      0.58305465842960
  F   -1.64818069461765      1.07579479629049      0.66812647114960
  H   0.81289574610296      1.58828135058760      0.75339241578315
  H   -0.73023115364862      0.90526052452053     -1.09294864067761
  H   0.51718236569678      0.05247547593646      1.56390089699648
  N   -1.12888125573559     -0.96472437287079     -0.29937751826097
  H   -0.57029217084927     -1.65210874197887      0.17876674851266
  H   -1.34478097652518     -1.23985332016076     -1.24101752898695
  C   1.68866429563803     -0.08341404775614     -0.17431167589476
  N   2.53923458863706     -0.59015604964641     -0.80340386252525
