11
Coordinates from ORCA-job run
  C   -0.77718419072674      0.36524104910952     -0.03075046909425
  C   0.72436679209356      0.68899154777419     -0.00530660941098
  F   -1.22297420339500      0.54002388056345      1.27139239437168
  H   1.10686223865923      0.71747172246553     -1.02953507063927
  H   -1.28885075740902      1.10399695991371     -0.65413515920211
  H   0.88353534038004      1.67073367326717      0.44751009250328
  N   -1.13801337736396     -0.93451460326915     -0.47230031167728
  H   -0.51997307064636     -1.65694372054221     -0.12838111439358
  H   -1.24554930452417     -0.99473777931078     -1.47259383034715
  C   1.46091999013964     -0.32337912125829      0.74728634397053
  N   2.01686054279278     -1.17788360871315      1.32781373391913
