14
Coordinates from ORCA-job run
  C   0.19965251762829      0.27067034137606      0.50204420400379
  C   -0.42428253318548     -0.74126211277452     -0.45077213563669
  F   -0.94923950984648      1.00672528810166      0.98350559285341
  H   0.36957566461968     -1.40038426842651     -0.81556239979452
  H   -1.11541507412577     -1.35744613251806      0.14983029857918
  N   1.06099349838243      1.21665658718104     -0.11064872593387
  H   0.86544331714708      1.25235808891229     -1.10308948128929
  H   2.02271909941658      0.97224038110473      0.06770231854840
  N   0.85119342212877     -0.35318453255257      1.60852433897079
  H   0.27060675395496     -1.11141846153207      1.94870282004448
  H   0.90371868895016      0.33251666566914      2.35502091264406
  N   -0.99964249596421     -0.03599701954937     -1.56342061772958
  H   -1.31913818392665     -0.63589139329814     -2.30675568872801
  H   -1.73618516517935      0.58541656830631     -1.26508143653214
