14
Coordinates from ORCA-job run
  C   0.44079029983281      0.36314765341935      0.19987692060567
  C   -0.31812781920168     -0.70241436832987     -0.58014716137296
  F   0.35781292652671      1.51312488309759     -0.67093138908037
  H   -0.26908449643500     -1.64247734207274     -0.02249931701760
  H   0.22394293094340     -0.85035328624548     -1.52993658150913
  N   1.81135362777693      0.02015088703922      0.39777090877569
  H   2.31673802541154      0.88016740474511      0.58393148257248
  H   2.18592449959640     -0.36184421904042     -0.46296480175163
  N   -0.15295207509363      0.74377144760942      1.43133033556680
  H   0.32866147666190      0.29609597168334      2.19565487358847
  H   -1.13484435781294      0.49862757822753      1.41729472151705
  N   -1.69569601462345     -0.30348842026098     -0.68926713140404
  H   -1.79938117189185      0.56061422281399     -1.19872551453782
  H   -2.29613785169112     -1.01612241268606     -1.07138734595261
