14
Coordinates from ORCA-job run
  C   0.51689531262308     -0.03756300105868      0.49896177055852
  C   -0.24062629791002     -0.83069812664911     -0.56019335087038
  F   1.43092117920002     -0.94124117077690      1.07480100049976
  H   -0.77615742022719     -1.65527261371867     -0.06372072891259
  H   0.49496876256618     -1.27338577085149     -1.23621107439850
  N   -0.39869909098680      0.47424170645442      1.45633881600480
  H   0.09498708595925      1.09369954360057      2.08621060772826
  H   -0.83086268267159     -0.27819521364158      1.97770741222264
  N   1.30305324435476      1.05770139702670      0.00161232660020
  H   0.73071277747034      1.55445026267740     -0.67276347177681
  H   2.10287880758282      0.67573382021843     -0.48862748928231
  N   -1.08645167350512      0.09254853953994     -1.30711188108806
  H   -1.80359250260875      0.45096484011534     -0.68906339668931
  H   -1.53602750184696     -0.38198421293636     -2.07894054059621
