14
Coordinates from ORCA-job run
  C   0.35423300846754      0.07850683795773      0.47464285275656
  C   -0.89494196699648     -0.33524110386890     -0.29121681587051
  F   1.18369748124994     -1.10199398770578      0.51129051936118
  H   -1.63741186189485      0.45180452510350     -0.14793425623057
  H   -1.27231868500453     -1.25128787660750      0.17433951680222
  N   0.02873632180238      0.45832602729319      1.80758318822883
  H   -0.28053166430625     -0.35929844292312      2.31859822669833
  H   0.84554350313674      0.82771500848957      2.27915897621952
  N   1.02845722085011      1.11341266765778     -0.21113916677687
  H   1.17896243656884      0.78540089639818     -1.15869254391904
  H   1.92612864665892      1.29674069042144      0.22095392248502
  N   -0.57810000206669     -0.53962842257842     -1.70377852867569
  H   -0.74533172658173     -1.49276074580473     -1.98802918791467
  H   -1.13612271188395      0.06730392616705     -2.28577670316430
