14
Coordinates from ORCA-job run
  C   0.49239587373858      0.12895079857888      0.23502828974072
  C   -0.45867914264392     -0.18007214503532     -0.90566212340542
  F   0.88854195492633     -1.15871637710965      0.73886912100724
  H   0.11195812915870     -0.73990371605442     -1.65789334688836
  H   -0.75287220337030      0.77413042999703     -1.34508008774237
  N   -0.15995816528059      0.88450385924075      1.23357649478862
  H   -1.09231642619197      0.50788886242351      1.36236168050941
  H   0.35649605681321      0.83850565247143      2.10318682675976
  N   1.67950756541825      0.78392491835085     -0.23565720327550
  H   2.46091707458974      0.14453786165156     -0.21922337439629
  H   1.87942128269760      1.59471235775413      0.33199883344246
  N   -1.64011898753538     -0.86663252726082     -0.38979077255299
  H   -1.39628724152551     -1.82193287134188     -0.16141751765327
  H   -2.36900577079474     -0.88889710366604     -1.09029682033400
