14
Coordinates from ORCA-job run
  C   0.74887809585910     -0.28343793448723     -0.66707502849735
  C   -0.31539365192685      0.44139732479516      0.16714758151843
  Br  0.01924768047457     -1.58840292361350     -1.86434690090081
  H   0.25582011060360      1.12783621466472      0.80659233800206
  H   1.33883311240620      0.41888084357018     -1.25641881783361
  N   1.72798489328998     -0.89694020344694      0.31068395250979
  O   2.39691057983867     -0.05368900682442      0.90551716081657
  O   1.77398620669079     -2.10401516453516      0.46820934199183
  N   -0.95863755179264     -0.50776021258000      1.03481592238280
  H   -1.40836532333085     -0.04614267501300      1.81357005640065
  H   -1.65023226855806     -1.03532694743867      0.51526924475088
  N   -1.24163643986285      1.11462871309347     -0.73501058275928
  H   -0.75871076454394      1.79181715311034     -1.31674110802475
  H   -1.92568467914772      1.61815481870505     -0.18221316035722
