14
Coordinates from ORCA-job run
  C   0.90025220766827     -0.07950162344830     -0.49464922722612
  C   -0.58761189617922      0.09106666136717     -0.19698484129582
  Br  1.23704507910569     -0.53147361435829     -2.33521200136815
  H   -1.12219179089989     -0.76399434216759     -0.62635237152253
  H   1.45413530979738      0.82595115757037     -0.25282699715843
  N   1.49240518870339     -1.16508000309124      0.35573535280635
  O   0.80628889631937     -2.17031351242315      0.53039320069371
  O   2.61823901930293     -0.97144678928128      0.79982423003038
  N   -1.02205365170087      1.28809709837485     -0.87239330309312
  H   -2.02422312316250      1.29187663890256     -1.00248826815986
  H   -0.75550917541499      2.10152655535897     -0.32939584674378
  N   -0.71199149757968      0.20061877721423      1.25718721549686
  H   -0.66445421599904     -0.71530568714842      1.68886000626478
  H   -1.61733034996084      0.59797868313012      1.47630285127574
