14
Coordinates from ORCA-job run
  C   0.66630742064206     -0.46757022952823     -0.76432438841364
  C   -0.69069319707254      0.03032507334746     -0.24042899843252
  Br  0.60084438219195     -2.30012834725082     -1.31229944214548
  H   -1.38068753091525     -0.07087479886794     -1.09007618176552
  H   0.97975836451328      0.12068337459167     -1.62547077443247
  N   1.71722265490408     -0.23901108782435      0.27542098314008
  O   2.36327815621663      0.80002995078732      0.13211589886823
  O   1.79248935621277     -1.01233782517530      1.22024012224430
  N   -0.50898345184875      1.40346400853508      0.22169213256819
  H   0.15565799426558      1.92360403057279     -0.33994318690275
  H   -1.39515650738301      1.89324271334252      0.19575938832787
  N   -1.18219674387949     -0.82803821525731      0.82058970749106
  H   -2.19648624480361     -0.83248341958660      0.79254556339623
  H   -0.92235465304369     -0.42190522768629      1.71417917605644
