14
Coordinates from ORCA-job run
  C   0.86612683848367     -0.06753751647784     -0.47595163467886
  C   -0.64588884428265      0.09432312036855     -0.26310061863368
  Br  1.34776007583469     -0.43929362671163     -2.29950211242173
  H   -1.13120728805284     -0.76248519708560     -0.73681102865568
  H   1.42161658386850      0.81270476834125     -0.15093337011365
  N   1.34555640310113     -1.18923036106834      0.39725505670786
  O   0.83727566689900     -2.29100206548385      0.22187947167952
  O   2.16566003025369     -0.89686005326067      1.26474141329006
  N   -1.04865482923607      1.29570273965401     -0.95454020041630
  H   -0.66644297985642      2.10908775950398     -0.48298889660756
  H   -2.05751986863736      1.36923953536669     -0.89995703689710
  N   -1.02306394793340      0.07915314257962      1.14177814915851
  H   -0.93907230277484     -0.84423865777184      1.54849868171838
  H   -0.47214553766711      0.73143641204566      1.68863212587023
