15
Coordinates from ORCA-job run
  C   -0.38624597406718     -0.31705741338351      0.30551819200941
  C   0.45780583675043      0.33160234094778     -0.54332874503943
  C   -1.51149113282741     -1.20001975651316     -0.14035528353539
  H   -2.46964747098329     -0.80661238429197      0.21541319697280
  H   -1.55541039228158     -1.27923736845681     -1.22549629869185
  H   -1.38547445312610     -2.20235252649450      0.27951663741455
  N   -0.19288958643245     -0.27413592920880      1.67482829562358
  H   0.33555625559897      0.50780640313035      2.02901213554767
  H   -1.00770739575051     -0.48070493968921      2.23064361950844
  C   1.60036628281526      1.17832855427867     -0.03799245593633
  H   1.23995662005814      2.05261132875455      0.51721352075227
  H   2.25090564791815      0.59978868224000      0.62623904253132
  H   2.20841708012754      1.54554182251161     -0.86455433934010
  C   0.27291766763827      0.21135353755077     -1.94907685696004
  N   0.14394101456178      0.13308764862423     -3.11758066085689
