15
Coordinates from ORCA-job run
  C   -0.56716570466314     -0.09576385249309      0.30148526079299
  C   0.42304521912207      0.59321370066221     -0.33656674140966
  C   -0.48227359907292     -1.54857782624602      0.66553133331360
  H   -0.41395584172462     -1.65792910863560      1.75135202717777
  H   -1.38987813630619     -2.06768636820582      0.34128395762074
  H   0.36496056962354     -2.05056173370873      0.20624143985732
  N   -1.70713560202265      0.52322153623469      0.78378316889806
  H   -2.53253575488428     -0.05443045040226      0.80981675254686
  H   -1.88564820677387      1.45585015192217      0.43847108807242
  C   1.76360636782352      0.05906242107173     -0.77276043085115
  H   1.81948619374661     -0.03626035297586     -1.86135352999047
  H   2.55949840983199      0.74145602839492     -0.46366581553183
  H   1.97843906072525     -0.91345983830218     -0.33239593219616
  C   0.15987153812690      1.96244567807384     -0.64249282170357
  N   -0.09131451355220      3.08742001461000     -0.88872975659691
