15
Coordinates from ORCA-job run
  C   -0.38486121582142     -0.31641511189092      0.30814724768914
  C   0.45841714647327      0.32810385693207     -0.54465885147024
  C   -1.47228511027449     -1.24861177627774     -0.13170811154052
  H   -2.44788295410353     -0.88943290136052      0.21293527801033
  H   -1.31007445199633     -2.24014028055370      0.30095006451100
  H   -1.50598615560889     -1.34276099529701     -1.21597712463350
  N   -0.22071073006286     -0.22416030107373      1.67847629004115
  H   -1.03600746531852     -0.44786929245425      2.22681890795029
  H   0.27404721749041      0.58512209376019      2.01910073324458
  C   1.56717115426565      1.22140810061843     -0.04394226537216
  H   2.19323590759029      1.56378984250962     -0.86734587210150
  H   2.20783158693200      0.68608646853871      0.66446936113759
  H   1.17253630451431      2.11134413975570      0.46045312024049
  C   0.30353085283617      0.16303102921530     -1.94922000912762
  N   0.20003791308394      0.04950512757785     -3.11749876857904
