15
Coordinates from ORCA-job run
  C   -0.35195529903908     -0.29645158775676      0.46262001563030
  C   0.66897216722003      0.44622759372443     -0.05511096771539
  C   -1.40045437581940     -0.96181738310506     -0.38012418841558
  H   -2.38312724113970     -0.85683035125273      0.08966192924929
  H   -1.19362440854360     -2.03227078025578     -0.46735588578351
  H   -1.46486222744580     -0.53227052970900     -1.37714318366756
  N   -0.43782548723753     -0.60788878399930      1.80738466694333
  H   -1.37274299896888     -0.72719373727758      2.16396403395989
  H   0.15820853752637     -0.07459833695985      2.42492795435079
  C   0.92513083747088      0.70834600818360     -1.51841181546534
  H   0.55396409001485      1.69156411857412     -1.82405537651482
  H   0.46094311131541     -0.04739503778262     -2.15155327520750
  H   1.99829561795794      0.68667148550415     -1.72087398750668
  C   1.56286790516545      1.05465982968618      0.87521679898935
  N   2.27720977152304      1.54924749242620      1.67185328115342
