15
Coordinates from ORCA-job run
  C   -0.39219900699263     -0.30890282658179      0.30664443942676
  C   0.63632188469161      0.34588640024411     -0.29948135256507
  C   -0.21333945767400     -1.36175819019426      1.35738773269519
  H   0.83912080673610     -1.56645611275602      1.54670577522963
  H   -0.69544280811597     -2.29546847052404      1.04909586669636
  H   -0.68127933649014     -1.03752919676169      2.29159110379669
  N   -1.70651711611669      0.04019585709111      0.05423415293116
  H   -1.88767028917697      0.50714015505090     -0.82048705729890
  H   -2.39092878426709     -0.66589379539660      0.27273061761614
  C   0.39878909567112      1.43448485572019     -1.31741361154892
  H   -0.25803141090684      2.21052162340479     -0.91075533886515
  H   -0.06374315414847      1.04180239082604     -2.23040476436466
  H   1.33647431152572      1.90896302258088     -1.60478616059848
  C   1.97851886621882      0.00540991166628      0.02824697972618
  N   3.09992639904546     -0.25739562436990      0.27669161712307
