15
Coordinates from ORCA-job run
  C   -0.39140517962909     -0.33282629640742      0.28102336071931
  C   0.44291003887716      0.39000073247603     -0.51610941733937
  C   -1.36608894162465     -1.35051623949629     -0.22740277890725
  H   -1.17075230106384     -2.32758064280661      0.22718738400428
  H   -2.38470888430847     -1.05577490531871      0.04077396630303
  H   -1.30790612459331     -1.45819158601881     -1.30941551749930
  N   -0.46298125492799     -0.09244077162556      1.64169410964586
  H   -0.83575574817394     -0.84908167641884      2.19278947574722
  H   0.34295188371447      0.34086180316845      2.06434518377000
  C   1.37188013806532      1.43848360394167      0.04460894118992
  H   2.15241393779232      0.99326845287136      0.67278368884751
  H   0.82058905352878      2.16438025956485      0.65129292897912
  H   1.86991127162566      1.98471356414300     -0.75598776918088
  C   0.44510417343410      0.16267849381433     -1.92089353619001
  N   0.47183793728346     -0.00597479188745     -3.08669002008946
