15
Coordinates from ORCA-job run
  C   -0.58913252991634     -0.07521223160655      0.26854550832433
  C   0.42181362629754      0.57811858032783     -0.37383035942033
  C   -0.52672555309336     -1.52620059013513      0.64482877504129
  H   -1.15848108899087     -2.11671020420806     -0.02499675467680
  H   -0.90694973428258     -1.66754016044680      1.66126162619665
  H   0.48636799598567     -1.92012088922164      0.61402880663659
  N   -1.81556876455352      0.51279094062410      0.51817925884183
  H   -2.29622925107797      0.17780935952285      1.33796682508792
  H   -1.85539659031468      1.51713115037254      0.41524272167697
  C   1.73141359242940     -0.02966694225975     -0.81386787193315
  H   1.63722777565984     -1.09900519263213     -1.00222667269810
  H   2.06472385713815      0.43532905299331     -1.74385149732240
  H   2.52003651766316      0.12331796835011     -0.07042816378986
  C   0.23660590705603      1.97014064713858     -0.62360611885950
  N   0.05229423999953      3.11981851118075     -0.80724608310546
