15
Coordinates from ORCA-job run
  C   -0.37108676342494     -0.34232546615749      0.29714455345004
  C   0.40635348488551      0.40394795437970     -0.53503065806107
  C   -1.33169363729884     -1.39366409617244     -0.16885016150738
  H   -1.33134896174942     -1.48490089929110     -1.25373769479113
  H   -2.34440268745785     -1.14479886502882      0.16143357761854
  H   -1.06999350311547     -2.36711678700121      0.25908847102337
  N   -0.39242717235079     -0.10233281718175      1.65935297409124
  H   -0.71567380241552     -0.86979447761142      2.22661695345780
  H   0.41431577934026      0.36101083159046      2.04707163514846
  C   1.32802493964502      1.47906341261608     -0.01341737059751
  H   2.13562656129976      1.05641486767959      0.59568679164227
  H   0.77951727800128      2.19925699708679      0.60225045197395
  H   1.79125502997770      2.02663826238542     -0.83389166895860
  C   0.35791639937005      0.17453361043644     -1.93846815513795
  N   0.34261705529325      0.00406747226975     -3.10424969935203
