15
Coordinates from ORCA-job run
  C   -0.38154022264543     -0.32516862060665      0.30357098716496
  C   0.47184298485987      0.32310136941730     -0.53628183979201
  C   -1.41027286577448     -1.31751797615972     -0.14527965864637
  H   -1.38092340150079     -1.46696802178186     -1.22326118623137
  H   -2.41405315864593     -0.97514560399918      0.12742073501830
  H   -1.24056724999181     -2.27902765246748      0.34746457864417
  N   -0.28414929960158     -0.17301569872912      1.67532355280031
  H   -1.11755363539663     -0.40157586361950      2.19348099417153
  H   0.16264542941859      0.66943548337094      2.00190679590061
  C   1.51512017858206      1.28588209607449     -0.02433110439319
  H   1.05676826159788      2.16717147367594      0.43986499130551
  H   2.15023924636438      1.63845598779202     -0.83657038846420
  H   2.15793023466949      0.80555941903816      0.72055565019474
  C   0.38340696243449      0.10226570087706     -1.93928399948394
  N   0.32910653562989     -0.05545209288239     -3.10558010818907
