15
Coordinates from ORCA-job run
  C   -0.35205075740537     -0.35548158899147      0.30462992963516
  C   0.43943382039922      0.36363877920176     -0.53793445166766
  C   -1.31586208120826     -1.41101103379177     -0.14430195814549
  H   -1.28348744363322     -1.55346739656103     -1.22302481118962
  H   -1.07893675693126     -2.36163453680501      0.34183147392238
  H   -2.33863274240754     -1.13854916622250      0.13633894485686
  N   -0.24412449311160     -0.21689091201103      1.67728593805688
  H   0.14120693072756      0.65281127058544      2.01101603967631
  H   -1.05038897096557     -0.51556074300788      2.20288377228456
  C   1.42157971854988      1.38941708750092     -0.02756787007875
  H   0.91143259107226      2.24350716139482      0.43311293250056
  H   2.03693075229822      1.77678970406119     -0.83922558315417
  H   2.09053841984953      0.95026621714166      0.71961615480684
  C   0.34238406676470      0.15838448640514     -1.94285729458922
  N   0.28097694600144      0.01578067109976     -3.11080321691465
