15
Coordinates from ORCA-job run
  C   -0.61637716925093     -0.20611371889890      0.04271763463773
  C   0.40349360645774      0.69228686639256     -0.07773075414198
  C   -0.41495771673885     -1.69242143680770      0.08291526638583
  H   -0.71833752351125     -2.13919224549430     -0.86823392799438
  H   -1.03975943580346     -2.13485082434016      0.86504908294972
  H   0.61588872759175     -1.96836862951708      0.29042526940430
  N   -1.94666050195043      0.17190918948880      0.01159604798028
  H   -2.13001715540695      1.15840182965752      0.13063089352449
  H   -2.57391185684382     -0.41466011944494      0.53871207066761
  C   1.87124799518440      0.36818595013120     -0.20307768457779
  H   2.39569474660585      0.50024443666189      0.74833534638074
  H   2.34169803899029      1.03390207117009     -0.93027922606077
  H   2.03262844241269     -0.65299142005255     -0.54667887889395
  C   0.05183389334533      2.07490194091721     -0.05687538572493
  N   -0.27246409108239      3.20776611013637     -0.02850575453689
