15
Coordinates from ORCA-job run
  C   -0.37105854158656     -0.34966873451876      0.28813874378399
  C   0.40796437836809      0.41676524501910     -0.52403060993498
  C   -1.37439186245742     -1.34602046324505     -0.20676823537273
  H   -2.37241143214107     -1.07750200150789      0.15184889337668
  H   -1.14086169509580     -2.34570567036103      0.17445198913701
  H   -1.39457054630241     -1.39059289517516     -1.29448109572027
  N   -0.35366621172609     -0.17928793880596      1.66092367614054
  H   -0.68126241850626     -0.96738159823999      2.19654044021599
  H   0.47370090170246      0.24462593584296      2.05071115387226
  C   1.36941362621128      1.44020305790239      0.02917614144745
  H   0.85032139243171      2.15037486656614      0.68100400624572
  H   1.83997150192383      2.00693242257808     -0.77373098517988
  H   2.16988237399812      0.96806097422491      0.61056247535653
  C   0.31478340772322      0.26732362972280     -1.93597093562119
  N   0.26218512545687      0.16287316999745     -3.10837565774711
