14
Coordinates from ORCA-job run
  C   0.64262792456622      0.39115217956724      0.71004836911955
  C   -0.27909920569993     -0.12714333729715     -0.14790227915928
  C   1.42013269551145     -0.47546343071214      1.53966760771377
  N   2.03663775036139     -1.18145106803916      2.25215231973839
  N   0.95117179376093      1.77292355434095      0.79430975974632
  H   0.79424912515858      2.26171120409265     -0.07457553618530
  H   0.53776284167911      2.25861065571462      1.57808561590915
  C   -0.44892170291642     -1.59187637665199     -0.40222705683103
  H   -0.23836459223869     -1.81850395047379     -1.45200365933582
  H   -1.47953823290932     -1.89778707606982     -0.19548432407788
  H   0.21840684491359     -2.18807134404674      0.21849046529128
  N   -1.03895818849011      0.71470022572807     -0.95672369590119
  H   -1.85823560385100      0.27538799721007     -1.34773203352328
  H   -1.25787144984581      1.60481076663718     -0.53210555250469
