14
Coordinates from ORCA-job run
  C   0.69938360959733      0.55551671246811      0.45525621234575
  C   -0.36868695093523     -0.03649605885832     -0.15129619832049
  C   1.18539726644518      1.78880841364069     -0.08431397672181
  N   1.57341634309544      2.77889738631245     -0.59064302363991
  N   1.33578351012964      0.11750380519786      1.64634180421457
  H   2.25799046381902     -0.26739368310293      1.48793853370178
  H   0.77030252362826     -0.52990527583263      2.17341698820919
  C   -0.91124454686797     -1.36207242793547      0.29090046875237
  H   -0.14675019595106     -1.96709756389363      0.77802270128586
  H   -1.28150445799033     -1.92524761669344     -0.57045129017031
  H   -1.75276859662066     -1.23252807482558      0.97825664457113
  N   -1.13924641958942      0.61440835632964     -1.10938447146322
  H   -1.49620878369115      0.00800174440087     -1.83273424816472
  H   -0.72686376506907      1.45660428279239     -1.48831014460021
