14
Coordinates from ORCA-job run
  C   0.60040088299149      0.38901253985195      0.60595595012134
  C   -0.43193699755723     -0.15342043139823     -0.09929746056989
  C   1.87204037727809     -0.25319593581994      0.67864453406442
  N   2.94377140494646     -0.73689386097130      0.76043760772664
  N   0.37945422445708      1.62823204042706      1.29808668418968
  H   1.12195762045230      2.28632410502237      1.09344648253470
  H   0.36560851390619      1.48438305661381      2.30176399374885
  C   -0.33100708599464     -1.44115143329723     -0.85422809944563
  H   0.67492892900789     -1.85626957144318     -0.80972505726830
  H   -1.03254814481067     -2.17130068287978     -0.44213328548065
  H   -0.59305058622564     -1.28505189146974     -1.90562645248146
  N   -1.67164662145296      0.43610526829408     -0.06321520335755
  H   -1.64496537725187      1.38400426796110      0.28928720563293
  H   -2.25400713974650      0.29122252910905     -0.87239689941508
