14
Coordinates from ORCA-job run
  C   0.59853298815621      0.40923006559793      0.59110793097320
  C   -0.42584940292981     -0.15614336171094     -0.10760329589733
  C   1.89638564531492     -0.18203036997234      0.62101514078413
  N   2.98189108149130     -0.63639340292818      0.68823095515673
  N   0.34979871342635      1.63425269883905      1.29842991781398
  H   0.69592934593011      1.57272266112914      2.24842837945903
  H   0.82053611368397      2.41276743842161      0.85033159771405
  C   -0.29286973134470     -1.42437557306471     -0.88994290567835
  H   -1.02208446853343     -2.16253208065855     -0.54056096811593
  H   -0.49422726564023     -1.23304610160412     -1.94735336981141
  H   0.70310769740005     -1.85468666065882     -0.79365498861638
  N   -1.63347319912043      0.49162996935540     -0.19836105102243
  H   -2.44119258609557     -0.09638435287515     -0.32781761345516
  H   -1.73648493173874      1.22598907012967      0.48975027069589
