14
Coordinates from ORCA-job run
  C   0.74132929813981      0.53995332465962      0.42271242208086
  C   -0.34126579547877     -0.04280578335130     -0.16988181743886
  C   1.30356517510066      1.69536150278631     -0.20660427918370
  N   1.70639623396056      2.64874409659468     -0.76915816531427
  N   1.41816735741148      0.08254739132678      1.58855022119917
  H   1.37430290388697     -0.91909717376851      1.69494109703845
  H   1.10464182323796      0.53728228811153      2.43636311835881
  C   -1.02513119427030     -1.24564573712029      0.40630772065456
  H   -0.79999162792971     -1.36369317170789      1.46530642029236
  H   -0.72204945568287     -2.16197398546209     -0.11197944467633
  H   -2.10683577254977     -1.13980547338501      0.29614389643306
  N   -0.93170379324983      0.46224261710186     -1.31853582842337
  H   -0.38235101598809      1.14238101304281     -1.82570882573056
  H   -1.33907413658807     -0.23449090882850     -1.92345653529018
