14
Coordinates from ORCA-job run
  C   0.59026212654098      0.33865851789473      0.79621301655505
  C   -0.28749229852450     -0.11415735829124     -0.14381943290520
  C   1.66400182133635     -0.50080160266941      1.23236073976871
  N   2.56199842243365     -1.18339564787026      1.57057918131250
  N   0.47986652675817      1.60287937378963      1.43280664360969
  H   -0.46818782605674      1.83128444685108      1.69654248648791
  H   0.93351260207700      2.37718018737953      0.96810912191776
  C   -0.29198774561760     -1.51520515112437     -0.67081719923762
  H   -1.19703202965045     -2.03126091959768     -0.34157417148865
  H   0.57769320665674     -2.07151040072292     -0.32205952770258
  H   -0.28108616757904     -1.51854687760489     -1.76491916478801
  N   -1.34009971312298      0.68297933717466     -0.56040951859751
  H   -1.18184773067542      1.67569880154564     -0.47001939755237
  H   -1.75760119457617      0.42519729324551     -1.43999277737966
