14
Coordinates from ORCA-job run
  C   0.60185536755787      0.51546899328896      0.50035809050985
  C   -0.32984440692286     -0.16043138091913     -0.23202754907380
  C   1.07907121656737      1.77018461097177      0.00447344124897
  N   1.45184192537192      2.80702735499490     -0.41509221087454
  N   1.10672395192580     -0.00535608957232      1.73463978244709
  H   0.95902051312650      0.65569093929768      2.48770545104833
  H   2.10272004315617     -0.17950267480705      1.66959260299194
  C   -0.89913340812135     -1.46831376096604      0.21873993543359
  H   -1.98885984642793     -1.39777464860207      0.30276487378834
  H   -0.67317606635197     -2.24439511944356     -0.51786019602984
  H   -0.48214853168444     -1.74506976376241      1.18331928184605
  N   -0.74009773663292      0.26154094873395     -1.47815093748484
  H   -0.52032804171439      1.21534147217981     -1.72727131291135
  H   -1.66764497984978     -0.02341088139450     -1.74819125293979
