14
Coordinates from ORCA-job run
  C   0.70331112055021      0.46411142392274      0.57032797648675
  C   -0.33942734929713     -0.15769218251606     -0.04555621177629
  C   1.64302736864911     -0.29277422475262      1.33694807862331
  N   2.44231102858890     -0.91019140106322      1.94320869732837
  N   0.89464177494241      1.87496525286660      0.57391608656655
  H   0.01714596815934      2.37387588758421      0.54082905596140
  H   1.53299257903933      2.21249211777404     -0.13371030889310
  C   -0.65524830182591     -1.61146367328797      0.12119022061051
  H   -0.64339046773911     -2.12328317389697     -0.84697251539126
  H   -1.65724404077216     -1.73206578965824      0.54321272325697
  H   0.06091266290955     -2.10223396230213      0.77628743841260
  N   -1.26788982240018      0.57488652566522     -0.77517970781952
  H   -1.83001964375099      0.02280424479846     -1.40310774043318
  H   -0.90112287705337      1.40756895486593     -1.21639379293309
