14
Coordinates from ORCA-job run
  C   0.58766008172048      0.51298958847511      0.52380328045150
  C   -0.37485845248301     -0.12237242228433     -0.20479720364305
  C   1.04018956095033      1.79800673088874      0.08585613242387
  N   1.41187143496802      2.85087815456231     -0.29286712339056
  N   1.14141689482494     -0.07368016489581      1.70679904619039
  H   2.14754745732595     -0.15773512122999      1.62581046315877
  H   0.94586052374715      0.50267110713271      2.51684799782407
  C   -0.88983528251212     -1.47621210273354      0.16872175343305
  H   -0.36703727542548     -1.84548206625470      1.04689323488137
  H   -0.74542593540093     -2.17803058070358     -0.65959929091302
  H   -1.96261953393125     -1.42211795492923      0.37371882264735
  N   -1.00731381618815      0.47364013611413     -1.27440477612690
  H   -0.56415743675694      1.29540102539497     -1.65982725601800
  H   -1.36429822083900     -0.15795632953679     -1.97295508091884
