14
Coordinates from ORCA-job run
  C   0.64125642916408      0.49514177814136      0.45615705068594
  C   -0.38285794238571     -0.13090870407322     -0.19215468036239
  C   1.25406719553257      1.62784553324454     -0.16804247635090
  N   1.75580534897451      2.55278288668349     -0.70012229479099
  N   1.10275018080252      0.04804809951344      1.73552089822523
  H   0.96961220904820      0.76815407757473      2.43586180535867
  H   2.09181306052640     -0.16847003018914      1.70270008825114
  C   -1.06479242189862     -1.33497916688679      0.37599845899495
  H   -2.12778491872128     -1.12525033517134      0.52387640351743
  H   -0.60951522696945     -1.60930988242068      1.32375520786888
  H   -0.98635962905970     -2.17733133313071     -0.31962201905974
  N   -0.92299901605200      0.35316860127870     -1.36407995087821
  H   -0.37685749388989      1.04174692147847     -1.86231184764576
  H   -1.34513777507162     -0.33763844604285     -1.96353664381425
