14
Coordinates from ORCA-job run
  C   0.68185486884916      0.58926496384473      0.46293023340969
  C   -0.34550790373088     -0.05149494560012     -0.16663392765709
  C   1.08113869208590      1.86688899537409     -0.04220960886820
  N   1.34553263289670      2.91994876866962     -0.49910902396928
  N   1.45187868998545      0.08951014750069      1.54988727060593
  H   1.15226916512813      0.44708505903826      2.44801114958701
  H   1.48580704548676     -0.91793368586652      1.57057117863652
  C   -0.86153832641594     -1.38354293768099      0.28749350448779
  H   -0.62225676877965     -1.56731131755677      1.33408655477557
  H   -1.94775332406152     -1.41268603315672      0.17677179280781
  H   -0.43968858025138     -2.20024744647865     -0.30807233402961
  N   -1.03126115082465      0.50028500210878     -1.23949045109209
  H   -0.58232320417192      1.29291180138767     -1.67761602435399
  H   -1.36715183619614     -0.17167837158407     -1.91262031434005
