14
Coordinates from ORCA-job run
  C   0.70164088113803      0.56223307335765      0.43810398429890
  C   -0.31742204184349     -0.08332598226120     -0.19735275849111
  C   1.10733775551700      1.84108180714477     -0.06025787092213
  N   1.37686706478873      2.90683429791510     -0.48360582055518
  N   1.48464088159422      0.04665813295654      1.50434637801125
  H   1.29475873808817      0.49352055181078      2.39197908391148
  H   1.41017212582524     -0.95507830142940      1.59162941458304
  C   -0.86202097041271     -1.39501472796765      0.28197369788379
  H   -0.40251860067885     -2.22995136851186     -0.25583361710848
  H   -0.70101904843345     -1.53124182149596      1.35117959617030
  H   -1.93905694612062     -1.44687465365967      0.09801225622400
  N   -0.81463623388536      0.33442506765930     -1.42811885435845
  H   -1.80732162195638      0.19138026489289     -1.54036598843671
  H   -0.53142198362053      1.26435365958871     -1.70768950121070
