14
Coordinates from ORCA-job run
  C   0.63227647382131      0.48746950186084      0.48570224880611
  C   -0.40566067293159     -0.10268645507796     -0.17409793593916
  C   1.07934183855630      1.77339823198268      0.04463455054481
  N   1.44408332492610      2.82739356022885     -0.33770872709379
  N   1.26847426918401     -0.14652960407359      1.60087554575928
  H   1.15840788587394      0.41104602434464      2.43969264771571
  H   2.26141407421147     -0.25341290629162      1.43184799940369
  C   -0.92305119261982     -1.45409181771778      0.20554504120197
  H   -0.86901169917246     -2.13420537266590     -0.65117263769414
  H   -1.97244335629980     -1.37964910176265      0.50401386889236
  H   -0.33765356775330     -1.86147013032141      1.02542545261365
  N   -1.11002276995783      0.53865476308755     -1.16980998295587
  H   -0.68042022083633      1.36002079727781     -1.57107295194582
  H   -1.54473438700201     -0.06393749087143     -1.84987511930879
