14
Coordinates from ORCA-job run
  C   0.62306811205794      0.50507136867269      0.43573048719178
  C   -0.44385633786660     -0.22238008752056     -0.00050082318225
  C   1.96222139140294      0.04820980553336      0.25369047202394
  N   3.08615884083982     -0.29075808132974      0.14704295053043
  N   0.37264837742463      1.76573281786237      1.07581830101771
  H   0.92974417971712      1.85671644089849      1.91677997543986
  H   0.61448985677724      2.53850825838121      0.46448332287540
  C   -0.31655460099153     -1.54020544417037     -0.69744852599916
  H   -0.92055534233038     -2.29626282173236     -0.18472032821157
  H   0.71585256640025     -1.88701161569821     -0.72166854397232
  H   -0.68671210512850     -1.45987118077888     -1.72281934482663
  N   -1.71242859949774      0.29084287097219      0.10266371706564
  H   -1.76688178723950      1.07292892353529      0.74243933405352
  H   -2.45719455156569     -0.38352125462549      0.17350900599365
