14
Coordinates from ORCA-job run
  C   0.73467072736506      0.55502687369306      0.40954755537741
  C   -0.37431477249187     -0.02784617583076     -0.13196396047663
  C   1.14244453368008      1.82322458912632     -0.11193023447192
  N   1.41231357051618      2.87084071252868     -0.57810261013922
  N   1.57821516345002      0.00043463087277      1.41260138696654
  H   1.59358743548887     -1.00756110631998      1.39216730614757
  H   1.35741049356270      0.32584729748591      2.34497781992071
  C   -0.90378830594511     -1.34712647805641      0.34363626088163
  H   -0.56197277948536     -1.57361166531845      1.35266698134755
  H   -0.58865863972077     -2.16360623496827     -0.31522999794824
  H   -1.99580803137374     -1.32302809504639      0.35072554336699
  N   -1.13102476247368      0.57514382096556     -1.12516256172962
  H   -0.69348952936439      1.35845493390664     -1.59027555576132
  H   -1.56758510320798     -0.06519310303868     -1.77065793348143
