14
Coordinates from ORCA-job run
  C   0.58589317081102      0.53530532201202      0.49630274718172
  C   -0.31302920502987     -0.18209683355886     -0.23774260523244
  C   1.07971900182809      1.76569407421686     -0.04249682665468
  N   1.46736307791737      2.78315020586237     -0.49489564206662
  N   1.04023245753848      0.08077730441222      1.77598209553584
  H   0.85047221928117      0.77619594053095      2.48784030980997
  H   2.04035109256500     -0.08003686502209      1.76415252337721
  C   -0.89542926376869     -1.46860860372086      0.25596304582713
  H   -0.51853133751666     -1.69094466875999      1.25059114491127
  H   -0.63563130086526     -2.28202008330687     -0.42688362525207
  H   -1.98796202286578     -1.39971718461677      0.29079380154714
  N   -0.67454708865460      0.17473803434792     -1.51906320544372
  H   -0.44875206520258      1.11630941156813     -1.80654700196141
  H   -1.59014873603770     -0.12774605396504     -1.80999676157933
