14
Coordinates from ORCA-job run
  C   0.57398052759901      0.54761387369461      0.49651753292775
  C   -0.31371019088973     -0.18508206326786     -0.23570312794428
  C   1.02191823161089      1.80142489674336     -0.02821130116070
  N   1.37302689074473      2.83757385827412     -0.46782626856787
  N   1.06373555584053      0.08632961348400      1.76024216890559
  H   2.06720023856565     -0.04958589437348      1.72755751861296
  H   0.86906236331659      0.76383353225947      2.48750275523472
  C   -0.84978390925399     -1.49613647013750      0.24537345657661
  H   -0.45165461728117     -1.72380224260888      1.23053753974419
  H   -0.57589785464342     -2.28966417843942     -0.45534524406155
  H   -1.94331402791317     -1.46172004454436      0.29624429909122
  N   -0.70476438414775      0.18006161541884     -1.50609439437518
  H   -1.61559857001929     -0.14508817123630     -1.78766406262536
  H   -0.51320025352890      1.13324167473342     -1.78013087235809
