14
Coordinates from ORCA-job run
  C   0.55892440246650      0.34789027070257      0.71236153084823
  C   -0.46939673989727     -0.13020915682757     -0.04668311424359
  C   0.25901605366710      0.87796837094707      2.00733992105641
  N   -0.00311726497425      1.30031081724379      3.07646406426480
  N   1.91009524149726      0.32448331304786      0.24413509853542
  H   2.28040849833656      1.26375735119794      0.16253242119611
  H   2.50447234294687     -0.18932881622812      0.88292618158662
  C   -0.25220777661473     -0.71005547064411     -1.40829677868198
  H   -0.77484249524547     -0.10610322347007     -2.15485847441933
  H   0.80907803525471     -0.73782652511887     -1.64078814366543
  H   -0.66091463012649     -1.72490382349489     -1.45566077410504
  N   -1.78712845737304     -0.01653429789747      0.33710010574675
  H   -2.41364001171278     -0.71020335286990     -0.03744026373035
  H   -1.96274719822498      0.21175454341177      1.30586822561139
