14
Coordinates from ORCA-job run
  C   0.56280683243456      0.54907035461487      0.51213880909677
  C   -0.35292724048938     -0.15493149573120     -0.21394232816757
  C   0.76951276211945      1.92958363785631      0.19626288891866
  N   0.92069146958647      3.06861557703150     -0.06825444692592
  N   1.31505566637891     -0.06332226171073      1.56493359797938
  H   2.30621835318060     -0.04364020462697      1.35564955491865
  H   1.17583466102798      0.43121140808807      2.43786629023846
  C   -0.64689628789132     -1.59577384410013      0.06084100790895
  H   -0.41611494678709     -2.19689959352255     -0.82298336695109
  H   -1.71084052217580     -1.72880108551045      0.28418298522887
  H   -0.05707160096804     -1.94299533672824      0.90486976068874
  N   -0.99913251033554      0.37944385511286     -1.30759609217040
  H   -0.96541450768864      1.38410637644831     -1.40580204669583
  H   -1.90172212839215     -0.01666738722165     -1.51416661406768
