14
Coordinates from ORCA-job run
  C   0.59968836711449      0.52125965021423      0.65011532271379
  C   -0.29584501772996     -0.18493025191633     -0.09410601906786
  C   1.38232244514551     -0.13728856145415      1.64904106694728
  N   2.05376729502553     -0.68119292275585      2.44878964872077
  N   0.76813559711500      1.92742831936096      0.55503583053193
  H   1.55518816092185      2.22846998519794     -0.00254609531976
  H   -0.08140062710802      2.40483987292389      0.29228680317213
  C   -0.63486163079254     -1.62118260121396      0.15384312056528
  H   -1.68685775235582     -1.71444546023534      0.44047694352980
  H   -0.02184317544712     -2.04817989922287      0.94634111141818
  H   -0.48332127503576     -2.21172129772875     -0.75561323487851
  N   -1.06634589931438      0.45405714336252     -1.06082883886423
  H   -1.48418801114914     -0.17066227444242     -1.73319826953790
  H   -0.60543847638965      1.23454829791013     -1.50663738993089
