14
Coordinates from ORCA-job run
  C   0.67095864962225      0.62328892173083      0.45093674660904
  C   -0.25851548714264     -0.12097372058578     -0.21752278452155
  C   1.19783108423480      1.77598328691009     -0.21422939596128
  N   1.59067893220061      2.70344163157386     -0.82522252719576
  N   1.15263559919640      0.39388440777935      1.77376573262363
  H   0.41795561778845      0.13454130850676      2.41429035896454
  H   1.90175384953562     -0.28465104590011      1.81256356649960
  C   -0.87965062715896     -1.35246894241821      0.36773841544278
  H   -0.33662054250602     -1.69422376652922      1.24649010510646
  H   -1.91941672526347     -1.16578603949611      0.65761172106033
  H   -0.87841995856288     -2.15353182064183     -0.37543613557450
  N   -0.65343500517811      0.16230902163994     -1.51276591001756
  H   -0.40385907829389      1.07882756587728     -1.85758817390738
  H   -1.60089630847218     -0.09864080844684     -1.73763171912838
