15

C	-0.414785	-0.007125	-1.482071
C	0.0	0.0	0.0
Cl	-2.224149	-0.015148	-1.653064
H	1.09764	0.0	0.0
C	0.071608	1.183407	-2.18391
N	0.430154	2.132815	-2.776822
C	0.07969	-1.212487	-2.15337
N	0.461031	-2.171129	-2.716284
C	-0.451631	-1.248763	0.754175
H	-0.021318	-2.135102	0.283863
H	-0.058336	-1.192554	1.770329
H	-1.538769	-1.340518	0.794462
C	-0.491813	1.217625	0.63233
N	-0.898029	2.1768	1.176346
Cl	3.193358	0.0	0.0
