15

C	-0.414546	-0.010612	-1.482568
C	0.0	0.0	0.0
Cl	-2.223021	-0.01904	-1.655426
H	1.097624	0.0	0.0
C	0.072253	1.17925	-2.185523
N	0.41654	2.143013	-2.76409
C	0.07915	-1.218884	-2.149861
N	0.420165	-2.196614	-2.705193
C	-0.451939	-1.248361	0.754746
H	-0.061809	-1.189665	1.771946
H	-1.538972	-1.341851	0.792115
H	-0.019154	-2.134989	0.287429
C	-0.490185	1.22015	0.628597
N	-0.874829	2.200984	1.149051
Cl	3.195956	0.0	0.0
