15

C	-0.452183	0.132219	-1.471311
C	0.0	0.0	0.0
Cl	0.206798	1.635299	-2.187792
H	1.096111	0.0	0.0
C	0.017863	-1.010728	-2.262278
N	0.350747	-1.924184	-2.921948
C	-1.917642	0.180177	-1.566105
N	-3.092316	0.196471	-1.608651
C	-0.473728	-1.317028	0.619253
H	-0.039157	-2.157162	0.074268
H	-1.563818	-1.404876	0.628993
H	-0.105345	-1.364636	1.645719
C	-0.503187	1.14106	0.756568
N	-0.928109	2.032524	1.394166
Cl	3.22136	0.0	0.0
