15

C	-0.452747	-0.001195	-1.480669
C	0.0	0.0	0.0
Cl	0.298475	-1.383047	-2.339545
H	1.096121	0.0	0.0
C	-1.911434	-0.146735	-1.580089
N	-3.078603	-0.280603	-1.619641
C	-0.057325	1.234859	-2.16418
N	0.219206	2.220007	-2.74301
C	-0.477205	-1.234251	0.764066
H	-0.06709	-2.133577	0.304656
H	-0.086303	-1.174185	1.781003
H	-1.567716	-1.301457	0.80481
C	-0.501781	1.219078	0.627038
N	-0.925106	2.178074	1.158931
Cl	3.226371	0.0	0.0
