15

C	-0.409034	-0.076894	-1.482295
C	0.0	0.0	0.0
Cl	-2.215283	-0.095482	-1.661769
H	1.099862	0.0	0.0
C	0.081829	1.080282	-2.235108
N	0.430289	2.014995	-2.856483
C	0.090745	-1.313312	-2.090789
N	0.435287	-2.322903	-2.583325
C	-0.453846	-1.211941	0.810751
H	-1.541318	-1.299902	0.853804
H	-0.061341	-1.108856	1.823554
H	-0.024837	-2.120217	0.382581
C	-0.495493	1.244904	0.572808
N	-0.919206	2.223383	1.067063
Cl	3.190675	0.0	0.0
