15

C	-0.440969	-0.02586	-1.485379
C	0.0	0.0	0.0
Cl	0.257841	-1.461041	-2.302026
H	1.096165	0.0	0.0
C	-1.90364	-0.108431	-1.597263
N	-3.075474	-0.179177	-1.646357
C	0.022168	1.172788	-2.193528
N	0.360026	2.138683	-2.771846
C	-0.497405	-1.207759	0.791305
H	-0.135919	-1.113888	1.816646
H	-1.589206	-1.271811	0.804561
H	-0.077364	-2.122563	0.37395
C	-0.492717	1.241663	0.589612
N	-0.915524	2.219961	1.083756
Cl	3.23755	0.0	0.0
