15

C	-0.427188	0.30985	-1.450799
C	0.0	0.0	0.0
Cl	0.247296	1.882759	-1.969478
H	1.109611	0.0	0.0
C	0.05998	-0.739109	-2.354528
N	0.389288	-1.614176	-3.066587
C	-1.890017	0.37295	-1.57653
N	-3.061988	0.404147	-1.669365
C	-0.483045	-1.378688	0.449197
H	-0.136314	-1.55003	1.469419
H	-1.572831	-1.465332	0.426568
H	-0.037593	-2.148256	-0.182944
C	-0.504541	1.045886	0.881579
N	-0.935189	1.854638	1.617536
Cl	3.2091	0.0	0.0
