15

C	-0.407002	0.241441	-1.464169
C	0.0	0.0	0.0
Cl	-2.213697	0.250483	-1.650473
H	1.10854	0.0	0.0
C	0.076009	1.537453	-1.948478
N	0.416692	2.585997	-2.356082
C	0.102476	-0.831088	-2.324341
N	0.454744	-1.70723	-3.023675
C	-0.451565	-1.357323	0.532927
H	-1.539007	-1.455246	0.554547
H	-0.061335	-1.471469	1.545546
H	-0.019147	-2.153324	-0.07731
C	-0.496045	1.093596	0.825128
N	-0.921348	1.945861	1.513324
Cl	3.18773	0.0	0.0
