15

C	-0.446083	0.134851	-1.472698
C	0.0	0.0	0.0
Cl	0.102388	1.698148	-2.149249
H	1.108754	0.0	0.0
C	0.12114	-0.950844	-2.282329
N	0.514581	-1.83937	-2.943064
C	-1.909636	0.065993	-1.582089
N	-3.080156	-0.031637	-1.632919
C	-0.451944	-1.335166	0.600317
H	-1.540049	-1.433996	0.62717
H	-0.019202	-2.158973	0.0295
H	-0.062701	-1.400506	1.6172
C	-0.532552	1.119918	0.764261
N	-1.008625	1.991168	1.392903
Cl	3.22092	0.0	0.0
