14

C	0.0	0.0	0.0
C	-0.567575	-0.045118	-1.41902
F	1.38602	0.0	0.0
H	-1.677195	-0.01044	-1.196509
H	-0.304138	0.9745	0.403958
N	-0.501065	-1.126862	0.712949
H	-1.529321	-0.974904	0.628234
H	-0.24881	-1.011407	1.689434
N	-0.204531	-1.340428	-2.072672
O	-1.059661	-2.220255	-2.091772
O	0.934246	-1.445781	-2.531588
C	-0.080872	1.053699	-2.233018
N	0.258771	1.970271	-2.883933
F	-2.77576	0.0	0.0
