14

C	0.0	0.0	0.0
C	-0.495004	-0.155885	-1.443305
F	1.401995	0.0	0.0
H	0.389975	-0.093126	-2.090776
H	-0.291534	0.992388	0.341925
N	-0.445996	-1.085726	0.80864
H	-0.156279	-0.886898	1.761473
H	-1.480167	-0.932313	0.733344
N	-1.336819	1.012454	-1.900902
O	-0.998419	2.118122	-1.495204
O	-2.177996	0.8021	-2.761787
C	-1.181056	-1.409359	-1.736575
N	-1.595401	-2.450923	-2.084844
F	-2.57101	0.0	0.0
