14

C	0.0	0.0	0.0
C	-0.53824	0.522097	-1.339478
F	1.401997	0.0	0.0
H	-1.58766	0.160433	-1.34198
H	-0.290209	0.736088	0.757921
N	-0.489905	-1.316446	0.218595
H	-1.519102	-1.132072	0.21132
H	-0.213894	-1.596	1.154844
N	0.295198	-0.024768	-2.454496
O	1.196171	0.688555	-2.8931
O	0.04886	-1.162528	-2.839161
C	-0.512569	1.977189	-1.401524
N	-0.533292	3.150343	-1.418869
F	-2.72311	0.0	0.0
