14

C	0.0	0.0	0.0
C	-0.528785	0.654157	-1.285266
F	1.401944	0.0	0.0
H	-1.585814	0.311155	-1.318833
H	-0.302088	0.645386	0.828848
N	-0.478302	-1.336687	0.077196
H	-1.505831	-1.159876	0.08911
H	-0.215682	-1.704753	0.985493
N	0.290588	0.204338	-2.450946
O	0.030729	-0.894594	-2.937011
O	1.195294	0.952394	-2.830122
C	-0.497148	2.106908	-1.195486
N	-0.49042	3.265759	-1.032147
F	-2.705828	0.0	0.0
