14

C	0.0	0.0	0.0
C	-0.370791	0.148134	-1.480666
F	1.402031	0.0	0.0
H	-0.084545	-0.786258	-1.966995
H	-0.307831	0.887613	0.557034
N	-0.480409	-1.249301	0.483016
H	-1.511144	-1.068543	0.415412
H	-0.243367	-1.302805	1.46894
N	0.552691	1.191944	-2.066313
O	0.491281	2.319148	-1.585931
O	1.299346	0.845283	-2.978263
C	-1.726458	0.534628	-1.898916
N	-2.493926	0.921507	-2.708631
F	-2.629459	0.0	0.0
