14

C	0.0	0.0	0.0
C	-0.347751	-0.037777	-1.493837
F	1.376012	0.0	0.0
H	0.120334	-0.943381	-1.886253
H	-0.328546	0.944061	0.440744
N	-0.493405	-1.188647	0.616818
H	-0.242141	-1.142234	1.599651
H	-1.523251	-1.001466	0.541365
N	0.400642	1.093395	-2.158252
O	1.164676	0.80925	-3.077709
O	0.191813	2.22666	-1.736527
C	-1.73711	0.03685	-1.97905
N	-2.518691	0.073172	-2.86378
F	-2.638422	0.0	0.0
