12

C	-0.421824	-0.04332	-1.449378
C	0.0	0.0	0.0
Cl	-2.187747	-0.058765	-1.677292
H	1.094888	0.0	0.0
H	-0.00693	-0.896395	-1.980933
H	-0.35711	0.92018	0.465094
N	0.100188	1.176346	-2.16978
O	-0.00456	2.253722	-1.59623
O	0.549003	0.988119	-3.295481
C	-0.501335	-1.163295	0.716621
N	-0.921723	-2.09898	1.287248
Br	3.420843	0.0	0.0
