19

C	-0.459109	0.022619	-1.464753
C	0.0	0.0	0.0
F	-0.22071	-1.30818	-1.932644
H	1.090881	0.0	0.0
N	-1.853347	0.314715	-1.568138
H	-2.38642	-0.374102	-1.049823
H	-2.134107	0.270607	-2.541863
C	0.370626	0.910731	-2.363616
H	0.127678	1.956537	-2.193939
H	0.166908	0.639835	-3.404968
H	1.425651	0.743795	-2.132898
C	-0.471042	-1.20697	0.781952
H	-0.078158	-2.097723	0.295861
H	-0.058969	-1.155704	1.789781
H	-1.558486	-1.278277	0.867202
N	-0.41422	1.25362	0.659317
O	-1.076806	1.194106	1.703315
O	-0.029543	2.313843	0.161702
H	2.748211	0.0	0.0
