19

C	-0.365452	-0.009771	-1.482332
C	0.0	0.0	0.0
F	-1.767943	0.193233	-1.605721
H	1.092992	0.0	0.0
N	0.308321	1.036673	-2.183549
H	0.618799	0.703599	-3.087562
H	1.116671	1.349703	-1.655231
C	-0.090795	-1.376518	-2.087891
H	-0.278396	-1.320719	-3.166436
H	-0.745283	-2.143329	-1.670958
H	0.957813	-1.636146	-1.911606
C	-0.526894	-1.174267	0.792005
H	-1.60351	-1.309032	0.668568
H	-0.316085	-1.020948	1.850638
H	0.003003	-2.076049	0.48018
N	-0.437834	1.27641	0.617022
O	0.121243	2.30907	0.244815
O	-1.308985	1.248802	1.494057
H	2.763996	0.0	0.0
