19

C	-0.28416	0.119307	-1.507413
C	0.0	0.0	0.0
F	-1.652578	0.399381	-1.690872
H	1.091721	0.0	0.0
N	0.457088	1.159111	-2.174523
H	1.439327	0.960609	-1.968612
H	0.26624	2.022053	-1.675709
C	0.02778	-1.193208	-2.196538
H	-0.672843	-1.972246	-1.896465
H	1.049794	-1.494433	-1.946658
H	-0.049801	-1.028228	-3.271345
C	-0.513753	-1.253908	0.671838
H	-0.302615	-1.210713	1.740111
H	-1.590243	-1.388317	0.536178
H	0.021058	-2.113657	0.265394
N	-0.473145	1.196704	0.721495
O	-1.193185	1.049071	1.717177
O	-0.105425	2.310723	0.327421
H	2.712809	0.0	0.0
