16
Coordinates from ORCA-job run
  C   0.65722913404883     -0.15950139436808     -0.71562111155134
  C   -0.44824171082416     -0.34836754474404      0.32595845203268
  Cl  0.14951106049558      0.95581202401639     -2.02063174751898
  H   -0.07176135311087     -1.08530011415945      1.04045092213142
  H   0.77714572558532     -1.13397600898332     -1.19720202992167
  C   1.98365098141711      0.30156582427483     -0.14004552607444
  H   2.74919542208129      0.28078726539125     -0.91655189670916
  H   2.28894449850418     -0.35592850905178      0.67749194816509
  H   1.91447772438184      1.31825306539583      0.24681117579300
  C   -1.78984119427087     -0.77143959780991     -0.23226525662009
  H   -2.20076374665012     -0.00381435432172     -0.88369904425146
  H   -2.49581194764505     -0.95556557419930      0.57966089060753
  H   -1.66937368203934     -1.69593946168541     -0.80192204294399
  N   -0.59015070225474      0.90350773439044      1.14311954881858
  O   -1.39509939952965      1.75001788261636      0.76418713370994
  O   0.14088918981063      1.00088876323793      2.12925858433287
