16
Coordinates from ORCA-job run
  C   0.81857163679368      0.57097909222893     -0.14842698954656
  C   -0.38955477928380     -0.02232430624092      0.55649696439033
  Cl  1.75539274938962      1.52763787880779      1.04431341477321
  H   -0.07376367284567     -0.56445655618071      1.44950794354625
  H   0.46970877085458      1.28530909383645     -0.89591178205590
  C   1.71369712061446     -0.48482410579937     -0.76876903231764
  H   2.61428090934310     -0.01972963869098     -1.17071089223636
  H   2.01582863491739     -1.22491117192751     -0.02415968255997
  H   1.19984346068958     -0.99114406978475     -1.58832593965835
  C   -1.25983974333811     -0.88142340157393     -0.34773770444530
  H   -1.52005733810705     -0.33920277828074     -1.25868812225867
  H   -2.18153967768224     -1.15058474440137      0.17243278042878
  H   -0.74266810491516     -1.80376463084767     -0.61235281025877
  N   -1.24918837486350      1.09512742031283      1.07456556353355
  O   -1.59469088216290      1.94798565734732      0.26037068784108
  O   -1.57502070940398      1.05432626119463      2.25739560082429
