17

C	-0.465727	-0.028411	-1.442539
C	0.0	0.0	0.0
F	-0.016298	-1.153732	-2.059046
H	1.10126	0.0	0.0
C	-1.931846	0.027433	-1.594909
N	-3.103095	0.071717	-1.677164
N	0.102523	1.150534	-2.23553
O	-0.439045	2.235734	-2.036906
O	1.035664	0.929698	-2.988818
N	-0.496005	-1.274133	0.55936
H	-0.768725	-1.119835	1.524135
H	0.305283	-1.898145	0.578895
C	-0.527262	1.180701	0.788991
H	-0.240049	2.13007	0.340894
H	-1.619404	1.158452	0.895874
H	-0.071204	1.136231	1.781261
F	2.600615	0.0	0.0
