17

C	-0.444931	0.017944	-1.436965
C	0.0	0.0	0.0
F	-1.821877	0.06526	-1.570633
H	1.093344	0.0	0.0
C	0.109474	1.139077	-2.211172
N	0.54749	2.054983	-2.801163
N	0.007789	-1.274429	-2.128336
O	-0.856186	-2.085344	-2.431684
O	1.210241	-1.373813	-2.309025
N	-0.455374	-1.258897	0.578684
H	-1.383396	-1.175204	0.980987
H	0.201146	-1.516896	1.304611
C	-0.498941	1.249804	0.711962
H	-0.136312	1.221507	1.742948
H	-0.10133	2.159914	0.253955
H	-1.595522	1.309192	0.726181
F	2.589654	0.0	0.0
