17

C	-0.427056	0.039214	-1.445932
C	0.0	0.0	0.0
F	0.045747	1.148692	-2.079275
H	1.102165	0.0	0.0
C	-0.031519	-1.1579	-2.199117
N	0.286726	-2.072721	-2.860525
N	-1.959319	0.14025	-1.537015
O	-2.594945	-0.907691	-1.444302
O	-2.436908	1.27015	-1.586487
N	-0.383087	-1.288936	0.557691
H	-1.207065	-1.231585	1.144981
H	0.40049	-1.628323	1.0998
C	-0.485791	1.21267	0.774205
H	-1.55987	1.17345	1.003448
H	0.07373	1.246108	1.712224
H	-0.284866	2.138231	0.231112
F	2.575212	0.0	0.0
