17

C	-0.439264	0.000703	-1.445186
C	0.0	0.0	0.0
F	-1.816976	0.006221	-1.5831
H	1.093897	0.0	0.0
C	0.092824	1.122963	-2.226404
N	0.438147	2.062516	-2.840933
N	0.03033	-1.285265	-2.120774
O	1.164787	-1.281952	-2.576385
O	-0.751958	-2.230569	-2.102478
N	-0.442445	-1.19555	0.70577
H	0.284282	-1.895776	0.624092
H	-1.306852	-1.57125	0.334345
C	-0.50111	1.259923	0.690219
H	-1.594601	1.298874	0.752871
H	-0.094372	1.245918	1.701976
H	-0.135689	2.162294	0.192364
F	2.584565	0.0	0.0
