17

C	-0.361947	-0.009943	-1.485215
C	0.0	0.0	0.0
F	0.077714	-1.159464	-2.071503
H	1.096547	0.0	0.0
C	-1.811971	0.095238	-1.739471
N	-2.982281	0.112752	-1.848719
N	0.302457	1.141271	-2.235416
O	1.295622	0.889315	-2.895502
O	-0.230541	2.239769	-2.091939
N	-0.445053	-1.237019	0.624544
H	0.183089	-1.977285	0.339539
H	-1.395151	-1.489919	0.367436
C	-0.546544	1.201296	0.74272
H	-0.164782	2.138065	0.337815
H	-1.644245	1.239024	0.742835
H	-0.204417	1.107424	1.774299
F	2.588322	0.0	0.0
