17

C	-0.463469	0.001232	-1.444708
C	0.0	0.0	0.0
F	-0.019541	-1.112869	-2.081678
H	1.101353	0.0	0.0
C	-1.928077	0.07113	-1.597464
N	-3.098615	0.129758	-1.67728
N	0.110256	1.19392	-2.214278
O	-0.403351	2.28246	-1.967686
O	1.018349	0.977764	-3.000016
N	-0.494502	-1.284644	0.531661
H	0.312158	-1.899079	0.571772
H	-0.809375	-1.145391	1.484111
C	-0.522227	1.166119	0.812394
H	-1.616518	1.161391	0.897809
H	-0.087802	1.083875	1.812283
H	-0.207705	2.122862	0.400125
F	2.605376	0.0	0.0
