17

C	-0.435792	-0.047433	-1.443455
C	0.0	0.0	0.0
F	0.111023	0.966735	-2.166303
H	1.096301	0.0	0.0
C	-0.1469	-1.327669	-2.102093
N	0.105014	-2.304432	-2.702649
N	-1.959335	0.162066	-1.533816
O	-2.356785	1.298118	-1.770908
O	-2.663356	-0.804948	-1.254074
N	-0.391322	-1.239863	0.653038
H	0.393034	-1.542249	1.216738
H	-1.21001	-1.128744	1.237784
C	-0.470739	1.271426	0.685544
H	-0.25305	2.152312	0.077803
H	-1.546806	1.263235	0.911962
H	0.085899	1.365185	1.621081
F	2.576514	0.0	0.0
