13
Coordinates from ORCA-job run
  C   0.24450767365470      0.23077891424043     -0.04265540837833
  C   -0.92119423131450     -0.40904647475010      0.22696053621371
  N   0.50685746023882      1.51041411264900      0.63316452542753
  O   1.65667668348772      1.66394423963327      1.04025746005643
  O   -0.41954809796137      2.31142247597196      0.73070812668080
  C   1.34150594670241     -0.25689733239032     -0.91807178016030
  H   1.03408398009287     -1.14474611442842     -1.46891785192917
  H   2.22192352593176     -0.48629496257145     -0.31476745382047
  H   1.62422852821372      0.52832653826832     -1.62420853383071
  C   -1.92690455115471      0.07218415592593      1.12496358017662
  N   -2.79427851915029      0.39758341546671      1.85094520998861
  C   -1.18014053423071     -1.68257086353848     -0.37669669215099
  N   -1.38771786451043     -2.73509810447687     -0.86068171827371
