13
Coordinates from ORCA-job run
  C   0.30789923270169      0.13663259455822     -0.00401065407445
  C   -0.89509877186774     -0.38495220609783      0.34386015619388
  N   1.32095262306955      0.31594451187455      1.05382553766064
  O   2.48130112743481      0.08188384614073      0.72111967277845
  O   0.93718107655581      0.67482401293694      2.16358032307414
  C   0.73806976306730      0.54555123029242     -1.36421105046759
  H   0.93680926143476      1.62127770957559     -1.37849132787628
  H   1.67003782194436      0.03677044159541     -1.61661207897877
  H   -0.01890013209481      0.30686096357899     -2.11163723613060
  C   -1.88958150801919     -0.58724161487881     -0.66813529013858
  N   -2.69448227257208     -0.74850624808480     -1.51147246374983
  C   -1.26166419251225     -0.79987765208622      1.66432162466847
  N   -1.63252402914221     -1.19916758940519      2.70786278704052
