13
Coordinates from ORCA-job run
  C   0.30779310183421      0.14430620254938     -0.00151649950615
  C   -0.88176430230346     -0.40731153890074      0.34683845372170
  N   1.29655139615923      0.40096851806471      1.05797264166790
  O   0.88456416570352      0.77197279117521      2.15497660970278
  O   2.47404834138292      0.24165621167065      0.73819044562769
  C   0.73935978771923      0.51792552449487     -1.37174725220474
  H   -0.03087147891349      0.27494630421183     -2.10379965260381
  H   0.93716401604252      1.59194787507504     -1.40882585688141
  H   1.66364936343686      0.00430872293287     -1.63339631480558
  C   -1.85198749687262     -0.68117975962908     -0.67153811108568
  N   -2.64748034988483     -0.90950200131457     -1.50826096811661
  C   -1.25204223396607     -0.79287744315276      1.67520810009420
  N   -1.63798431033801     -1.15816140717741      2.72489840438972
