13
Coordinates from ORCA-job run
  C   0.26978110192850      0.18864041743848      0.00444306877527
  C   -0.97333051830268     -0.33733606955300      0.12501996996262
  N   0.59392360924579      1.38493990699428      0.79940724058405
  O   1.67449215346016      1.35057426333650      1.38409043222946
  O   -0.21509400109892      2.30885603439695      0.80137583700771
  C   1.38231690058824     -0.32482458960583     -0.83379456448783
  H   2.22999259045273     -0.58207530783914     -0.19561896058060
  H   1.07420316518310     -1.19966425283255     -1.40539303066136
  H   1.71353595469271      0.45775833252533     -1.52303536362514
  C   -1.98665372382030      0.18904991072863      0.98911827627155
  N   -2.85135482697739      0.55951802527332      1.69661766784867
  C   -1.31776702909192     -1.51477374972392     -0.61461485918806
  N   -1.59404537626003     -2.48066292113906     -1.22761571413635
