13
Coordinates from ORCA-job run
  C   0.28163585406707      0.17500288193049      0.03816595725047
  C   -0.96650532244315     -0.34674708378680      0.13809229922680
  N   0.53015545014644      1.49494300958169      0.64105980860861
  O   1.20319768348716      2.26689462128420     -0.03889872745877
  O   0.06797197138252      1.71164813057482      1.75857603852656
  C   1.44504507206588     -0.42284425299552     -0.66445727688933
  H   2.30618371684410     -0.45371175848128      0.00898326148003
  H   1.71926182394194      0.20224796934548     -1.51696042670415
  H   1.21963536737614     -1.43153775379647     -1.00893536295347
  C   -1.24838571521423     -1.61487567617513     -0.46585181878035
  N   -1.47153959392376     -2.65715855051248     -0.96510895761189
  C   -2.06548672512932      0.29865582616715      0.78974118672687
  N   -3.02016958260080      0.77548263686385      1.28659401857861
