13
Coordinates from ORCA-job run
  C   0.27342443064456      0.19343357879003     -0.00187637465102
  C   -0.97716705525371     -0.31572341261133      0.12667054249840
  N   0.61258840786277      1.39784549461404      0.77365214980636
  O   -0.21188302269616      2.30791552460057      0.81007669655446
  O   1.71859616180320      1.38528431947415      1.30996607850215
  C   1.38360005835149     -0.36243329725910     -0.81612089094948
  H   1.03941405114567     -1.19140371470428     -1.43358057873734
  H   2.18489365734772     -0.70545065219419     -0.15796356358472
  H   1.79920136427945      0.41912244014406     -1.45799314890625
  C   -1.99483317929707      0.23661404284796      0.96834528882524
  N   -2.87373209899990      0.61548528042305      1.65353114582582
  C   -1.33179651219477     -1.50391504581096     -0.59087255288916
  N   -1.62230626299324     -2.47777455831400     -1.18483479229446
