13
Coordinates from ORCA-job run
  C   0.28811072085926      0.16239676554214     -0.01398704056265
  C   -0.87064300086210     -0.43269017401745      0.36768141938488
  N   1.23172322069590      0.58340152278552      1.04022166476332
  O   2.42301582085654      0.42197678768987      0.78263966186810
  O   0.76405043919968      1.05360115292490      2.07420515199600
  C   0.73871360131805      0.43622340746868     -1.40325184309354
  H   0.80278518361058      1.52039189272826     -1.53534220683412
  H   0.04059634458023      0.03738439727879     -2.13720179859975
  H   1.73633894630182      0.02931518459657     -1.56515230358607
  C   -1.24770069825859     -0.69764306473456      1.72455527520515
  N   -1.62874784148908     -0.97320151624377      2.80418796147811
  C   -1.78115306436674     -0.88563529117271     -0.64140865891810
  N   -2.49808967244553     -1.25752106484624     -1.49814728310134
