13
Coordinates from ORCA-job run
  C   0.27824017810176      0.18306010617577      0.03209370614173
  C   -0.95070768641667     -0.37633368145540      0.16166009849709
  N   0.50499778784079      1.50314731016634      0.64309657038563
  O   0.06905520242069      1.69417298440422      1.77564598593785
  O   1.13358421716753      2.30253023206762     -0.04753586819180
  C   1.43700569990797     -0.37202167940273     -0.71204883971026
  H   2.31800181001959     -0.38764189199240     -0.06422725166892
  H   1.66863735632793      0.27130049066704     -1.56362411125253
  H   1.22989517227737     -1.38221407465248     -1.06359833855025
  C   -1.21379743871144     -1.64558135477592     -0.44852382009777
  N   -1.42358037445491     -2.68954193928851     -0.95013600272491
  C   -2.04836040565921      0.22840920626874      0.85325556650104
  N   -3.00197151882140      0.67071429181770      1.38294230473309
