13
Coordinates from ORCA-job run
  C   0.28076724839148      0.17865777442141      0.03850665506579
  C   -0.95451092146785     -0.36976890284935      0.15292412337540
  N   0.52194266068992      1.48020449475363      0.68184729289828
  O   1.16163730378503      2.28905282366584      0.01265554936517
  O   0.08755990380829      1.64745671215658      1.81886009863149
  C   1.43316088275336     -0.37052051042451     -0.71942026380210
  H   1.21499411604645     -1.36942037777570     -1.09537215153886
  H   2.31516504625260     -0.41090504609756     -0.07434057280635
  H   1.67003425808539      0.29073089385836     -1.55578461847868
  C   -1.23102836867970     -1.62081111451596     -0.48814847480522
  N   -1.45234342805772     -2.64928762628750     -1.01609788857848
  C   -2.04772558089683      0.23172539403689      0.85456007282669
  N   -2.99965312071041      0.67188548505788      1.38881017784687
