13
Coordinates from ORCA-job run
  C   0.25800716865818      0.20118850980134     -0.01432696567513
  C   -0.96748850389723     -0.36724898463269      0.09249042074319
  N   0.43932293950384      1.54712017750381      0.55423251284616
  O   1.41446543458132      1.68011044982728      1.29082709749569
  O   -0.37050406160483      2.41382971042582      0.23696804213831
  C   1.47698984317484     -0.39214787620685     -0.61765665697614
  H   1.28506850868704     -1.39834458822098     -0.98296873494069
  H   1.82310624553909      0.23365985830707     -1.44408371030729
  H   2.27066143208024     -0.42010357589190      0.12944328915496
  C   -2.08099531535464      0.25398339879720      0.74219895928112
  N   -3.02349311754371      0.70617843177315      1.28242487671589
  C   -1.18103012538917     -1.68742180791727     -0.42027573649679
  N   -1.34511044843495     -2.77080370356599     -0.84827339397927
