13
Coordinates from ORCA-job run
  C   0.28576970394472      0.17014867286929      0.03727703389452
  C   -0.94972088205920     -0.37289060166967      0.16933721874704
  N   0.60867142200275      1.35967376983041      0.84094966465239
  O   0.28275611337139      1.35817973705493      2.02648293654270
  O   1.19963228354535      2.25622898816246      0.24313599482508
  C   1.36195848841971     -0.27559183090828     -0.88436033182934
  H   1.52785020304762      0.48697889100358     -1.64764177095794
  H   1.10234530288222     -1.22015839250631     -1.36167330101117
  H   2.29769732617411     -0.39179165613367     -0.32903160461942
  C   -1.96547365454108      0.12881447957386      1.04444466532275
  N   -2.85728561568160      0.48373914049624      1.72601794777134
  C   -1.30465231532187     -1.51643595739532     -0.61699440148153
  N   -1.59054837578410     -2.46689524037752     -1.24894405185641
