13
Coordinates from ORCA-job run
  C   0.29025118881869      0.16467508087172     -0.02126676750765
  C   -0.85968905418293     -0.43591926096441      0.37515571330425
  N   1.28608080350922      0.48830427190975      1.01210123496464
  O   0.88450002562079      1.01601157855402      2.04693651613408
  O   2.44984911984528      0.20530609029939      0.73473312303869
  C   0.68808493939107      0.50593332128803     -1.41008726968738
  H   1.58042938890338     -0.05911301278345     -1.68683386707434
  H   0.93780890197316      1.56914513259986     -1.47018564141063
  H   -0.11532392400561      0.28458543496937     -2.11223491592909
  C   -1.16826578494742     -0.77700019885552      1.73061462595992
  N   -1.47915709270415     -1.09967685091752      2.81906672595138
  C   -1.84357294401969     -0.79094333201840     -0.60399256240112
  N   -2.64999556820180     -1.07230825495285     -1.41400691534276
