13
Coordinates from ORCA-job run
  C   0.28950297887786      0.16140594734651      0.04032113915600
  C   -0.95798619069788     -0.35102297477624      0.19450694830221
  N   1.09642547090785      0.39384230825239      1.25214104158966
  O   2.28437291292302      0.09448009789779      1.16135749283736
  O   0.53263004445647      0.85949736377765      2.23896127334551
  C   0.98664754923376      0.45437045697004     -1.23680452701169
  H   1.88889273892160     -0.16063137476047     -1.29997387806362
  H   0.34906727709674      0.25848702665468     -2.10118595639691
  H   1.31147324135598      1.49879800306296     -1.24968578870797
  C   -1.73959157601155     -0.65385129687093     -0.96668850691749
  N   -2.36473209272957     -0.90576226326896     -1.93083986428932
  C   -1.55065018630171     -0.67355946475638      1.45833580107903
  N   -2.12605216803259     -0.97705382952903      2.43955482507723
