13
Coordinates from ORCA-job run
  C   0.25646657156459      0.21351447005406     -0.02789782402988
  C   -0.94824029530657     -0.37414660648868      0.18027639574961
  N   0.51339350595607      1.51163017757479      0.61693654062802
  O   -0.38107222877012      2.35339807043762      0.58843111205555
  O   1.62696755073309      1.63865052703650      1.12187392080128
  C   1.39294123499849     -0.33509158334690     -0.81030478237856
  H   1.10732129591110     -1.25034178099280     -1.32770175955421
  H   1.72977096188441      0.40416601219832     -1.54223064568944
  H   2.23186038609731     -0.54024071967541     -0.14169201021541
  C   -1.21842058878107     -1.65205465574358     -0.40839991809199
  N   -1.43522433372518     -2.70104838441362     -0.89632745081192
  C   -1.99133085499611      0.17835516291589      0.99004508451871
  N   -2.88543320556601      0.55420931044381      1.65699133701824
