13
Coordinates from ORCA-job run
  C   0.25685090396516      0.20124280713911      0.00140321589718
  C   -0.97109931579105     -0.36761291800213      0.08195259680382
  N   0.44401167993302      1.53177003915173      0.60811536529943
  O   1.44600057496716      1.65667847145125      1.30806289858311
  O   -0.38743649659190      2.39748852970388      0.34705132234045
  C   1.47673186301981     -0.37783059859742     -0.61519992468971
  H   1.84449028269259      0.29515491817330     -1.39551858023400
  H   2.26072823709587     -0.46702819790766      0.13855757814122
  H   1.27427341143864     -1.35419822033770     -1.05379393095566
  C   -2.09971065902255      0.24139670527313      0.71779513872156
  N   -3.05951190630635      0.67634380283280      1.24239992021171
  C   -1.16963228198366     -1.67905514448786     -0.46163638766593
  N   -1.31369629341674     -2.75335019439243     -0.91918921245318
