13
Coordinates from ORCA-job run
  C   0.25783998514633      0.21261036761020     -0.02422607998686
  C   -0.95501541327035     -0.36919897385882      0.15034268210391
  N   0.48047443409771      1.53957163196574      0.57278309358242
  O   -0.41189271794114      2.37647134846740      0.46051206667852
  O   1.56650082080117      1.69245253710982      1.12800520330076
  C   1.43191652558093     -0.36648462026582     -0.72460757310647
  H   1.80077292204420      0.33949703420466     -1.47374122512357
  H   2.23915373584626     -0.53627838558660     -0.00887497012353
  H   1.17326544673596     -1.30616632118619     -1.21149237019374
  C   -1.19423092895275     -1.67389536832119     -0.39092952318393
  N   -1.38556574803919     -2.74526454375584     -0.83933542660093
  C   -2.03825636913322      0.21666202902899      0.88009654597912
  N   -2.96496269291591      0.62002326458762      1.48346757667431
