18

C	0.0	0.0	0.0
C	-0.391814	0.013746	-1.548974
Cl	1.805026	0.0	0.0
H	0.536448	0.029115	-2.129111
N	-0.527502	1.078464	0.774658
H	-0.335243	1.960426	0.312236
H	-1.554464	0.88065	0.694492
C	-0.422267	-1.296444	0.677506
H	0.011133	-2.166692	0.182176
H	-1.514903	-1.309735	0.626687
H	-0.082291	-1.259699	1.714272
C	-1.246371	1.214066	-1.969015
H	-2.170675	1.152785	-1.388131
H	-1.460141	1.149926	-3.040355
H	-0.710508	2.151205	-1.792309
C	-1.063795	-1.219561	-1.964742
N	-1.520406	-2.209514	-2.402996
F	-2.848621	0.0	0.0
