18

C	0.0	0.0	0.0
C	-0.235836	0.024188	-1.569325
Cl	1.797957	0.0	0.0
H	0.516682	0.728226	-1.936024
N	-0.588676	1.199232	0.526459
H	-1.611031	0.977125	0.412132
H	-0.411886	1.214484	1.527747
C	-0.490117	-1.269219	0.676217
H	-1.582982	-1.227733	0.577539
H	-0.069463	-2.17251	0.230176
H	-0.210155	-1.236126	1.734817
C	-1.573808	0.497874	-2.149174
H	-2.417769	-0.017384	-1.694149
H	-1.522523	0.39085	-3.238061
H	-1.69012	1.554687	-1.906395
C	0.123664	-1.276092	-2.143473
N	0.387688	-2.315133	-2.624601
F	-3.018914	0.0	0.0
