18

C	0.0	0.0	0.0
C	-0.226586	-0.191763	-1.556146
Cl	1.848543	0.0	0.0
H	0.572852	0.391169	-2.019911
N	-0.576783	1.261236	0.354162
H	-0.39017	1.42564	1.341525
H	-1.601217	1.023013	0.275395
C	-0.468768	-1.162895	0.851297
H	-0.193823	-0.975731	1.894663
H	-0.034902	-2.114559	0.538931
H	-1.560933	-1.150233	0.74422
C	-1.528882	0.296675	-2.201667
H	-2.400931	-0.092184	-1.676981
H	-1.559725	1.383769	-2.112357
H	-1.500004	0.037256	-3.266486
C	0.038768	-1.581734	-1.937552
N	0.245406	-2.681699	-2.295291
F	-2.987027	0.0	0.0
