18

C	0.0	0.0	0.0
C	-0.58251	0.031302	-1.411416
Cl	1.849835	0.0	0.0
H	-1.69208	0.057817	-1.115536
N	-0.397739	1.196199	0.669745
H	0.073477	2.004222	0.283645
H	-0.203899	1.131545	1.659499
C	-0.502455	-1.205033	0.761492
H	-0.176241	-1.144424	1.804564
H	-0.115084	-2.134227	0.341191
H	-1.600811	-1.107807	0.675665
C	-0.20632	-1.171849	-2.275137
H	0.88001	-1.293892	-2.331003
H	-0.645561	-2.081136	-1.862912
H	-0.590278	-1.045321	-3.290179
C	-0.204523	1.267431	-2.083231
N	0.122371	2.25011	-2.641243
F	-2.94344	0.0	0.0
