13

C	0.0	0.0	0.0
C	-0.452927	0.204943	-1.484017
Br	1.956901	0.0	0.0
H	-1.160131	1.034506	-1.465435
H	0.424967	0.463546	-2.081763
C	-0.406643	1.132572	0.834495
N	-0.544944	2.096477	1.492958
C	-0.429698	-1.263433	0.600189
N	-0.559343	-2.300279	1.139167
N	-1.042902	-1.030895	-1.972162
H	-1.925954	-1.038003	-1.450606
H	-1.240196	-0.922298	-2.9613
F	-2.41343	0.0	0.0
