13

C	0.0	0.0	0.0
C	-0.387446	0.101262	-1.502308
Br	1.967984	0.0	0.0
H	-1.47719	0.173445	-1.429836
H	0.057119	1.032193	-1.874038
C	-0.453836	1.170229	0.746215
N	-0.584078	2.18496	1.327069
C	-0.439772	-1.254429	0.603249
N	-0.592397	-2.317003	1.082475
N	0.05968	-1.076174	-2.220116
H	0.811735	-0.875203	-2.861916
H	-0.711969	-1.493752	-2.717966
F	-2.448242	0.0	0.0
