13

C	0.0	0.0	0.0
C	-0.497128	0.101884	-1.447785
Cl	1.787659	0.0	0.0
H	-1.595229	0.116463	-1.405742
H	-0.145322	1.035533	-1.891399
C	-0.356176	1.251632	0.709997
N	-0.595236	2.246152	1.290202
N	-0.505556	-1.195431	0.594047
H	-1.531002	-1.135988	0.553711
H	-0.224508	-1.247111	1.568645
C	-0.039993	-1.022609	-2.256922
N	0.306766	-1.896518	-2.959577
Br	-3.67056	0.0	0.0
