13

C	0.0	0.0	0.0
C	-0.475421	-0.251826	-1.44358
Cl	1.792416	0.0	0.0
H	-0.160152	-1.260781	-1.728519
H	-1.575004	-0.216168	-1.400944
C	-0.379918	1.358598	0.428764
N	-0.593669	2.454628	0.791877
N	-0.496248	-0.95142	0.95108
H	-0.29993	-1.886375	0.60697
H	-1.516773	-0.827723	0.974485
C	0.034972	0.704518	-2.417875
N	0.436784	1.464293	-3.218132
Br	-3.645229	0.0	0.0
