13

C	0.0	0.0	0.0
C	-0.475261	-0.209884	-1.45433
Cl	1.793671	0.0	0.0
H	-0.075354	0.568448	-2.109311
H	-1.573744	-0.142145	-1.417205
C	-0.383768	1.361223	0.41726
N	-0.615853	2.45497	0.775175
N	-0.488385	-0.94589	0.956335
H	-1.509129	-0.829136	0.9787
H	-0.280616	-1.883794	0.625596
C	-0.078319	-1.523156	-1.946482
N	0.226318	-2.588034	-2.336374
Br	-3.641983	0.0	0.0
