13

C	0.0	0.0	0.0
C	-0.500093	0.151819	-1.438811
Cl	1.78982	0.0	0.0
H	-1.599409	0.1836	-1.385851
H	-0.192956	-0.746439	-1.980343
C	-0.353021	1.19229	0.806205
N	-0.555882	2.116153	1.504055
N	-0.504218	-1.239533	0.513384
H	-0.264965	-1.319329	1.49629
H	-1.529356	-1.176458	0.447323
C	0.010583	1.339647	-2.109973
N	0.413338	2.284712	-2.678042
Br	-3.667373	0.0	0.0
