13

C	0.0	0.0	0.0
C	-0.481475	-0.163019	-1.453406
Cl	1.793827	0.0	0.0
H	-0.178814	-1.156591	-1.797574
H	-1.580429	-0.119865	-1.40594
C	-0.380252	1.329637	0.509845
N	-0.595131	2.413309	0.908289
N	-0.495513	-1.006815	0.892767
H	-1.514335	-0.877639	0.931626
H	-0.310152	-1.920223	0.49048
C	0.03591	0.843677	-2.371813
N	0.454375	1.642161	-3.124045
Br	-3.653729	0.0	0.0
