13

C	0.0	0.0	0.0
C	-0.483134	-0.286279	-1.423257
Cl	1.839754	0.0	0.0
H	-0.111431	0.484801	-2.101704
H	-1.583414	-0.236826	-1.388383
C	-0.329906	1.397811	0.355795
N	-0.52087	2.512541	0.677628
N	-0.490909	-0.992896	0.893895
H	-1.515295	-0.980964	0.795455
H	-0.265313	-0.740266	1.850982
C	-0.046423	-1.596045	-1.892886
N	0.316436	-2.626489	-2.322767
Br	-3.65162	0.0	0.0
