13

C	0.0	0.0	0.0
C	-0.48625	0.218425	-1.432621
Cl	1.838923	0.0	0.0
H	-1.58657	0.240276	-1.3824
H	-0.127415	1.182141	-1.801632
C	-0.332524	1.189302	0.815396
N	-0.54144	2.118282	1.504779
N	-0.490895	-1.240186	0.498625
H	-0.271358	-1.328602	1.48536
H	-1.515013	-1.204302	0.401879
C	-0.040161	-0.841185	-2.330105
N	0.312166	-1.650984	-3.103016
Br	-3.653613	0.0	0.0
