13

C	0.0	0.0	0.0
C	-0.215432	0.221639	-1.542325
Cl	1.796568	0.0	0.0
H	0.426926	1.056917	-1.832492
H	0.215228	-0.668623	-2.014018
C	-0.399379	1.190489	0.763593
N	-0.622407	2.143277	1.412783
N	-0.529644	-1.174785	0.594298
H	-1.549708	-1.027934	0.651204
H	-0.360059	-1.964078	-0.021266
C	-1.497665	0.476855	-2.203759
N	-2.254115	0.74726	-3.06323
Br	-3.584718	0.0	0.0
