13

C	0.0	0.0	0.0
C	-0.194306	0.378531	-1.507584
Cl	1.846009	0.0	0.0
H	0.238767	-0.456896	-2.068042
H	0.450654	1.238475	-1.705299
C	-0.378452	1.11193	0.882018
N	-0.529087	2.044519	1.579707
N	-0.513617	-1.231385	0.467878
H	-1.531819	-1.091334	0.573072
H	-0.365917	-1.943181	-0.24007
C	-1.475547	0.700376	-2.146202
N	-2.21689	1.030331	-2.998409
Br	-3.542634	0.0	0.0
