13

C	0.0	0.0	0.0
C	-0.503605	0.14967	-1.439262
Cl	1.787588	0.0	0.0
H	-1.603023	0.159562	-1.381994
H	-0.160258	1.100753	-1.852834
C	-0.357908	1.224739	0.754949
N	-0.57109	2.208526	1.361723
N	-0.496501	-1.22211	0.551208
H	-0.249417	-1.283049	1.533008
H	-1.521468	-1.174864	0.4825
C	-0.049695	-0.943295	-2.291147
N	0.299045	-1.789113	-3.026179
Br	-3.672081	0.0	0.0
