15

C	-0.530163	-0.002711	-1.421532
C	0.0	0.0	0.0
Cl	0.011762	1.459839	-2.330196
H	1.093011	0.0	0.0
H	-0.304566	-0.961804	0.439243
C	-0.001893	-1.161796	-2.171101
N	0.269898	-2.128065	-2.783021
N	-1.985363	0.01105	-1.447005
H	-2.312148	-0.762322	-0.877306
H	-2.31503	-0.129131	-2.396392
C	-0.514372	1.157362	0.843791
H	-0.223548	2.109255	0.39766
H	-1.599016	1.154695	0.97226
H	-0.036287	1.101247	1.824332
H	2.946825	0.0	0.0
