15

C	-0.568371	0.017047	-1.409713
C	0.0	0.0	0.0
Cl	0.024916	1.50198	-2.243113
H	1.093317	0.0	0.0
H	-0.32924	0.928669	0.484416
C	-0.113915	-1.146597	-2.187201
N	0.158991	-2.119988	-2.784921
N	-2.028452	0.04269	-1.519533
H	-2.357392	0.787422	-0.911738
H	-2.381382	-0.833229	-1.146229
C	-0.456571	-1.217453	0.797095
H	-1.535749	-1.249925	0.985684
H	-0.158332	-2.142725	0.29589
H	0.057298	-1.204995	1.761488
H	2.942053	0.0	0.0
