15

C	-0.257889	0.080801	-1.504212
C	0.0	0.0	0.0
Cl	-0.172764	-1.686679	-2.184272
H	1.095641	0.0	0.0
H	-0.401121	-0.926025	0.411857
C	-1.621355	0.493753	-1.871052
N	-2.71438	0.852256	-2.113652
N	0.706229	0.931968	-2.065783
H	1.631988	0.725553	-1.659866
H	0.717898	0.916376	-3.076616
C	-0.502046	1.229136	0.744153
H	-1.594665	1.299235	0.761831
H	-0.139984	1.191189	1.775343
H	-0.100344	2.135257	0.287036
H	2.947428	0.0	0.0
