15

C	-0.256549	-0.062194	-1.490988
C	0.0	0.0	0.0
Cl	-2.008256	-0.580813	-1.859173
H	1.097106	0.0	0.0
H	-0.317603	-0.963556	0.409161
C	-0.170117	1.270991	-2.11973
N	-0.060059	2.329868	-2.61945
N	0.647277	-1.016916	-2.046672
H	0.74185	-0.90573	-3.048055
H	1.562565	-0.88102	-1.587767
C	-0.609752	1.171044	0.739724
H	-0.21145	2.118151	0.368242
H	-0.351396	1.102859	1.799743
H	-1.7008	1.194159	0.652406
H	2.883585	0.0	0.0
