15

C	-0.291209	0.075133	-1.503142
C	0.0	0.0	0.0
Cl	-0.187792	-1.61163	-2.179199
H	1.095287	0.0	0.0
H	-0.405316	-0.912781	0.440834
C	-1.65752	0.53987	-1.795872
N	-2.749274	0.942688	-1.960215
N	0.666555	0.889537	-2.220952
H	0.461823	1.865363	-2.030544
H	1.585056	0.684521	-1.802486
C	-0.467144	1.239633	0.751343
H	-1.556729	1.336839	0.790643
H	-0.082481	1.19678	1.773708
H	-0.054146	2.147029	0.301591
H	2.951224	0.0	0.0
