14

C	0.0	0.0	0.0
C	-0.520261	0.309996	-1.408878
F	1.379477	0.0	0.0
H	-1.619352	0.355365	-1.285711
C	-0.412006	1.024803	0.978559
N	-0.580262	1.845591	1.802159
C	-0.42225	-1.344649	0.432027
N	-0.550344	-2.440595	0.83397
N	-0.158977	-0.774338	-2.302093
H	0.695887	-0.583725	-2.805473
H	-0.910247	-0.944955	-2.95492
C	-0.011032	1.618885	-1.838455
N	0.447285	2.62513	-2.237478
Br	-3.52088	0.0	0.0
