14

C	0.0	0.0	0.0
C	-0.360116	-0.32881	-1.528395
F	1.38199	0.0	0.0
H	0.643853	-0.332853	-1.968724
C	-0.41573	1.367832	0.342254
N	-0.502557	2.518821	0.569295
C	-0.434662	-0.985088	0.993896
N	-0.528689	-1.817305	1.819959
N	-1.154386	0.591185	-2.292791
H	-2.072556	0.655128	-1.846464
H	-0.719711	1.506422	-2.280861
C	-0.858351	-1.70329	-1.667473
N	-1.125189	-2.826446	-1.880478
Br	-3.281335	0.0	0.0
