14

C	0.0	0.0	0.0
C	-0.362711	-0.345117	-1.505058
F	1.373258	0.0	0.0
H	0.386317	0.250401	-2.04128
C	-0.45264	1.36431	0.301235
N	-0.669723	2.50888	0.456077
C	-0.470683	-0.976392	0.985938
N	-0.711107	-1.801172	1.78696
N	-1.651362	-0.053854	-2.038835
H	-2.423246	-0.387596	-1.44485
H	-1.778826	0.948147	-2.101447
C	0.001504	-1.756153	-1.719656
N	0.284211	-2.87707	-1.921821
Br	-4.145893	0.0	0.0
