14

C	0.0	0.0	0.0
C	-0.345111	0.107904	-1.548716
F	1.37518	0.0	0.0
H	0.430541	0.810327	-1.879842
C	-0.454313	1.216601	0.686222
N	-0.674489	2.243905	1.212091
C	-0.481434	-1.217324	0.653799
N	-0.736874	-2.240914	1.171583
N	-1.610591	0.581986	-1.998881
H	-2.398293	0.103693	-1.545003
H	-1.715427	1.558614	-1.747904
C	-0.013454	-1.194064	-2.151355
N	0.27202	-2.221244	-2.642678
Br	-4.044466	0.0	0.0
