14

C	0.0	0.0	0.0
C	-0.213163	0.137795	-1.54002
F	1.3867	0.0	0.0
H	0.363811	-0.722833	-1.916686
C	-0.419922	1.15643	0.798891
N	-0.499723	2.120312	1.467307
C	-0.424868	-1.29448	0.549934
N	-0.45467	-2.389624	0.979227
N	0.388639	1.41752	-1.919009
H	1.393295	1.321871	-1.971524
H	0.031376	1.70366	-2.819596
C	-1.519655	0.038391	-2.205942
N	-2.132111	0.000965	-3.216997
Br	-3.154409	0.0	0.0
