15

C	0.0	0.0	0.0
C	-0.286826	0.230908	-1.534363
Cl	1.826888	0.0	0.0
H	0.564165	-0.23742	-2.038702
N	-0.457818	1.110884	0.772643
H	-1.482554	1.100355	0.698301
H	-0.214711	0.959122	1.746419
N	-0.423929	-1.338874	0.307815
H	-1.450272	-1.31205	0.289545
H	-0.130256	-1.572783	1.251306
C	-0.236534	1.651519	-1.891381
N	-0.155307	2.759592	-2.273404
C	-1.423603	-0.435717	-2.188852
N	-2.089278	-1.003692	-2.974614
Br	-3.594496	0.0	0.0
