15

C	0.0	0.0	0.0
C	-0.497427	0.383255	-1.413577
Cl	1.779916	0.0	0.0
H	-1.60369	0.361773	-1.336365
N	-0.44622	1.045838	0.886593
H	-1.470151	1.007102	0.881281
H	-0.131257	0.836319	1.827913
N	-0.433642	-1.357002	0.231565
H	-0.087461	-1.67084	1.132228
H	-1.456372	-1.331655	0.272495
C	-0.074178	-0.584315	-2.427263
N	0.242988	-1.324229	-3.282674
C	-0.075154	1.729108	-1.802129
N	0.245889	2.796504	-2.169301
Br	-3.658999	0.0	0.0
