15

C	0.0	0.0	0.0
C	-0.497668	-0.138784	-1.458227
Cl	1.779965	0.0	0.0
H	-1.60359	-0.130196	-1.378148
N	-0.438965	1.295558	0.458382
H	-0.092219	1.453187	1.398704
H	-1.461291	1.261728	0.492797
N	-0.442966	-1.184289	0.694591
H	-1.466093	-1.144934	0.705449
H	-0.117157	-1.146253	1.65486
C	-0.077703	-1.401877	-2.065475
N	0.23154	-2.403725	-2.593415
C	-0.074885	0.98599	-2.292395
N	0.235928	1.869928	-2.999737
Br	-3.652864	0.0	0.0
