15

C	0.0	0.0	0.0
C	-0.225951	-0.192067	-1.566811
Cl	1.903385	0.0	0.0
H	0.636296	0.283209	-2.042233
N	-0.439794	1.306172	0.335701
H	-0.281093	1.432795	1.330617
H	-1.457203	1.312466	0.191729
N	-0.432141	-1.011787	0.884094
H	-0.154251	-1.936591	0.57342
H	-1.455951	-0.94926	0.915828
C	-1.367368	0.456748	-2.228109
N	-2.051969	1.010623	-3.007765
C	-0.169254	-1.613466	-1.906613
N	-0.108173	-2.754795	-2.177696
Br	-3.571207	0.0	0.0
