15

C	0.0	0.0	0.0
C	-0.183409	-0.038314	-1.57202
Cl	1.904328	0.0	0.0
H	0.545238	0.678696	-1.969714
N	-0.447126	1.206334	0.509756
H	-0.803746	1.267728	1.439049
H	-0.29477	2.051255	-0.033549
N	-0.523772	-1.044785	0.793502
H	-0.078081	-1.941572	0.74619
H	-1.579955	-1.039048	0.760065
C	-1.466546	0.423625	-2.086816
N	-2.315665	0.963485	-2.70995
C	0.173716	-1.377178	-2.063604
N	0.382507	-2.482811	-2.42268
Br	-4.060408	0.0	0.0
