15

C	0.0	0.0	0.0
C	-0.478326	0.012786	-1.468547
Cl	1.823404	0.0	0.0
H	-1.584517	0.018486	-1.396999
N	-0.42887	1.242106	0.587494
H	-0.095851	1.288513	1.544351
H	-1.452623	1.211501	0.604094
N	-0.42983	-1.25015	0.56817
H	-1.453911	-1.22034	0.583048
H	-0.098934	-1.311068	1.524087
C	-0.051744	-1.181556	-2.197506
N	0.32204	-2.097144	-2.830369
C	-0.042646	1.214428	-2.180929
N	0.309233	2.135268	-2.81824
Br	-3.637865	0.0	0.0
