14

C	-0.030028	-0.006786	-0.001689
C	-0.511016	0.004412	-1.455735
Br	1.971553	0.029647	0.03126
H	-0.122426	-0.837662	-2.026352
H	-1.61246	-0.063801	-1.297421
N	-0.566288	0.963478	0.846885
H	-1.614175	0.776501	0.711045
H	-0.323179	1.879751	0.485478
N	-0.381213	-1.396856	0.574385
O	-0.373094	-2.335864	-0.21635
O	-0.586356	-1.478278	1.773034
C	-0.167613	1.261973	-2.09751
N	0.094611	2.279658	-2.622965
F	-2.779932	0.050748	0.022291
