15

C	-0.307229	0.033936	-1.505466
C	0.0	0.0	0.0
Br	-2.252021	0.285413	-1.813654
H	1.094894	0.0	0.0
N	0.403799	1.174356	-2.00748
H	1.382021	1.098851	-1.708724
H	0.368398	1.190383	-3.018826
C	0.020283	-1.217389	-2.206021
N	0.281547	-2.118614	-2.91541
N	-0.501537	-1.236351	0.672253
O	-0.039408	-2.294293	0.255635
O	-1.316126	-1.112862	1.584362
C	-0.492831	1.191677	0.668718
N	-0.847574	2.154728	1.240337
Br	3.28439	0.0	0.0
