15

C	-0.320702	0.002475	-1.508033
C	0.0	0.0	0.0
Br	0.065529	1.914427	-2.141771
H	1.093714	0.0	0.0
N	0.483437	-0.972742	-2.106147
H	0.404175	-0.992121	-3.113784
H	1.457061	-0.889667	-1.800938
C	-1.735698	-0.182279	-1.829621
N	-2.860875	-0.356634	-2.122772
N	-0.472376	-1.322907	0.564801
O	-1.646645	-1.376779	0.931355
O	0.338247	-2.238551	0.588864
C	-0.598282	1.077214	0.762388
N	-1.065334	1.92932	1.422877
Br	3.341344	0.0	0.0
