15

C	-0.478995	0.001961	-1.453265
C	0.0	0.0	0.0
Br	-2.403225	0.355307	-1.665863
H	1.093909	0.0	0.0
N	0.209681	1.069575	-2.13037
H	1.211504	0.885393	-2.12837
H	-0.114836	1.164854	-3.085803
C	-0.178623	-1.33795	-2.011098
N	0.434162	-2.28277	-2.36507
N	-0.374356	-1.280542	0.700246
O	-1.53481	-1.678392	0.610156
O	0.517375	-1.811762	1.360892
C	-0.451727	1.178752	0.71012
N	-0.531881	2.293307	1.095642
Br	2.746209	0.0	0.0
