14
Coordinates from ORCA-job run
  C   0.68239502834749     -0.23944593172968     -0.63318101236183
  C   -0.84164455701845     -0.20247497399397     -0.46840333627270
  Br  1.10374337542736      0.60673997018396     -2.33598930654077
  H   -1.32179574900336     -0.70725284163777     -1.30965463227644
  H   0.96974844327866     -1.28581952722080     -0.74542417036614
  C   1.42446126106733      0.43034879417163      0.50551119784948
  H   2.49984109383575      0.37130819034861      0.33531119984947
  H   1.14384568767405      1.48137847284939      0.59253468473903
  H   1.20076042542184     -0.07199045037815      1.45082144020508
  C   -1.36975838011269      1.14595288894375     -0.30940805800669
  N   -1.78330133419209      2.24028051136018     -0.20853671995106
  N   -1.17507386379669     -1.04442429764757      0.75155778044209
  O   -1.00388603137583     -2.24925096087706      0.59827648307098
  O   -1.53033539955337     -0.47634984437251      1.77658444961950
