14
Coordinates from ORCA-job run
  C   0.63201159004655      0.28026591967449     -0.53710764473931
  C   -0.77481272153633     -0.28606076948009     -0.29399234948523
  Br  0.62861171678198      2.21711917972064     -0.34683437711545
  H   -0.72033283689172     -1.37541472544098     -0.38512582418854
  H   0.84717008071281      0.09836357322310     -1.59289332217578
  C   1.70572450681856     -0.34140034268837      0.33818838949107
  H   1.67870295061640     -1.43109058402866      0.24899000594096
  H   2.68491450738679      0.01293279286331      0.01448984524129
  H   1.57195357709181     -0.07928662565412      1.38677014276754
  C   -1.76203040606610      0.23787898207966     -1.22917963904745
  N   -2.53362072673569      0.61337129599434     -2.03055653022526
  N   -1.22484668189041     -0.03909283263103      1.12844751282284
  O   -0.75984719612404     -0.81410632295692      1.95971930134544
  O   -1.97359836021061      0.90552045932461      1.34008448936786
