14
Coordinates from ORCA-job run
  C   0.67670255479651     -0.42533962221323     -0.53407604065924
  C   -0.84066901518794     -0.21515838413647     -0.46522593037743
  Br  1.24298097567141      0.01414423142341     -2.34504915274795
  H   -1.33903212053074     -0.83477647017094     -1.21399027981696
  H   0.86042495907829     -1.49463100655696     -0.41983635931839
  C   1.44139682922117      0.39074483641160      0.48826977862457
  H   1.13271614491426      0.11565917209033      1.50067204076473
  H   1.26763473173897      1.45890330333623      0.34731684954664
  H   2.51048794113709      0.19786766889590      0.39464289215730
  C   -1.23425224181506      1.18014678162993     -0.60780131828295
  N   -1.53708976929027      2.30571376721592     -0.74935504339587
  N   -1.30096740014913     -0.75612535781139      0.87802049550523
  O   -1.24712583524226     -1.97741789128425      0.97773135333449
  O   -1.63320775434230      0.03926897116994      1.74768071466582
