14
Coordinates from ORCA-job run
  C   0.67029922741751     -0.17808927406702     -0.66595627528168
  C   -0.84936228190109     -0.18229680050322     -0.46261375513395
  Br  1.03448829970024      0.80152665784444     -2.30921592482976
  H   -1.34246757293540     -0.63101131698395     -1.32777577545626
  H   0.97286852838114     -1.20740662008352     -0.86356061250937
  C   1.42872456531991      0.41796572681854      0.50265824080435
  H   1.23822763529260     -0.15924112534770      1.41188417036818
  H   1.13150376122349      1.45369829672553      0.67608506365230
  H   2.50031324178015      0.39388478703401      0.30261388945781
  C   -1.39557704076490      1.14014572278690     -0.18856794109430
  N   -1.82238604503016      2.21650887656171      0.00610222046924
  N   -1.13768441885219     -1.12038786187942      0.69770035166071
  O   -1.48147679709264     -0.63893732288972      1.76972802412470
  O   -0.94647110253867     -2.30635974601657      0.44991832376804
