15

C	-0.011547	-2.3e-05	-0.001264
C	-0.644743	0.04704	-1.373099
Br	1.972529	0.006948	0.002765
H	-1.764146	0.00255	-1.073993
H	-0.253137	-0.981807	0.408144
N	-0.514601	1.128957	0.726284
H	-1.541977	0.973125	0.667582
H	-0.225743	1.039898	1.693876
N	-0.308328	-1.100286	-2.241431
O	-0.412243	-0.944897	-3.456758
O	-0.044204	-2.165364	-1.686224
N	-0.345709	1.305379	-2.10223
O	-1.247935	2.137372	-2.167219
O	0.782267	1.438667	-2.574977
F	-2.821288	0.011876	0.000363
