15

C	-0.041934	0.018047	0.018724
C	-0.589143	-0.069611	-1.38779
Br	1.93371	0.188313	0.132695
H	-1.721502	-0.175009	-1.154685
H	-0.2256	-0.955224	0.476092
N	-0.674476	1.141985	0.64293
H	-1.682343	0.910922	0.522977
H	-0.450046	1.129038	1.631257
N	-0.12126	-1.242702	-2.154581
O	0.199255	-2.242629	-1.51407
O	-0.182402	-1.180765	-3.381069
N	-0.329946	1.158089	-2.182038
O	-1.272953	1.931615	-2.332139
O	0.807474	1.326925	-2.619849
F	-2.851146	-0.163171	-0.164188
