14
Coordinates from ORCA-job run
  C   0.60839806087080     -0.44521484838113      0.77725080190539
  C   -0.72132054283013     -0.03721587740419      0.14103271777988
  Br  0.68206698003012      0.09459954092675      2.64761243830243
  H   -1.53885251623902     -0.43720589717533      0.75502148133385
  H   0.65644795723937     -1.54104748417717      0.82299700864154
  N   1.68407270605269      0.17871914053033      0.04583982742770
  H   2.58228922933532     -0.10454933026366      0.41559715356332
  H   1.59889375348961     -0.13048444923178     -0.91756311609231
  N   -0.69015802364479     -0.63659683797616     -1.21235242256329
  H   -1.40622739460892     -0.20109471303300     -1.78165055538721
  H   -0.90887940079165     -1.62699505302159     -1.15976565133742
  N   -0.83464178943223      1.39189370025406      0.12446364403141
  H   -0.02621561730503      1.79749175006550     -0.32867725988123
  H   -1.68587340216613      1.69670035888737     -0.32780606772405
