14
Coordinates from ORCA-job run
  C   0.71178279459687     -0.56793090411658      0.47689884026630
  C   -0.35807065497294     -0.04602330844823     -0.47967883768259
  Br  0.07978827869756     -0.28274128203467      2.38580716645422
  H   0.05627498812615     -0.26684844675478     -1.47520917896093
  H   0.79502248923981     -1.65455241742496      0.42616953226970
  N   1.94146302239720      0.04628002233699      0.18682720130304
  H   1.81998250971023      1.05224258636393      0.16898521413443
  H   2.67417233164998     -0.22050632383487      0.82887133714175
  N   -0.42451881476524      1.39701779432602     -0.36627828182806
  H   -1.02028821358822      1.62104699943354      0.42378052293717
  H   -0.83214992991246      1.80198608181687     -1.19906547296065
  N   -1.64370911842989     -0.68173389470091     -0.23195790126175
  H   -1.54232305202060     -1.68499357032260     -0.12533192535945
  H   -2.25842663072846     -0.51424333663975     -1.01981821645319
