14
Coordinates from ORCA-job run
  C   0.47908724204244     -0.41557962534954      0.80395388128810
  C   -0.74829879989559     -0.07542196359599     -0.05824857658635
  Br  0.21879607687364      0.28704845445095      2.61662155728498
  H   -1.64182306957374     -0.45954867949552      0.45164320518000
  H   0.53725494158651     -1.50073495278530      0.96184244888623
  N   1.64223036358569      0.18653623422657      0.21511190884000
  H   1.66534159921858     -0.11161242313247     -0.75566832968553
  H   2.48814812434499     -0.10652791375474      0.68585509933304
  N   -0.50101875613963     -0.69876938544472     -1.35895153770254
  H   -1.14015751721051     -0.27639494131597     -2.02144231166454
  H   -0.68796167639210     -1.69413551045784     -1.32069844445117
  N   -0.94382026974074      1.33676763536577     -0.29504187482875
  H   -0.03555565502805      1.75925354813955     -0.45871267039595
  H   -1.33222260367149      1.76811952314924      0.53373564450248
