14
Coordinates from ORCA-job run
  C   0.81608217451955     -0.55202977309037      0.34810896352118
  C   -0.59047674311894      0.00974169327914      0.13227248487947
  Br  0.75091392537592     -2.20314080168264      1.39967763590815
  H   -1.00085861633613      0.21978897123298      1.12388514140356
  H   1.22512834435838     -0.88334879892604     -0.61939768924865
  N   1.60849108486085      0.41350229809205      1.05146342018480
  H   2.58767332362169      0.16212275857106      1.04055697533953
  H   1.46372679422580      1.31377910736161      0.60884724284898
  N   -1.43897583133779     -0.97124685248123     -0.51004460972499
  H   -2.37697339282556     -0.60802044588821     -0.62164975475927
  H   -1.07911799772965     -1.21348853108352     -1.42625098691750
  N   -0.42209695300899      1.30467975743915     -0.54606612132713
  H   -1.26297041870047      1.85980244986730     -0.44248898486550
  H   -0.28154569390465      1.14785816730872     -1.53891371724263
