14
Coordinates from ORCA-job run
  C   0.78456698400509     -0.38616595991208      0.24356612877787
  C   -0.68872094459226     -0.00357998390413      0.06187243895817
  Br  0.93826954160496     -2.06182099051745      1.32590417730100
  H   -1.09133598511696      0.22924391680908      1.05600088946315
  H   1.21836732803569     -0.65595711260336     -0.72319751531221
  N   1.51732654459928      0.69972949059276      0.80248804442341
  H   1.22433979032571      0.86743650975071      1.75832858766125
  H   2.51051834726681      0.50754877132877      0.80918436740823
  N   -1.44552898833196     -1.10862072306294     -0.47296257045601
  H   -2.38097168709761     -0.77879684114170     -0.67885646223799
  H   -1.03254674845845     -1.43073779194682     -1.34180226311404
  N   -0.82577889085859      1.20331412083871     -0.75299949351529
  H   -0.51629740685752      0.99560817212575     -1.69800139417997
  H   -0.21020788452418      1.92379842164270     -0.39052493517757
