14
Coordinates from ORCA-job run
  C   0.45729685498554     -0.62168750187279      0.64585388335106
  C   -0.75385407510686      0.06362101902939      0.00336290553089
  Br  0.53320103635975      0.01377231388204      2.59937046841671
  H   -1.62875815802723     -0.12306515807294      0.63971895317361
  H   0.28596345418330     -1.68979572164971      0.77751456248481
  N   1.61808473644519     -0.36992407631738     -0.09141236497607
  H   1.73501921843970      0.62379840442305     -0.24563138815894
  H   2.44949823096604     -0.79638128445284      0.28995303753769
  N   -1.04494971362389     -0.46742530825883     -1.31523314310625
  H   -1.43984632549567     -1.39669284119249     -1.24036134975179
  H   -0.17707285506577     -0.53149096609414     -1.83576090343013
  N   -0.43405742275452      1.47260409170572     -0.16639092533828
  H   -0.47375878082296      1.95093341117999      0.72547253366573
  H   -1.12676620048262      1.87273361769092     -0.78645626939903
