14
Coordinates from ORCA-job run
  C   0.74251049207763     -0.48658997662491      0.49198194348696
  C   -0.64101359642672     -0.04389049427909      0.01883874407645
  Br  0.56477363369290     -1.67420255487138      2.02236109047938
  H   -1.23716493184799      0.20855574087519      0.90530162670149
  H   1.19776161457043     -1.10463777350096     -0.29208159852282
  N   1.53279863509979      0.66790643989523      0.88554269063883
  H   2.32411704183178      0.37401968663782      1.44402258938726
  H   1.89372379808328      1.09123491333060      0.03672008949105
  N   -1.28500673140658     -1.14254780590293     -0.65887864179548
  H   -2.28341382416248     -0.99658259708481     -0.72592584399692
  H   -0.90653837202432     -1.22433068936687     -1.59594828463841
  N   -0.42488112334032      1.10407126744271     -0.87236181093707
  H   -1.29508807232006      1.31220188105541     -1.34862229643593
  H   -0.18357856382733      1.91479196239399     -0.31195029793478
