14
Coordinates from ORCA-job run
  C   0.73260987856602     -0.62679941861298      0.30591464054165
  C   -0.38656844204303      0.05411244977931     -0.47629722570200
  Br  0.16091718489755     -0.76228404955647      2.26308253797990
  H   -0.03085473553114      0.02117907941359     -1.51615148430658
  H   0.82741874074510     -1.67826883366105      0.03296817970721
  N   1.93707092323283      0.06147536807593      0.11366380656662
  H   1.79738535012769      1.04941983071665      0.29107723950623
  H   2.70045555380556     -0.31078714054833      0.66005109686274
  N   -0.43110789213083      1.45608635985662     -0.09670790985847
  H   -1.00334520197974      1.52454190201836      0.73849072036292
  H   -0.88069688849637      1.99881091070410     -0.82317460307112
  N   -1.66256946330503     -0.62361921380207     -0.29632127172998
  H   -1.54731323531766     -1.59945694161005     -0.05407302143830
  H   -2.21540177257096     -0.56441030277363     -1.14152270542083
