14
Coordinates from ORCA-job run
  C   0.67028345221364     -0.19518328164071      0.75009425087013
  C   -0.35918937212262      0.37272245497817     -0.22859248239015
  Br  0.86182977428441      1.03753664426540      2.28805072538855
  H   0.02004262762498      1.35456223750501     -0.54518509622719
  H   0.26073337417706     -1.10111016618955      1.21315574979767
  N   1.93321708284186     -0.32381380983600      0.09746995138006
  H   1.75582812390464     -0.71835524107055     -0.82023923441496
  H   2.56098487872142     -0.91729468354494      0.62244907646869
  N   -1.67311522499714      0.40282652817523      0.39949415029610
  H   -1.63203079329142      0.91127035605602      1.27533833260689
  H   -2.32141323395986      0.89201208969287     -0.20685067644602
  N   -0.36860879987993     -0.49021104809410     -1.40239474221156
  H   -1.02242786231440     -1.24610163377063     -1.22663787204154
  H   -0.68813402720264      0.01913955347380     -2.21615213307667
