14
Coordinates from ORCA-job run
  C   0.62738772584682     -0.44251673099194      0.76573351585908
  C   -0.75223457527024     -0.12154912094287      0.19614277325205
  Br  0.85446349809085      0.29022740744010      2.55266818613423
  H   -1.50363617334214     -0.60055502721163      0.83163300605896
  H   0.69854431935474     -1.52595424742740      0.89228567458509
  N   1.64273120442825      0.11306392278684     -0.12216257602978
  H   2.51641292788314      0.23418987077131      0.37360359495924
  H   1.80096127680122     -0.56101204974049     -0.86396770158713
  N   -0.78106370631435     -0.80744972717619     -1.10711654373189
  H   -0.38561959208392     -0.18492011210759     -1.80331531379343
  H   -1.73915784132749     -0.99294161312743     -1.37799146932925
  N   -0.97443631429849      1.30536866066253      0.20383472892015
  H   -0.18396495141411      1.75893877568489     -0.24039331449359
  H   -1.82038779835427      1.53610999137985     -0.30095456080374
