14
Coordinates from ORCA-job run
  C   0.73796925980492     -0.45456886964810      0.31584704221893
  C   -0.72550920700832     -0.07658201652009      0.07692463257160
  Br  0.85292085625996     -2.02371333623790      1.46769609372695
  H   -1.19254884891724      0.02247651884745      1.06125409704848
  H   1.19202731481771     -0.76821047801435     -0.63543376664043
  N   1.43867752945088      0.65722501982109      0.95019285060537
  H   1.92970748336208      1.19024977887046      0.24254799978708
  H   2.12906660120616      0.31250147158945      1.60319029530963
  N   -1.39488268923377     -1.12978671790371     -0.64909856574606
  H   -2.35497845503222     -0.84730783141189     -0.80649695651129
  H   -0.96459883214134     -1.25126639273926     -1.56023575681416
  N   -0.84874094904242      1.22316695458668     -0.57996079396282
  H   -0.38341241535724      1.20793669740097     -1.48255647943174
  H   -0.41669764816916      1.93687920135921     -0.00387069216153
