14
Coordinates from ORCA-job run
  C   0.56783050273471     -0.40255984614604      0.75128679177489
  C   -0.74986302192456     -0.07392459715652      0.02940060614803
  Br  0.51628441779746      0.33230169190236      2.56941567063147
  H   -1.57923637767460     -0.44761622300572      0.64454164496596
  H   0.64342665258961     -1.48477541538379      0.92128412805685
  N   1.65650440381198      0.18550673191329      0.02277443858336
  H   1.56519753097865     -0.12540842801544     -0.93996870045936
  H   2.55047306138495     -0.10638854023938      0.39517486735136
  N   -0.65365285815082     -0.71923064384480     -1.28053874051562
  H   -1.36773610815496     -0.30995838351998     -1.87079332297456
  H   -0.83098389964201     -1.71412497502066     -1.20339144871980
  N   -0.97106529192728      1.33440164440194     -0.20735403007295
  H   -1.25868458228374      1.78092805477001      0.65385886253242
  H   -0.08849442953938      1.75184892934473     -0.48469076730204
