14
Coordinates from ORCA-job run
  C   0.76756509480684     -0.43463172096920      0.18579488383942
  C   -0.65107649787957      0.10954252868707     -0.03731920735484
  Br  0.63574179012239     -2.12641103242608      1.28740346315659
  H   -1.04824397913000      0.38902240268754      0.95434064935585
  H   1.18087817622607     -0.77479546921088     -0.76386990016444
  N   1.60446437748845      0.54276477869778      0.77218324663616
  H   1.30301104803882      0.76941927947981      1.71227019784541
  H   2.57415939281767      0.25791854139273      0.79772052571936
  N   -1.60503627104229     -0.79151998568845     -0.63755342738002
  H   -1.74717432896799     -1.60643153943033     -0.05557097554884
  H   -1.25180803060949     -1.08726110400255     -1.54069922113664
  N   -0.49772914682199      1.21522300304819     -0.96504160365933
  H   0.14072343575477      1.90313174524371     -0.58915140945518
  H   -1.40647506080370      1.63302857249068     -1.12150722185349
