14
Coordinates from ORCA-job run
  C   0.65339961555021     -0.43091084646727      0.50885345157788
  C   -0.46141115330636     -0.02438530221552     -0.46551318745418
  Br  0.12725468387459     -0.13792139154609      2.36125632321034
  H   0.00196581053024     -0.14800340805385     -1.46414942968824
  H   0.82667735768940     -1.51455547510137      0.44931129211924
  N   1.82283558611075      0.38322762482346      0.23895847308384
  H   2.18859425645690      0.13869967935724     -0.67604565492092
  H   2.54612087989936      0.20155765990517      0.92381780295742
  N   -0.89100530159647      1.35021390622202     -0.37639766302608
  H   -1.34761919820637      1.47210326226570      0.52172771977988
  H   -0.07324597982763      1.94922401323122     -0.39181531721768
  N   -1.63049181466905     -0.85289950722935     -0.26811355587659
  H   -2.34144990854543     -0.55521780193366     -0.92502697594559
  H   -1.42262483396013     -1.82913241325771     -0.43786327859931
