14
Coordinates from ORCA-job run
  C   0.76926761574335     -0.52838518356531      0.24119752758910
  C   -0.61912989869951      0.11391894301053      0.11701565293206
  Br  0.59181676161032     -2.30785013060939      1.08843381374381
  H   -0.99430123006375      0.24647962512361      1.13613951638752
  H   1.14541876070029     -0.78134613907724     -0.76145435040742
  N   1.61818039848725      0.29329626096713      1.03866942298971
  H   1.43713426055779      1.26091779038264      0.79758980068990
  H   2.59516217985651      0.06608943864558      0.91660750603370
  N   -1.61262775732672     -0.64670000587569     -0.62197212236694
  H   -1.86067022968571     -1.48566324899806     -0.11121830439448
  H   -1.23055849087548     -0.94094675273009     -1.51542424528479
  N   -0.40610570509318      1.43977476861579     -0.45226466375359
  H   -1.29509039895868      1.92706663093123     -0.44395616630176
  H   -0.14049626625248      1.34234800317928     -1.42836338785682
