14
Coordinates from ORCA-job run
  C   0.58458935911920     -0.60727105870320      0.56896636537506
  C   -0.75195794018947      0.00512782231107      0.13083328300416
  Br  0.79638671087349     -0.34407010779511      2.55694649193374
  H   -1.51292165663050     -0.26020582386338      0.86713920966669
  H   0.56277496067964     -1.69312174033985      0.47325810768846
  N   1.63239389284837     -0.05535459292316     -0.20256055531701
  H   1.69961645676326      0.93634075188305     -0.00090452956816
  H   2.52228216760622     -0.49611532851982     -0.01131168827525
  N   -1.16689822634304     -0.52586626703955     -1.16572402192057
  H   -1.51101066957779     -1.47425127025174     -1.06554717142757
  H   -0.34725010393475     -0.56526511871409     -1.76497477594788
  N   -0.59311655080132      1.45294455291747      0.08976770890816
  H   -1.44510362274562      1.89909013114673      0.40185750306555
  H   -0.46778477766768      1.72801804989157     -0.87774592718538
