14
Coordinates from ORCA-job run
  C   0.55546495547948     -0.51488295938802      0.66250713702399
  C   -0.75509863618804     -0.03685176570285      0.02763904408755
  Br  0.60236482471291      0.24291765878742      2.57311210521789
  H   -1.57820694941440     -0.29963402837670      0.70499040746837
  H   0.53335897355413     -1.58614900434794      0.86092839448247
  N   1.64979349887867     -0.15673392792683     -0.13025793585042
  H   1.62828604513094      0.83262271166454     -0.34376420765119
  H   2.54139735438827     -0.44617804561626      0.24372884299399
  N   -1.01008419592569     -0.68158906663251     -1.24713476542873
  H   -1.27377530903845     -1.64867126410794     -1.10482632800711
  H   -0.15704899995402     -0.66129458744731     -1.79499148751802
  N   -0.63333189248588      1.38889439932724     -0.23307313106648
  H   -0.71094850499689      1.91144944339826      0.63103240501374
  H   -1.39117116414103      1.65510043636890     -0.84889048076606
