14
Coordinates from ORCA-job run
  C   0.76794622869963     -0.58664745314079      0.42837442818876
  C   -0.29131677647678     -0.11779258585258     -0.55903579283619
  Br  -0.06271984594111     -0.40660763686088      2.32682137697493
  H   0.17068962124715     -0.26715345638179     -1.54136030574864
  H   0.90903880095676     -1.66324670925314      0.37282495727905
  N   1.95221262868700      0.12609640161119      0.27249321660632
  H   2.67633207008852     -0.12533670825820      0.92894240439613
  H   1.77641998821000      1.12268782165650      0.25481520624388
  N   -0.46298603962233      1.32268753266358     -0.39482674454815
  H   -1.00370051795369      1.50619816461604      0.44318364005318
  H   -0.96020020520927      1.70983751183114     -1.18699195769859
  N   -1.44880992978296     -0.98837788509489     -0.49844480489720
  H   -1.92187474477034     -0.88103564901352      0.39128208995631
  H   -2.09903127813260     -0.75330934852268     -1.23807771396978
