14
Coordinates from ORCA-job run
  C   0.61651038540215     -0.61544749830770      0.76325030516472
  C   -0.65095134735812     -0.02380887122619      0.12132197627347
  Br  0.57169133148572     -0.24879379601567      2.68049580327874
  H   -1.51258515975024     -0.25438424344431      0.76132820249467
  H   0.59701903402265     -1.70607833477375      0.68321247711600
  N   1.85619642203004     -0.13046607372507      0.22256011528083
  H   1.86906562238660      0.88008962071813      0.31280471783210
  H   1.88052252749719     -0.36741572698467     -0.76429359031664
  N   -0.73933058522989     -0.61711262170361     -1.21769278586150
  H   -0.86764274836070     -1.62180666880391     -1.15423262204628
  H   -1.54979716170863     -0.23960100268840     -1.69636239505645
  N   -0.52449461586687      1.41383665985624      0.02777787517585
  H   -0.12796451826889      1.65730087784121     -0.87130524788989
  H   -1.41623918628101      1.87568767925769      0.13113516855438
