14
Coordinates from ORCA-job run
  C   0.75384917689513     -0.53596024543555      0.31589187196955
  C   -0.36868517303041      0.01103544497018     -0.57217176285232
  Br  0.02415551853919     -0.57759818561952      2.26014007184173
  H   0.04530867684936     -0.04338109968417     -1.58605762618378
  H   0.91738234317359     -1.60019677107358      0.14984271708321
  N   1.92175447630392      0.20326162735725      0.16333325364608
  H   2.68949777030540     -0.09662690533847      0.74556215352714
  H   1.73897524690173      1.19539743830486      0.23995889341523
  N   -0.54472696583311      1.41401790266605     -0.25195268175265
  H   -1.18570580831342      1.81642420931274     -0.92516543665142
  H   -0.97900606217821      1.48912226364095      0.66233835950713
  N   -1.60897147440106     -0.74262985288172     -0.57986104804410
  H   -1.46850703162369     -1.65798778217563     -0.99260884251531
  H   -1.93632069358842     -0.87587804404338      0.37075007700952
