14
Coordinates from ORCA-job run
  C   0.80744744848517     -0.53410013726484      0.25691297733726
  C   -0.56164421905309      0.14246109490536      0.05550898325884
  Br  0.59452646082245     -2.12749241227746      1.36812049000256
  H   -0.89773117192967      0.48910223337145      1.03917496219522
  H   1.16320644309070     -0.90703294363331     -0.71125148979893
  N   1.83142919030868      0.29484892557138      0.84650175358126
  H   1.57623911843552      0.50630155208451      1.80559581091820
  H   1.82186815359783      1.17074950054593      0.33175506855898
  N   -1.62279977626382     -0.68218177344731     -0.50130482774904
  H   -1.87826109992357     -1.41377109916165      0.15140544308632
  H   -1.29617127727046     -1.13717490413665     -1.34847202512047
  N   -0.29780687667492      1.31873009226976     -0.76347958475264
  H   -0.08920222449595      1.01904416519947     -1.71195132279682
  H   -1.15310016912888      1.86051570597336     -0.81751623872074
