14
Coordinates from ORCA-job run
  C   0.69691973984604     -0.55413940684402      0.35436285210762
  C   -0.48002963386186     -0.04014547664583     -0.48921428078974
  Br  0.21660766075843     -0.47659804704902      2.30499547577011
  H   -0.11368040533628     -0.15107073403959     -1.52318494751302
  H   0.85081876186055     -1.62064177978186      0.17767305298160
  N   1.88653152923139      0.15233164162945      0.04560127529535
  H   2.69089060843283     -0.25739675449914      0.50110455071934
  H   1.81567164192079      1.11871857741336      0.33835366296157
  N   -0.82027782267369      1.35250318986371     -0.31749180129978
  H   -0.09700322856388      1.96467779077745     -0.66911763185927
  H   -1.00384167071890      1.54539352815761      0.66025724477875
  N   -1.67627140948403     -0.80095688507770     -0.20001241590290
  H   -1.54289669126028     -1.78517778084509     -0.39818720825711
  H   -2.42143908015110     -0.44649786305933     -0.78613982899251
