14
Coordinates from ORCA-job run
  C   0.80955675554937     -0.36104768969993      0.15179960272033
  C   -0.65731579280358      0.03726931906752     -0.02903093425800
  Br  0.87794068727001     -2.18895978562930      1.03485966154886
  H   -1.09404711646405      0.14013447533961      0.97966180052023
  H   1.26197100314597     -0.53739527477709     -0.82440447902687
  N   1.52545129313109      0.61753972704197      0.87882828013722
  H   2.51830879976470      0.42832676257882      0.89790269896713
  H   1.18802797697150      0.68992671424601      1.83107468978340
  N   -1.33240745350351     -0.92487813745779     -0.87509153501245
  H   -1.37761896752891     -1.82962574041532     -0.42503598416059
  H   -2.27687112245664     -0.59170677497934     -1.02752944808431
  N   -0.78787754390525      1.31843777778924     -0.69758622397192
  H   -0.19321160127615      1.99999159538012     -0.24224708099988
  H   -0.46190691789454      1.20298703151549     -1.65220104816314
