14
Coordinates from ORCA-job run
  C   0.58812489166494     -0.40170066360380      0.72960099581205
  C   -0.78435641433639     -0.15774807751925      0.09021836701273
  Br  0.71039194429868      0.51462585198243      2.44927495485974
  H   -1.54165547611676     -0.61098674384869      0.73655387681774
  H   0.68851429281511     -1.46389082973458      0.97291907252580
  N   1.62101540904893      0.11194909210561     -0.15671929187826
  H   1.79351613007977     -0.59685349365450     -0.86252950612627
  H   2.48602993408567      0.25459194612556      0.34900976260124
  N   -0.74301347480418     -0.91064190451988     -1.16111731047555
  H   -0.29637603328934     -0.31936766445847     -1.85563881133438
  H   -1.69617713115519     -1.03510164768944     -1.48269823951487
  N   -1.13275700080263      1.23550420296826     -0.11736013384600
  H   -1.38987778809250      1.66674076532791      0.76239072207863
  H   -0.30337928339612      1.71587916651885     -0.45490445853259
