14
Coordinates from ORCA-job run
  C   0.61466411926525     -0.61307201964643      0.64573504236597
  C   -0.71038826131563     -0.12583258027098      0.06801696532484
  Br  0.70135516431402      0.06028604471347      2.58692780279850
  H   -1.51379064786027     -0.42536109770870      0.75191714869263
  H   0.59822729676679     -1.69144009815290      0.78321416715604
  N   1.68192681294702     -0.19992722466126     -0.15497230566832
  H   1.66051065610725      0.80042712992046     -0.30485913228324
  H   2.58457003566305     -0.51753017125656      0.16560303697324
  N   -0.90800883224194     -0.84147056389903     -1.17210637975985
  H   -0.20130980757357     -0.55205658758129     -1.83734703448962
  H   -1.82679941288737     -0.65406843052496     -1.55400348607632
  N   -0.61799441174691      1.32655889581450     -0.11547262032259
  H   -0.64696447915673      1.78824746447887      0.78780047391338
  H   -1.41599823228094      1.64523923877480     -0.65145367862466
