14
Coordinates from ORCA-job run
  C   0.57210679962154     -0.36543427892679      0.71579672243472
  C   -0.39065094206425      0.45687646163549     -0.15572230327529
  Br  0.86994421118915      0.61871894462312      2.41099326142025
  H   0.09784104958959      1.42754823841984     -0.35071287565303
  H   0.06963054150232     -1.29072190414792      1.00664707552494
  N   1.84718266413691     -0.66603685704175      0.14419521057408
  H   1.79954361749255     -1.45911628881403     -0.47913862584057
  H   2.25812813452126      0.13337732253991     -0.32030523785003
  N   -1.68204217307741      0.54776014765195      0.49369316382368
  H   -2.30779463940934      1.05630582130063     -0.11916253327542
  H   -1.60661035176824      1.04687294265313      1.37028463796372
  N   -0.64535426702455     -0.16099952225332     -1.44384811040309
  H   0.20798522632752     -0.28201968916049     -1.97257929578558
  H   -1.08790987103705     -1.06213133847977     -1.29914108965839
