14
Coordinates from ORCA-job run
  C   0.73080991139256     -0.62625169038761      0.38108698924842
  C   -0.37131413241817      0.02721377491262     -0.47665559162909
  Br  0.00472562768020     -1.19036137795026      2.11231716471487
  H   0.08914885975495      0.11551187726527     -1.47826300164160
  H   1.04928178666320     -1.55272318278811     -0.10581547584592
  N   1.89335804605150      0.18520991541138      0.63167543618795
  H   1.62083982636596      1.05157002213652      1.07970337284159
  H   2.38129021164957      0.38174222559668     -0.23494638521172
  N   -0.73839607129208      1.31387792539116      0.09057299879336
  H   -1.63682968623667      1.56817119781160     -0.30144874017109
  H   -0.07404997960240      2.02851285578588     -0.17641648449721
  N   -1.58949323666470     -0.73485482530021     -0.64875643613955
  H   -1.95884407018242     -0.96980222940715      0.26643154902202
  H   -1.40152709316152     -1.59981648847778     -1.14048539567201
