14
Coordinates from ORCA-job run
  C   0.79202422150325     -0.60604480061741      0.39128700433068
  C   -0.49134999861124      0.11220569021682     -0.04790480453327
  Br  0.34759752295703     -2.03469572780099      1.65541175701184
  H   -0.92835125169468      0.57199291715419      0.85307223190558
  H   1.21830601885481     -1.10987562210186     -0.48032161712087
  N   1.78867715721881      0.23652193066037      1.00029632026826
  H   1.92408066073073      1.01733260267571      0.36452229162309
  H   1.42651538374336      0.61119516961368      1.87095166478207
  N   -1.37808247529697     -0.80791360763931     -0.74505954569799
  H   -2.24748642047115     -0.33656446956508     -0.96657572414415
  H   -1.59854296557741     -1.60466598162997     -0.15943501881100
  N   -0.07496902746289      1.19224513162083     -0.93185259474687
  H   -0.02287706497998      0.81726778419523     -1.87343224727279
  H   -0.75554176091367      1.94099898321778     -0.92995971759456
