14
Coordinates from ORCA-job run
  C   0.52295099302313     -0.54919938690072      0.58158826562532
  C   -0.84438778211052     -0.05288518858269      0.07933174988109
  Br  0.69785924408264     -0.05455488013064      2.54321381272717
  H   -1.60647661154442     -0.46225674439245      0.74947071829763
  H   0.54268349820943     -1.63879862568602      0.61203170941098
  N   1.57441743791687     -0.06105610863531     -0.22211819586934
  H   1.62033987164986      0.94910821971296     -0.19399192099938
  H   2.47355998206467     -0.44588748548907      0.03200739435276
  N   -1.07628223040838     -0.55927197929385     -1.26296394485437
  H   -1.56039721500530     -1.44539015053693     -1.23956569361416
  H   -0.18943785676088     -0.67858424079287     -1.73795681349473
  N   -0.97638839190462      1.39195435867655      0.05328363260212
  H   -0.52124234231781      1.84403236965904      0.83502280726360
  H   -0.65819859689468      1.76278984239200     -0.83035352132869
