14
Coordinates from ORCA-job run
  C   0.65617275810322     -0.54999871659901      0.55106384293750
  C   -0.41731614574419     -0.05113801463511     -0.43902043658472
  Br  0.04547752103589     -0.29966005759895      2.39120359026222
  H   0.06107939055866     -0.19259082761759     -1.42734430049627
  H   0.78056267588460     -1.63077002710938      0.43153865437784
  N   1.95461510216258      0.06173203387768      0.42347906171012
  H   1.88501608800991      1.06815371994017      0.51156977667401
  H   2.36155133212724     -0.16857589701801     -0.47602333691878
  N   -0.77563785884409      1.34570968083462     -0.35728651587742
  H   -1.12022751892932      1.54694840121020      0.57466412579514
  H   0.01040551371064      1.94694261919226     -0.56605813443900
  N   -1.64225411334719     -0.80024549727139     -0.26952143125845
  H   -1.48849219401438     -1.79377061364797     -0.38993436701689
  H   -2.31095255071358     -0.48373680355753     -0.96033052916530
