14
Coordinates from ORCA-job run
  C   0.72760718539813     -0.53627857080863      0.12665322970491
  C   -0.52230452339581      0.03621285143679     -0.57205719289636
  Br  0.23060869693344     -0.93966265904781      2.06714615747795
  H   -0.19262292349711      0.17542918435214     -1.60928436472516
  H   0.96774281728839     -1.52999506820316     -0.25450460011879
  N   1.83886055406662      0.31378920517247     -0.00206225683461
  H   2.68649792235355     -0.08273268506785      0.37884180341276
  H   1.66865103296980      1.21792958142133      0.41726488103171
  N   -0.92692029802320      1.32658912624620     -0.06272837035162
  H   -0.86052887056206      1.36778633283907      0.94667362082589
  H   -0.41119372954436      2.08572881606803     -0.48100584488600
  N   -1.66833806055769     -0.85217721115386     -0.57860053780675
  H   -2.16352157578957     -0.76459400999557      0.29977924621106
  H   -1.37653822764012     -1.81802489325916     -0.67611577104499
