17

C	-0.511645	-0.041775	-1.442782
C	0.0	0.0	0.0
F	-0.137981	1.127308	-2.039472
H	1.09576	0.0	0.0
N	0.170158	-1.160882	-2.211798
O	0.138078	-2.261467	-1.672467
O	0.610292	-0.905666	-3.324189
C	-2.001499	-0.223175	-1.593549
H	-2.267865	-0.124448	-2.648461
H	-2.491657	0.55643	-1.010746
H	-2.304735	-1.203185	-1.225339
C	-0.514945	-1.113354	0.792434
N	-0.96601	-1.936419	1.498546
N	-0.516568	1.259691	0.581996
H	-0.361361	1.208704	1.583334
H	0.104326	1.988816	0.2444
Cl	3.281684	0.0	0.0
