17

C	-0.410789	0.107693	-1.466742
C	0.0	0.0	0.0
F	-0.452756	-1.139956	-2.045257
H	1.098828	0.0	0.0
N	-1.862319	0.588414	-1.526793
O	-2.647766	0.028705	-0.764093
O	-2.164699	1.460007	-2.337667
C	0.493767	1.011868	-2.245171
H	1.504205	0.609077	-2.164093
H	0.480442	2.006099	-1.80202
H	0.172353	1.066343	-3.284614
C	-0.471035	-1.234038	0.636898
N	-0.843842	-2.183743	1.218921
N	-0.40944	1.222086	0.684986
H	-1.289341	1.089527	1.165929
H	0.30561	1.468702	1.35861
Cl	3.299031	0.0	0.0
