17

C	-0.357205	-0.133332	-1.474529
C	0.0	0.0	0.0
F	0.131593	-1.322806	-1.926722
H	1.106515	0.0	0.0
N	-1.872915	-0.227914	-1.679691
O	-2.578774	0.463791	-0.947075
O	-2.278499	-0.943905	-2.586661
C	0.170578	1.000774	-2.309187
H	-0.056132	0.809607	-3.361026
H	1.252302	1.032139	-2.155009
H	-0.267034	1.941314	-1.978037
C	-0.50854	-1.157723	0.748917
N	-0.970088	-2.03689	1.377857
N	-0.374414	1.291269	0.557533
H	0.263005	1.499608	1.31709
H	-1.325971	1.280155	0.898025
Cl	3.266972	0.0	0.0
