17

C	-0.488108	-0.233177	-1.428829
C	0.0	0.0	0.0
F	-1.822944	-0.564319	-1.42127
H	1.105594	0.0	0.0
N	-0.397022	1.098169	-2.156938
O	-1.439017	1.709399	-2.361432
O	0.729865	1.455726	-2.470472
C	0.307401	-1.275272	-2.167385
H	-0.053122	-1.361249	-3.194649
H	0.17758	-2.233388	-1.662756
H	1.362652	-1.003684	-2.146737
C	-0.436747	-1.148932	0.811809
N	-0.83379	-2.02205	1.490625
N	-0.453355	1.278832	0.518428
H	0.210707	1.599671	1.21181
H	-1.371863	1.209227	0.936877
Cl	3.277708	0.0	0.0
