14

C	0.0	0.0	0.0
C	-0.458644	-0.109061	-1.482299
Br	1.919377	0.0	0.0
H	0.447219	-0.252455	-2.078387
H	-0.375363	0.909892	0.456258
N	-0.377019	-1.132788	0.921251
O	-0.328225	-2.270312	0.469386
O	-0.601772	-0.819073	2.083569
N	-1.012911	1.182894	-1.854985
H	-1.936019	1.228343	-1.411382
H	-1.157554	1.187108	-2.85932
C	-1.266207	-1.29576	-1.849951
N	-1.680637	-2.232119	-2.428497
Br	-3.395575	0.0	0.0
