14

C	0.0	0.0	0.0
C	-0.5563	0.072529	-1.435188
Br	1.918085	0.0	0.0
H	-1.650485	-0.012581	-1.291574
H	-0.353786	0.831777	0.605237
N	-0.43297	-1.24257	0.740438
O	-0.694951	-2.245147	0.085205
O	-0.448122	-1.151326	1.96043
N	-0.109981	-0.90187	-2.408219
H	0.902606	-0.958023	-2.412937
H	-0.478039	-1.80191	-2.12853
C	-0.270284	1.423694	-1.931162
N	-0.011556	2.499126	-2.326341
Br	-3.605026	0.0	0.0
