14

C	0.0	0.0	0.0
C	-0.384828	-0.027931	-1.529031
Br	1.930028	0.0	0.0
H	-1.438115	-0.199171	-1.655082
H	-0.329453	0.905306	0.501587
N	-0.41442	-1.16397	0.842551
O	-0.546555	-0.902513	2.033156
O	-0.441282	-2.272853	0.3295
N	0.269789	-1.064281	-2.317357
H	-0.335828	-1.256345	-3.109126
H	1.192483	-0.814944	-2.650001
C	-0.183734	1.342494	-2.070428
N	-0.186446	2.388952	-2.612823
Br	-3.063756	0.0	0.0
