14

C	0.0	0.0	0.0
C	-0.374151	0.299695	-1.475622
Br	1.92751	0.0	0.0
H	0.448739	-0.119668	-2.063865
H	-0.397438	0.721695	0.702884
N	-0.369366	-1.378886	0.478024
O	-0.393992	-2.260097	-0.373627
O	-0.527585	-1.511574	1.686148
N	-0.351107	1.754493	-1.614965
H	0.015534	1.975418	-2.535219
H	-1.314084	2.093909	-1.591573
C	-1.542032	-0.314127	-2.138743
N	-2.123849	-0.715339	-3.085709
Br	-3.383837	0.0	0.0
