14

C	0.0	0.0	0.0
C	-0.568492	0.123556	-1.405735
Br	1.948145	0.0	0.0
H	-1.651161	-0.063196	-1.260224
H	-0.345885	0.796267	0.655923
N	-0.425403	-1.287328	0.675876
O	-0.86696	-2.190243	-0.017069
O	-0.267267	-1.309986	1.892006
N	0.019907	-0.818753	-2.343372
H	0.693577	-0.367693	-2.948605
H	-0.712197	-1.23427	-2.902911
C	-0.422282	1.519291	-1.837845
N	-0.257827	2.613698	-2.234888
Br	-3.639023	0.0	0.0
