14

C	0.0	0.0	0.0
C	-0.586207	-0.28884	-1.374729
Br	1.946231	0.0	0.0
H	-1.678399	-0.303949	-1.185023
H	-0.345728	0.962186	0.370215
N	-0.425904	-1.000952	1.044975
O	-0.48532	-0.578984	2.191894
O	-0.624441	-2.158301	0.690484
N	-0.050374	-1.494385	-2.009661
H	-0.475077	-1.564022	-2.927805
H	-0.382451	-2.280634	-1.463848
C	-0.294308	0.866719	-2.226886
N	-0.065663	1.776296	-2.933228
Br	-3.664304	0.0	0.0
