12

C	0.0	0.0	0.0
C	-0.53239	-0.239378	-1.388074
Cl	1.85111	0.0	0.0
H	-0.155176	-1.201034	-1.753929
H	-1.640112	-0.231847	-1.168859
H	-0.208909	0.554256	-2.065144
C	-0.419595	1.297874	0.542731
N	-0.555102	2.374021	0.992553
N	-0.373618	-1.048344	0.891644
H	-0.05343	-1.932171	0.516869
H	0.032034	-0.902694	1.806513
F	-2.770161	0.0	0.0
