15

C	-0.207917	-0.083934	-1.501536
C	0.0	0.0	0.0
F	-1.539437	-0.406752	-1.800761
H	1.091747	0.0	0.0
H	0.007188	0.881707	-1.958513
N	0.662837	-1.088136	-2.058658
H	1.588149	-0.820795	-1.698847
H	0.439637	-1.940564	-1.549082
N	-0.497634	-1.155212	0.671389
H	-0.02674	-1.249961	1.561235
H	-1.492819	-1.078666	0.838
N	-0.516112	1.291829	0.552725
O	-0.236497	2.327393	-0.05298
O	-1.171159	1.26671	1.60116
F	2.60017	0.0	0.0
