15

C	-0.620376	0.007764	-1.372645
C	0.0	0.0	0.0
F	-2.047501	0.177164	-1.199664
H	1.09067	0.0	0.0
H	-0.315308	0.874275	-1.954327
N	-0.337758	-1.200519	-2.038804
H	-0.486884	-1.961361	-1.387992
H	-0.918752	-1.300283	-2.858843
N	-0.423263	-1.154054	0.740914
H	-1.297609	-0.979289	1.220251
H	0.291804	-1.352643	1.428743
N	-0.393492	1.28558	0.670941
O	-0.240816	2.327059	0.034687
O	-0.806126	1.247505	1.833265
F	2.55431	0.0	0.0
