15

C	-0.215688	0.06722	-1.518746
C	0.0	0.0	0.0
F	-0.169709	-1.290053	-1.985149
H	1.091548	0.0	0.0
H	-1.20736	0.41025	-1.832779
N	0.826189	0.861755	-2.019548
H	0.901072	0.828539	-3.025853
H	1.707997	0.625688	-1.532913
N	-0.582894	-1.103226	0.70415
H	0.119858	-1.828116	0.742958
H	-1.387863	-1.466152	0.21311
N	-0.560144	1.270449	0.557726
O	0.199667	2.126073	1.004428
O	-1.79292	1.376676	0.533118
F	2.672225	0.0	0.0
