15

C	-0.563729	-0.025286	-1.406418
C	0.0	0.0	0.0
F	-0.20047	1.161411	-2.070686
H	1.089969	0.0	0.0
H	-0.071821	-0.840908	-1.937699
N	-1.979774	-0.206093	-1.442561
H	-2.432633	0.542407	-0.93283
H	-2.301054	-0.19205	-2.402408
N	-0.430926	-1.161703	0.705082
H	-1.400137	-1.105271	0.983411
H	0.171513	-1.292864	1.505111
N	-0.510482	1.289407	0.637233
O	0.179063	2.299985	0.562197
O	-1.62872	1.257227	1.182934
F	2.599059	0.0	0.0
