15

C	-0.626426	0.006517	-1.369906
C	0.0	0.0	0.0
F	-2.052308	0.17965	-1.189672
H	1.090681	0.0	0.0
H	-0.322604	0.871134	-1.954979
N	-0.350894	-1.204201	-2.033766
H	-0.498309	-1.962316	-1.378707
H	-0.939492	-1.305719	-2.849026
N	-0.420348	-1.153168	0.744296
H	0.300542	-1.354679	1.424474
H	-1.288378	-0.976092	1.232826
N	-0.390339	1.286057	0.671833
O	-0.240726	2.327308	0.03429
O	-0.793561	1.248191	1.837709
F	2.554847	0.0	0.0
