15

C	-0.204918	0.060945	-1.52163
C	0.0	0.0	0.0
F	-0.153326	-1.295936	-1.981361
H	1.091557	0.0	0.0
H	-1.197189	0.400773	-1.844179
N	0.838328	0.855392	-2.018934
H	1.714606	0.622012	-1.522026
H	0.92632	0.804438	-3.022783
N	-0.582949	-1.100266	0.706366
H	-1.38684	-1.466876	0.214685
H	0.119781	-1.823877	0.755202
N	-0.565039	1.273076	0.547065
O	-1.798348	1.372861	0.526653
O	0.192654	2.13653	0.977485
F	2.673906	0.0	0.0
