15

C	-0.513703	-0.020369	-1.427747
C	0.0	0.0	0.0
F	-0.135981	1.189504	-2.045964
H	1.089783	0.0	0.0
H	0.024939	-0.809718	-1.958558
N	-1.920316	-0.239834	-1.545229
H	-2.402572	0.5124	-1.066696
H	-2.191086	-0.259101	-2.520027
N	-0.533638	-1.055165	0.807546
H	0.199156	-1.719814	1.005839
H	-1.336558	-1.48994	0.374616
N	-0.457921	1.316173	0.623368
O	-1.674391	1.563863	0.633433
O	0.382436	2.05574	1.11992
F	2.597914	0.0	0.0
