13

C	-0.19341	-0.142004	-1.488101
C	0.0	0.0	0.0
Cl	-1.879356	-0.026226	-2.070772
H	1.09649	0.0	0.0
H	0.210087	-1.096726	-1.816053
N	0.604884	0.895423	-2.238178
O	0.577588	2.043835	-1.81989
O	1.184065	0.496831	-3.243487
C	-0.464961	-1.201681	0.66391
N	-0.811277	-2.191341	1.196604
C	-0.569155	1.187805	0.601256
N	-1.029532	2.119823	1.150421
F	2.423077	0.0	0.0
