13

C	-0.431051	0.164264	-1.428603
C	0.0	0.0	0.0
Cl	-2.20345	0.299503	-1.662401
H	1.10134	0.0	0.0
H	-0.08875	-0.677546	-2.024486
N	0.180755	1.379976	-2.069436
O	0.576354	1.231406	-3.223265
O	0.197677	2.418054	-1.422287
C	-0.371	-1.33094	0.451684
N	-0.619823	-2.423625	0.807279
C	-0.490775	1.003051	0.927178
N	-0.852281	1.776439	1.735259
F	2.419371	0.0	0.0
