13

C	-0.490866	0.319704	-1.407179
C	0.0	0.0	0.0
Cl	0.389938	1.685334	-2.097454
H	1.102916	0.0	0.0
H	-1.554543	0.543894	-1.470877
N	-0.306756	-0.882622	-2.30248
O	-1.310316	-1.240951	-2.92097
O	0.799279	-1.396774	-2.351863
C	-0.523348	-1.281361	0.434753
N	-0.953399	-2.321317	0.774455
C	-0.445424	1.053021	0.895564
N	-0.795704	1.920184	1.608201
F	2.422161	0.0	0.0
