13

C	-0.492296	0.177244	-1.431369
C	0.0	0.0	0.0
Cl	0.393184	1.46185	-2.256652
H	1.10069	0.0	0.0
H	-1.554777	0.398957	-1.516472
N	-0.314942	-1.109741	-2.203372
O	0.780576	-1.648959	-2.173552
O	-1.311224	-1.503431	-2.812456
C	-0.505799	-1.240094	0.560588
N	-0.897539	-2.259968	0.996723
C	-0.448208	1.134562	0.788269
N	-0.798251	2.06722	1.413399
F	2.423277	0.0	0.0
