15
Coordinates from ORCA-job run
  C   -0.74521354884713      0.09646144350308     -0.50569033646410
  C   0.71110045470075      0.14773118484335     -0.02829881186686
  F   -1.04979932998824     -1.12536847572100     -0.98687405490317
  H   0.88870708893842      1.16424657382792      0.33770110713278
  C   -1.06145912355304      1.13032706768644     -1.49266808490130
  N   -1.29230516128786      1.95609217544020     -2.29614889906820
  N   -1.62136816682696      0.35233287895436      0.73124954848196
  O   -1.48317016214726      1.46385100796116      1.22393261100492
  O   -2.32079210889496     -0.56734483388453      1.11898857370332
  C   1.57760029542404     -0.09261864310472     -1.18286444392417
  N   2.28670371214728     -0.30480502280469     -2.09436625173896
  C   0.97236268300469     -0.87043273867253      1.08659646223688
  H   0.40608211699338     -0.61355936644694      1.98323636026534
  H   0.69922220421917     -1.87538371860721      0.76464347428611
  H   2.03232904611770     -0.86152953297489      1.34156274575546
