15
Coordinates from ORCA-job run
  C   -0.76351261102874      0.41341780564879     -0.25450707769289
  C   0.64229703339206     -0.19029208791528     -0.29806042213212
  F   -0.74219848258006      1.61168401880547     -0.89157485123659
  H   0.89248498848674     -0.24825778906102     -1.36425421096367
  C   -1.28373668890422      0.57485540825176      1.10243813938796
  N   -1.63562474963032      0.74742445301086      2.21014118376822
  N   -1.69906408504947     -0.50099952603488     -1.05631751808502
  O   -2.46015101213215     -1.21692324630437     -0.41983834065306
  O   -1.54422258421739     -0.44846541909362     -2.26747153446594
  C   0.61343288642788     -1.54484926893950      0.25276920622550
  N   0.62114648605588     -2.62687600219421      0.70945152074095
  C   1.65003365364127      0.69721582090988      0.43761054549710
  H   1.64141224345410      1.70145601971636      0.01336975174995
  H   1.41584267324378      0.75188177447464      1.50207134383019
  H   2.65086024884064      0.27872803872511      0.32517226402944
