15
Coordinates from ORCA-job run
  C   -0.71527396837167      0.46082434426716     -0.30631175429960
  C   0.66136368614945     -0.20554553978560     -0.24404929139320
  F   -0.57974274016084      1.68669038256518     -0.87324139805032
  H   1.01557517125426     -0.21959408297346     -1.28184305835673
  C   -1.36110665644540      0.58090661566646      1.00003109122850
  N   -1.81162084896864      0.72308415078049      2.07594795990815
  N   -1.60339515272171     -0.36772264793048     -1.24352465278980
  O   -2.45801220568055     -1.07281058042424     -0.72450317131029
  O   -1.32264948370854     -0.26662837918394     -2.42870276979853
  C   0.51852031304390     -1.58389628648747      0.22362283886272
  N   0.42886360197169     -2.68635556747605      0.61838936840732
  C   1.62501889731731      0.59351744064211      0.63732782576431
  H   1.69827575102323      1.61903021632890      0.27455853794218
  H   1.28826408843168      0.60005036831589      1.67531708377352
  H   2.61491954686583      0.13744956569506      0.59798139011179
