15
Coordinates from ORCA-job run
  C   -0.73241327587322      0.43963866324495     -0.29396368288476
  C   0.65989656892857     -0.19475671194240     -0.25789288956358
  F   -0.64027158933835      1.65703897665282     -0.88785925984566
  H   0.98712065854535     -0.21652177520785     -1.30435587135227
  C   -1.34486613625359      0.57217609618738      1.02716383377409
  N   -1.76795023358186      0.73309345357213      2.11142313919185
  N   -1.62749070619389     -0.42591967941977     -1.19059623814275
  O   -2.45793527484288     -1.13296104943703     -0.63620047997819
  O   -1.37572963644759     -0.34734217736273     -2.38402996729574
  C   0.55893359828398     -1.56954467138469      0.23066381167799
  N   0.49928093014432     -2.67089477925652      0.63446380515631
  C   1.62806273337423      0.63856490110081      0.58587122658742
  H   1.31619082255928      0.65743278913122      1.63159020100703
  H   1.67147263901108      1.65869451977928      0.20325334502331
  H   2.62569890168455      0.20130144434240      0.53046902664495
