18
Coordinates from ORCA-job run
  C   -0.67970061597630      0.09756289780078      0.35172456680374
  C   0.77076115345523     -0.15963052738860     -0.07005141178939
  Br  -0.86024027403002      1.85651605542678      1.13072868488441
  H   0.85965795562057     -1.23922699252098     -0.22098632840953
  C   -1.65703415136733     -0.05247059997311     -0.80387690301590
  H   -2.67815203381634      0.00425584775216     -0.42235360033116
  H   -1.50968956770145     -1.02036586468000     -1.28751853509736
  H   -1.51684944509118      0.74878615773069     -1.52742590236349
  N   -1.09611439524786     -0.97916039749934      1.37488776292842
  O   -0.91661058707905     -2.12395098597649      0.97251930970670
  O   -1.61691885506063     -0.65052874670085      2.42540071363717
  N   1.67652904124740      0.12516802439325      1.10595542751072
  O   2.59338215755240      0.92563505765169      0.95923153747607
  O   1.41426134168823     -0.48845993187344      2.13688191525782
  C   1.21469439122720      0.60270530938124     -1.29888217960407
  H   1.07271164613563      1.67615669402281     -1.17552938859224
  H   0.65642742432176      0.25698792802909     -2.16955603196142
  H   2.27288481412174      0.41902007442432     -1.48014963704049
