18
Coordinates from ORCA-job run
  C   -0.84036066522331      0.06170475189928     -0.27522241111213
  C   0.62773446390671      0.49208190517791     -0.41260529335871
  Br  -1.74987905815090      0.28884989149505     -1.98193273719547
  H   0.64474039165543      1.50308524691319     -0.81498383389080
  C   -1.09846255450636     -1.32675164692534      0.25633786870889
  H   -0.66502385807206     -2.06007893375398     -0.42057417040699
  H   -0.65469788136702     -1.44560180729461      1.24534781398781
  H   -2.17028874949569     -1.49640805438042      0.33867183913282
  N   -1.46122465140859      1.10834435405282      0.66565487624380
  O   -2.14534847568474      0.69290380553261      1.59394861039462
  O   -1.21447272317928      2.28361224302631      0.42236544423982
  N   1.31515847285806     -0.34497844430815     -1.45220789034698
  O   1.62651987065876      0.21745141886578     -2.49882275527490
  O   1.54195189887320     -1.52130311042610     -1.17322915686302
  C   1.40751979464354      0.39656714633146      0.88773662245353
  H   2.41920860903758      0.77473300576969      0.72686296087251
  H   1.47614001363912     -0.63376691928262      1.23300599641401
  H   0.94178510181553      1.01155514730712      1.65964621600122
