18
Coordinates from ORCA-job run
  C   -0.73882021309523     -0.00479555030806      0.33357251088241
  C   0.73666308876982     -0.08002053477268     -0.07812193489851
  Br  -1.28358676054315      1.68881692925912      1.11650962898188
  H   0.90983854119323     -1.11325448997359     -0.39171578041795
  C   -1.63500584586140     -0.29441671494468     -0.85551695234670
  H   -2.66814098851559     -0.36938861069676     -0.52528421494408
  H   -1.55970237100324      0.50981146942302     -1.58509484673841
  H   -1.34539400795545     -1.24120696972984     -1.32114980924738
  N   -1.01167023745817     -1.05771972851010      1.41639051473955
  O   -2.13094448812854     -1.55250913273554      1.45030490552290
  O   -0.08866539849654     -1.30812338992133      2.18348156204428
  N   1.74303160477032      0.12219633069625      1.02505413975253
  O   2.57042522786244     -0.77180331382942      1.16796785055393
  O   1.72001060411820      1.19132249176902      1.62217333954739
  C   1.11443252263859      0.89331884309036     -1.18515865941074
  H   0.59079276814988      0.65930171215703     -2.11126148824650
  H   0.89158147854903      1.91756890277752     -0.88583134777235
  H   2.18615447500578      0.81090175624969     -1.37731941800224
