18
Coordinates from ORCA-job run
  C   -0.85217326272190      0.17797910498559     -0.16552699462268
  C   0.62733710126049      0.56843394093658     -0.29952674588319
  Br  -1.86833184624675      0.95609861199703     -1.63334425385859
  H   0.68278933530787      1.65252386409369     -0.37678335048064
  C   -1.16376093772618     -1.29462360337319     -0.05841441082176
  H   -2.23574155930973     -1.43623527969783      0.06463475841711
  H   -0.65844071510180     -1.73021251092697      0.80420606509616
  H   -0.83088422565261     -1.80179064181578     -0.96161056184892
  N   -1.33012431789961      0.90948086081696      1.10029728477197
  O   -1.97213977610345      0.25815485965741      1.91629723909146
  O   -1.02222152658141      2.09097743246334      1.20349363669390
  N   1.17742092774666      0.06326162724884     -1.60196892319312
  O   1.34468144645961     -1.15025544596495     -1.71337924966426
  O   1.44672786933371      0.90628980483352     -2.45361360229891
  C   1.49335381655948      0.04589407446788      0.83409880816190
  H   1.13203194600837      0.41849956728410      1.79407911114962
  H   1.51370846837495     -1.04259559645077      0.84788054635077
  H   2.51476725629233      0.40811932944457      0.70018064293918
