18
Coordinates from ORCA-job run
  C   -0.85165869557177      0.09509585728732     -0.09697688992349
  C   0.61562968747099      0.23845955454938     -0.53826386909438
  Br  -1.86754614512044      1.49509515591363     -0.99083556712937
  H   0.61282196480302      0.15505587925065     -1.62646915940501
  C   -1.43593132675489     -1.25186550971711     -0.46578289883564
  H   -2.49502740696269     -1.28608461928487     -0.21453499977449
  H   -1.31791017599796     -1.41070613367351     -1.53888373028390
  H   -0.93094178503276     -2.05054239823165      0.07733376998009
  N   -0.99499931842660      0.33832837037009      1.40774566122506
  O   -1.36927768752545     -0.61162893855457      2.08632024831200
  O   -0.71086648307894      1.45495146565771      1.82059705795903
  N   1.34073295479974     -0.99289736867691     -0.06923683247137
  O   1.74218953277523     -1.77497877875007     -0.92754023224654
  O   1.46248411753502     -1.12490280480305      1.14691951233433
  C   1.40058495992271      1.45760447237948     -0.09207341874158
  H   2.37459369319054      1.43963039695593     -0.58683771681837
  H   0.87918444293094      2.36969924601468     -0.37880452010319
  H   1.54693767104337      1.45968615331283      0.98532358501687
