18
Coordinates from ORCA-job run
  C   -0.85362801739982      0.22295607191019      0.08770370898903
  C   0.60535625642049      0.64961656114763     -0.13432004223246
  Br  -2.04781080207252      1.55289184777272     -0.68430641531489
  H   0.72268243064471      1.65887775278550      0.25551561623206
  C   -1.24478397127503     -1.15166451469306     -0.39697237037856
  H   -1.10961787899747     -1.20777672098329     -1.47510447192443
  H   -0.63020122669540     -1.91480523552816      0.08158412665458
  H   -2.28682195584756     -1.34616141852403     -0.15053544623858
  N   -1.05503715826389      0.32058505964585      1.60941831413583
  O   -0.65529994036806      1.34289536365745      2.15380522741647
  O   -1.58748080239061     -0.63210571906185      2.16719881251835
  N   0.88804082818211      0.77185136365115     -1.60371552599053
  O   1.06659577611216      1.90570346419798     -2.04083167094968
  O   0.94798390276776     -0.26840422315014     -2.25738037246502
  C   1.61282782080963     -0.30630405617765      0.48141400730442
  H   1.44528246427469     -0.39888375305588      1.55578953272565
  H   2.61921861518333      0.09134186095186      0.33491199503014
  H   1.56069365891549     -1.28961370454626      0.01682497448761
