17
Coordinates from ORCA-job run
  C   -0.85937990457742      0.21497487853185      0.09454034222400
  C   0.53325327810527     -0.32507584269112      0.42764536682842
  H   -1.25682963389816      0.72026779238430      0.98831684206709
  H   0.39935719473993     -1.06612878087767      1.23736742153331
  N   -1.69133975285887     -0.94083647865211     -0.29751971743512
  H   -1.87703699664102     -1.51398236548668      0.52088810351964
  H   -2.58865720674310     -0.60764416800005     -0.63274027873618
  N   -0.74964197055640      1.20161251474644     -0.95156740027693
  H   -1.66060699353574      1.54673850053238     -1.22739903115988
  H   -0.29643765484127      0.76864403806578     -1.74785391193233
  C   1.46035869815780      0.76931163806728      0.92598081245589
  H   2.43962894047252      0.35686845494400      1.18773116790468
  H   1.04928037848612      1.24857229141704      1.81857341422692
  H   1.58692451950489      1.52417353529881      0.15093780105675
  N   1.07055106113865     -0.92126658572843     -0.79374529114782
  H   1.98976635104631     -1.30807860269878     -0.61823125632200
  H   0.45180969200050     -1.67015081985302     -1.08292438480643
