17
Coordinates from ORCA-job run
  C   -0.93605957521854      0.08735471029032      0.02604750191829
  C   0.49342239500067     -0.28869790196395      0.44711279048748
  H   -1.41073839012327      0.62517004434007      0.86261215323995
  H   0.40234231024328     -0.98685053233098      1.29988553925534
  N   -1.63230168100440     -1.15172649411601     -0.32084866274774
  H   -1.86459625992044     -1.67105585117283      0.51833810178041
  H   -2.49232768805950     -0.89918948134980     -0.79232520999585
  N   -1.01015682441711      0.94651446012517     -1.14182491363972
  H   -0.29188652876031      0.64261218259421     -1.79191116776156
  H   -0.81280390987735      1.90415226379469     -0.88238620463281
  C   1.28940557237307      0.92116346732266      0.90521433693051
  H   1.41452134922486      1.62241870531120      0.07785032437481
  H   0.79118905886419      1.43044748081430      1.73531587106220
  H   2.28629505227307      0.62700128806105      1.24562828000776
  N   1.13690301516654     -0.89567617330778     -0.71388371633942
  H   0.57321250897983     -1.68737165570654     -1.00426084043710
  H   2.06257959525541     -1.22726651270576     -0.47156418350256
