17
Coordinates from ORCA-job run
  C   -0.74363934239876      0.40360415626803     -0.35915646883666
  C   0.48355850984494     -0.37549258780948      0.13152508212922
  H   -0.38029421236660      1.36404161635798     -0.75240720660770
  H   0.12275887782305     -1.35835821415503      0.46999562025413
  N   -1.61701172358010      0.70113804603922      0.76023974747656
  H   -2.44018637356302      1.17009008697617      0.39855743469300
  H   -1.93299446879904     -0.17055958988783      1.17583543213615
  N   -1.45634290487575     -0.24910552614716     -1.45745660112860
  H   -1.84746425186411     -1.11851718573424     -1.10365853981892
  H   -0.76539050140793     -0.51251787214939     -2.15416698899528
  C   1.19735891810489      0.32732475324738      1.28209510328777
  H   2.08707456925601     -0.23459081994470      1.58183191882759
  H   1.51737365313113      1.32534520128966      0.96389216066225
  H   0.54613444619756      0.45156829115638      2.14702661826560
  N   1.34206470319826     -0.62612132873198     -1.03342421806360
  H   2.03862502506432     -1.32444647522697     -0.80061670025747
  H   1.84937507623514      0.22659744845196     -1.25111239402404
