17

C	-0.476095	0.055045	-1.44463
C	0.0	0.0	0.0
Cl	0.06032	-1.554431	-2.224559
H	1.092971	0.0	0.0
H	-0.337676	-0.941518	0.447567
N	-1.898469	0.183457	-1.527443
H	-2.338866	-0.580098	-1.025784
H	-2.195791	0.133821	-2.495206
C	0.214175	1.141269	-2.245803
H	1.295792	1.041428	-2.138466
H	-0.053859	1.071158	-3.303827
H	-0.102191	2.117333	-1.86984
C	-0.486665	1.183937	0.834361
H	-0.107949	1.079184	1.85426
H	-1.57631	1.252322	0.864979
H	-0.094821	2.126213	0.445543
Br	3.750086	0.0	0.0
