17

C	-0.488285	0.000409	-1.442888
C	0.0	0.0	0.0
Cl	0.207174	-1.46232	-2.276762
H	1.094247	0.0	0.0
H	-0.31855	0.96368	0.430737
N	-1.933306	-0.098106	-1.654968
H	-2.356005	0.703376	-1.192688
H	-2.273743	-0.92954	-1.183111
C	0.015413	1.228021	-2.18602
H	-0.418551	2.128131	-1.733785
H	1.101457	1.289876	-2.109881
H	-0.291929	1.175977	-3.232721
C	-0.526366	-1.137947	0.85815
H	-0.081791	-1.079192	1.856536
H	-1.616822	-1.121189	0.982627
H	-0.242113	-2.105927	0.436355
Br	2.935502	0.0	0.0
