17

C	-0.399567	-0.040024	-1.462544
C	0.0	0.0	0.0
Cl	-2.249228	-0.603459	-1.514864
H	1.09579	0.0	0.0
H	-0.323606	-0.937294	0.460035
N	-0.269217	1.210131	-2.093447
H	-0.518193	1.165146	-3.072362
H	-0.808451	1.931021	-1.635157
C	0.360994	-1.107885	-2.217329
H	0.048273	-1.146431	-3.264763
H	0.188194	-2.085829	-1.76764
H	1.425688	-0.86727	-2.145308
C	-0.530714	1.189363	0.785359
H	-0.07101	2.118707	0.440838
H	-1.61988	1.272507	0.714309
H	-0.265338	1.080522	1.839137
Br	3.7256	0.0	0.0
