17

C	-0.442448	-0.028989	-1.461769
C	0.0	0.0	0.0
Cl	-0.020331	1.557579	-2.236677
H	1.095497	0.0	0.0
H	-0.301053	-0.975802	0.409716
N	0.270498	-1.045414	-2.220287
H	1.267522	-0.918016	-2.043001
H	0.022896	-1.944828	-1.814181
C	-1.937714	-0.222454	-1.643349
H	-2.49596	0.604241	-1.202144
H	-2.167571	-0.281683	-2.7079
H	-2.249261	-1.153644	-1.156563
C	-0.548878	1.112648	0.880203
H	-0.250691	2.090315	0.499827
H	-1.640905	1.086741	0.957025
H	-0.138232	1.011856	1.888066
Br	3.72919	0.0	0.0
