14
Coordinates from ORCA-job run
  C   0.42804707987491      0.01991196058792      0.33377492412192
  C   -0.80042417637899     -0.27935862311472     -0.51854642360762
  Cl  0.36805860668870     -1.01817199537309      1.79563209868711
  H   -0.84562864301031      0.41052553802527     -1.36480457928151
  H   -0.77190507148019     -1.31271197463006     -0.85923581291618
  C   0.49792792782620      1.41992914021799      0.75484110439963
  N   0.66058401029890      2.54723715848002      1.04274571981132
  C   1.68531366522546     -0.32688275913468     -0.46243744713921
  H   2.57134566111014     -0.13968311452041      0.14408448624934
  H   1.73762534862213      0.29101898189115     -1.36231705726572
  H   1.66598629743216     -1.38114221481311     -0.74348400206830
  N   -2.08046997273976     -0.11868836617561      0.23342875957553
  O   -2.26361768958701      0.96135775376502      0.78519220977225
  O   -2.85184304388233     -1.07334148520569      0.22312601966142
