14
Coordinates from ORCA-job run
  C   0.42842781656006      0.04889678151155      0.52222337254856
  C   -1.04686733451697      0.28939243560158      0.17516031527238
  Cl  0.55222058829439     -1.41574463884102      1.55077194070321
  H   -1.64561652891405      0.34950610910819      1.08188284030968
  H   -1.13687448673880      1.19805208027499     -0.42213677473084
  C   0.84721976235423      1.20235418127300      1.32300020528866
  N   1.17167808492785      2.15431344168947      1.93062667957721
  C   1.34788825008524     -0.10739264297808     -0.68383442162385
  H   1.25783004018638      0.76470111493675     -1.33515750278824
  H   1.08300858448664     -0.99790069369240     -1.25060248185004
  H   2.37893252840308     -0.19454370978203     -0.34046376612270
  N   -1.60753166196311     -0.82234679636805     -0.64451917337280
  O   -2.34312110381771     -1.62483834222846     -0.07702236957221
  O   -1.28619453934723     -0.84544932050550     -1.83192886363904
