14
Coordinates from ORCA-job run
  C   0.49441761947386     -0.20707206787941      0.53197170927764
  C   -0.90929703715954     -0.71558174924085      0.18586142097662
  Cl  1.23778019497770     -1.51598165834038      1.51683548154015
  H   -0.82962801369807     -1.63293048978578     -0.39536949607631
  H   -1.50041477818009     -0.86346079696753      1.08797923595272
  C   0.42427760401418      0.99567325637434      1.36239896843123
  N   0.39343801080925      1.98006286296235      2.00305992442457
  C   1.35942293456637      0.04168447424777     -0.69691258236717
  H   2.37170765173334      0.30107718060918     -0.38587911434196
  H   0.95048148854577      0.86115727154080     -1.28987479204407
  H   1.39308404288291     -0.85869059268151     -1.31213585930755
  N   -1.62455099973430      0.28418461938338     -0.65942437150731
  O   -2.26242588056443      1.15405947043366     -0.07035500809837
  O   -1.49629283766696      0.17481821934398     -1.87815551686021
