14
Coordinates from ORCA-job run
  C   0.42953053253754      0.10498434333687      0.31505603436417
  C   -0.80368739640124     -0.40271270898938     -0.42414612288026
  Cl  0.37042187997409     -0.50789521086881      2.00021757143445
  H   -0.84904762334927      0.03786936454129     -1.42312419221476
  H   -0.78176855233147     -1.48958010353312     -0.47865833093482
  C   0.50705584298352      1.56619611035644      0.34980986492102
  N   0.67495359343244      2.72872794386469      0.32816686022195
  C   1.68221104442846     -0.44717323561025     -0.36352880448569
  H   1.65662578692657     -1.53808161699770     -0.35638552098283
  H   1.73484309259029     -0.08910657495369     -1.39473100563494
  H   2.57125171756880     -0.11171953266290      0.17034473796971
  N   -2.07986367565593     -0.04082763498095      0.26167999760738
  O   -2.25682250118788      1.14824782085021      0.50484933028806
  O   -2.85470374151595     -0.95992896435270      0.50944958032669
