14
Coordinates from ORCA-job run
  C   0.44831562082055     -0.02981005186212      0.50668967984470
  C   -1.03765047036655      0.26120447887415      0.25809593015011
  Cl  0.60199280575474     -1.63124492043488      1.30070768218738
  H   -1.14435265252248      1.24894756794630     -0.19306220337824
  H   -1.60036566566679      0.18593025090832      1.18650303904006
  C   0.90663274393690      0.99126136558683      1.45249997671910
  N   1.26472044495536      1.84132847674125      2.18043206743462
  C   1.31885800084340     -0.00621151900087     -0.74469823353137
  H   2.36202537376520     -0.14340912336750     -0.45920685209464
  H   1.20849276928623      0.95237802812102     -1.25634302256768
  H   1.02669453145214     -0.80329972939274     -1.42568398227993
  N   -1.63749398782411     -0.71496717530682     -0.69554073286380
  O   -1.36336500401689     -0.56027625168787     -1.88491936886159
  O   -2.35550451041772     -1.59283139712508     -0.22547397979871
