16

C	0.0	0.0	0.0
C	-0.411376	-0.025504	-1.493515
Br	1.957183	0.0	0.0
H	0.339962	0.546188	-2.048205
H	-0.263615	0.985687	0.388832
C	-0.622835	-1.081311	0.848384
H	-1.715574	-0.968095	0.777611
H	-0.333786	-2.074659	0.499179
H	-0.322743	-0.971526	1.892966
C	-1.781139	0.61256	-1.743935
H	-2.597217	0.233459	-1.094941
H	-2.068006	0.475569	-2.791269
H	-1.699773	1.688029	-1.550556
C	-0.324799	-1.39192	-2.018648
N	-0.237201	-2.475068	-2.465158
H	-4.040974	0.0	0.0
