16

C	-0.405295	0.014591	-1.461525
C	0.0	0.0	0.0
Cl	0.181795	1.532988	-2.223409
H	1.091437	0.0	0.0
H	0.201311	-0.770409	-1.913268
C	-1.875529	-0.191952	-1.771375
H	-2.468865	0.624191	-1.365175
H	-2.202366	-1.139315	-1.336698
H	-2.023077	-0.24086	-2.853359
N	-0.380667	-1.240471	0.627834
O	-0.209396	-2.256164	-0.075537
O	-0.73354	-1.267531	1.816474
N	-0.451232	1.136592	0.808213
O	0.183877	1.348546	1.843018
O	-1.387483	1.838295	0.400206
H	2.370404	0.0	0.0
