16

C	-0.34046	0.027743	-1.462204
C	0.0	0.0	0.0
Cl	-2.103742	0.25306	-1.798245
H	1.091699	0.0	0.0
H	0.130144	0.94188	-1.824285
C	0.220454	-1.166646	-2.206958
H	1.259192	-1.293686	-1.885551
H	-0.348769	-2.066319	-1.985244
H	0.196967	-0.98046	-3.282167
N	-0.428625	-1.170812	0.758203
O	0.07607	-1.294428	1.877428
O	-1.183082	-1.999496	0.229695
N	-0.410275	1.235959	0.676106
O	-1.038874	1.192179	1.734989
O	-0.043534	2.272132	0.112927
H	2.445997	0.0	0.0
