16

C	-0.46438	0.242157	-1.431707
C	0.0	0.0	0.0
Cl	-0.230515	-1.296729	-2.353511
H	1.103759	0.0	0.0
H	-1.538844	0.438987	-1.45898
C	0.358077	1.314351	-2.126767
H	0.11673	1.332204	-3.191784
H	0.139574	2.284441	-1.69049
H	1.416074	1.092597	-1.989954
N	-0.533231	-1.283719	0.536681
O	-1.739358	-1.481142	0.374384
O	0.236175	-2.039869	1.116507
N	-0.437359	1.01948	0.927611
O	-0.585951	2.17689	0.494879
O	-0.504328	0.713688	2.12683
H	2.499779	0.0	0.0
