14
Coordinates from ORCA-job run
  C   0.69191890010949      0.00142074633006     -0.11570564369825
  C   -0.65662154947652      0.11621764432917      0.01637119168246
  N   1.47982634561598      0.37027252961893     -1.13547129121764
  H   1.02843795636453      0.64404907257787     -1.99473277143166
  H   2.40355299480407     -0.03510263466821     -1.15390592152107
  N   1.47608369889946     -0.54568493614811      1.02748848583844
  O   1.00934268368129     -0.41778066966864      2.15249614619319
  O   2.55025060822992     -1.06407935044259      0.73469531952042
  N   -1.50464797590161      0.57566350911474     -1.05396540414594
  O   -2.71634245934808      0.48895133807603     -0.88393412662605
  O   -0.95055895852974      1.00931469386130     -2.06989211409450
  N   -1.40579613423898     -0.28391475194896      1.20516747452026
  O   -1.85435878746155      0.63090258514970      1.88645426065139
  O   -1.55108732274827     -1.48922977618128      1.38493439432894
