14
Coordinates from ORCA-job run
  C   0.68698887163961     -0.06784561678363     -0.12953487709839
  C   -0.66518047891164      0.02918260187965     -0.02059442665114
  N   1.46499619958786      0.09759317335863     -1.20842651552667
  H   1.03500356205669      0.48378946691395     -2.03491441698961
  H   2.44810667483578      0.24051871707443     -1.03275779332861
  N   1.47186116029384     -0.47611753161373      1.06951348491051
  O   2.64557485902907     -0.11482359528181      1.08397968040038
  O   0.90292681004620     -1.14584216469435      1.92259282028533
  N   -1.50077226498410      0.47699057209692     -1.10521747866437
  O   -0.96409078054292      0.63478201615813     -2.20727463329338
  O   -2.68335664801579      0.68263620081213     -0.85196659675575
  N   -1.41582669116170     -0.22255148701787      1.20782956544072
  O   -2.07402747181290     -1.25632389855850      1.22750634035686
  O   -1.35220380206000      0.63901154565606      2.07926484691414
