14
Coordinates from ORCA-job run
  C   0.67833242462758     -0.02696764127975      0.18091200780762
  C   -0.65261694774397      0.12164697523170     -0.05519011831445
  N   1.54237063912182      0.83105908522409      0.74171877524437
  H   1.22524842668245      1.77726680989890      0.88772486398227
  H   2.52123843990595      0.64274690005670      0.58567906048196
  N   1.31879816444454     -1.33182186337105     -0.14750557168913
  O   2.52561682588861     -1.28936139119439     -0.37139011102864
  O   0.60902434505042     -2.32985577380818     -0.15421030739166
  N   -1.50920528598918     -0.91026658215246     -0.63512253778080
  O   -2.30166740755623     -1.44014680099225      0.13531029267399
  O   -1.38518237307693     -1.11751724822556     -1.83826276804452
  N   -1.34614480677815      1.36475540836387      0.16897575596527
  O   -0.71984647207324      2.27090517500084      0.72907597333210
  O   -2.50496597250368      1.43755694724751     -0.22671531523836
