14
Coordinates from ORCA-job run
  C   0.68130343331047     -0.05374986362437     -0.16429152286086
  C   -0.66550800943335      0.01947958614451      0.01134123317658
  N   1.40512694816593      0.16734196333477     -1.27056928685817
  H   2.39369612208233      0.31662822154089     -1.13578357729476
  H   0.93117562573287      0.58079124437359     -2.05895624793201
  N   1.52722450606190     -0.49596547654867      0.98017386768897
  O   2.69706835286996     -0.12321042794398      0.95076460981022
  O   1.00626762299404     -1.20102881720117      1.83540364647375
  N   -1.55745225280475      0.49621984765225     -1.01458929573826
  O   -2.73095140722329      0.66659937783959     -0.70018691654404
  O   -1.07447433886449      0.71265395085475     -2.13141029510845
  N   -1.35423338753529     -0.29045717547808      1.26254296063597
  O   -1.26715120109073      0.54225395484489      2.15967922722399
  O   -1.99109201426560     -1.33755638578898      1.27588159732706
