14
Coordinates from ORCA-job run
  C   0.69074263392906     -0.02178588283836     -0.12747381016647
  C   -0.65217172171733      0.13335411051316      0.01931727447541
  N   1.46552390813406      0.24552790786597     -1.18855661997244
  H   1.00026537896614      0.45244565938894     -2.05920729199321
  H   2.37842467015978     -0.18423273374399     -1.19212208543327
  N   1.48573298016250     -0.49084764142078      1.04255800907729
  O   1.04098135112608     -0.26606526990219      2.16125958383241
  O   2.54391131729506     -1.05333256771042      0.77388925709155
  N   -1.51281237999011      0.51896574465215     -1.07021778649318
  O   -0.97161322016927      0.85328044829342     -2.12971535480536
  O   -2.72225239705457      0.47361283611768     -0.87045428467501
  N   -1.38690277843512     -0.15210733891490      1.24986780502681
  O   -1.55960071655784     -1.33520414576266      1.52619642096469
  O   -1.79922902584844      0.82538887346197      1.86365888307079
