14
Coordinates from ORCA-job run
  C   0.69586449620811      0.02870678185492      0.08977366315044
  C   -0.66237805421622      0.06460836104272      0.03383647547634
  N   1.55050344948428      0.94648404497911      0.56334364034437
  H   1.17605720123294      1.85658224032399      0.78412483854162
  H   2.51284590353514      0.84994260670709      0.27612683016220
  N   1.39569502245941     -1.20616700578793     -0.36429863046237
  O   2.55507650222244     -1.05173617201457     -0.73879543229669
  O   0.77911952366435     -2.26301705649255     -0.31195999271091
  N   -1.42274181583782      1.23531260777365      0.39019263508807
  O   -0.80704317874946      2.17878904097354      0.89819604190630
  O   -2.62562897583378      1.21538236423710      0.15060657471926
  N   -1.49715138896068     -1.02503820086873     -0.46706201592882
  O   -1.51500745899111     -1.19165057563723     -1.68269122942164
  O   -2.13521122621760     -1.64019903709111      0.37960660143182
