14
Coordinates from ORCA-job run
  C   0.69868131133775      0.07497210862131     -0.00371266716575
  C   -0.66140153161275      0.07743183896640     -0.01118201783139
  N   1.54526407805362      1.03715179686579      0.38965809506168
  H   1.15299607594101      1.82239339557095      0.88648551346800
  H   2.49694789098234      0.75038066627822      0.56271652391744
  N   1.41438841472137     -1.10836483974624     -0.55941361471590
  O   2.55552633569047     -1.28324880254934     -0.14044620503669
  O   0.82855980708942     -1.79153017069238     -1.39004524549679
  N   -1.43844451502398      1.14679108385297      0.56145602130163
  O   -0.82774434863734      2.15145102460083      0.94217539195166
  O   -2.65066395476119      0.97612922730637      0.64104838802331
  N   -1.48819459182900     -1.02026669216359     -0.50864679006006
  O   -1.56965596666931     -2.01538004342685      0.20475653985071
  O   -2.05625900528240     -0.81891059348443     -1.57584993326788
