14
Coordinates from ORCA-job run
  C   0.56332699914493      0.01834967836838     -0.38127526120672
  C   -0.84027115556211      0.21380883837887      0.06094006781692
  N   1.46709187419976      1.07841442655066     -0.25264753451658
  H   1.19628535282057      1.84828780206639     -0.85059544016848
  H   2.40818337041517      0.77005048374613     -0.46653635219327
  N   1.16863074270485     -1.20915393885873      0.31136088441049
  O   0.37825774532007     -1.98958284219234      0.82892657813015
  O   2.38222315219748     -1.34389070328140      0.22027181693030
  N   -1.43351171109493     -0.23215187713920     -1.03059848258048
  O   -2.43908099008141     -0.49046319550532     -1.57415218993902
  O   0.16433328821480     -0.38905182437520     -1.68535769799359
  N   -1.51042815342214      0.49908187987211      1.29714491443501
  O   -0.76698313356686      0.68113090487290      2.25577186727657
  O   -2.73805738129017      0.54517036749674      1.26674682959870
