14
Coordinates from ORCA-job run
  C   0.70196122759261      0.01617310064416     -0.07757221588644
  C   -0.64866202486728      0.09113341836205      0.09493794830477
  N   1.60475149464110      0.99691813378092     -0.00306244785875
  H   1.29757517791354      1.93413828050374      0.20078132695555
  H   2.57006001628716      0.76699040322294     -0.17577814301846
  N   1.32448387002534     -1.30531717547352     -0.39312145717858
  O   2.53851136928923     -1.29464632505244     -0.57677528580584
  O   0.59233098754575     -2.28572091919364     -0.44307826334859
  N   -1.32121535308520      1.32853480371341      0.39760279357421
  O   -0.62835085655982      2.34598021304642      0.51098022240983
  O   -2.54153317849236      1.28323768830629      0.52042953963918
  N   -1.58366551687416     -1.02909897719857      0.00073585874805
  O   -1.84510824582972     -1.60364395127042      1.05151239695848
  O   -2.06113896758621     -1.24467869339135     -1.10759227349341
