14
Coordinates from ORCA-job run
  C   0.69436651769315     -0.00432424601883      0.10677763804095
  C   -0.63666351583967      0.15151823554255     -0.12456340759076
  N   1.58377972459954      0.88210348540616      0.57612738321122
  H   1.22168160636978      1.74435337359398      0.95380427869342
  H   2.45170814921481      0.50170476993355      0.92246024941505
  N   1.33318493743814     -1.30197550841242     -0.25210105963300
  O   2.35525553008150     -1.58001861661021      0.36950480710853
  O   0.81161519877305     -1.96910507206130     -1.13681551598849
  N   -1.50337014964045     -0.88235965635744     -0.68598996449871
  O   -1.80879289218931     -1.80915628627616      0.05808272417900
  O   -1.88177716437428     -0.69373849062315     -1.83645392053235
  N   -1.35455406065168      1.34414992496631      0.24687635865739
  O   -2.57625760949038      1.31769251519519      0.13977317351945
  O   -0.69017627198422      2.30015557172178      0.66151725541833
