14
Coordinates from ORCA-job run
  C   0.56368649184634      0.01229709523690     -0.38169964983955
  C   -0.84167855420637      0.20882015537808      0.05474610394256
  N   1.45779410473823      1.08420283955614     -0.28626442645848
  H   1.18130265742731      1.83087341045370     -0.91054099424322
  H   2.40177809988643      0.77704126353568     -0.48909156106394
  N   1.17970974013157     -1.18761887097135      0.34861417032665
  O   2.39465719533392     -1.31352727197579      0.26325739411032
  O   0.39602049337011     -1.95903296718419      0.88932544664877
  N   -1.51589492955521      0.52630308913349      1.28072094225263
  O   -2.74392402943062      0.55764010706661      1.24855976307401
  O   -0.77546640111771      0.73893533165683      2.23545130491147
  N   -1.43064015646706     -0.27575659825288     -1.02260631554529
  O   -2.43388113969870     -0.56080099016830     -1.55704028399778
  O   0.16853642774176     -0.43837659346494     -1.67243189411817
