14
Coordinates from ORCA-job run
  C   0.68858127558970      0.00620693092036      0.13667194264899
  C   -0.63218303004765      0.14003171678859     -0.15800353143562
  N   1.55474013465009      0.92383091626299      0.58916722815822
  H   1.17528045322375      1.80512597757615      0.89980380450648
  H   2.40947220049930      0.57019760749639      0.99203705853265
  N   1.34693865756662     -1.30626667608812     -0.11959351568889
  O   0.86434033404356     -2.02737709991562     -0.98374347516029
  O   2.34403893314482     -1.54083993206764      0.55790728142928
  N   -1.47074918063888     -0.92947284516209     -0.69452455346662
  O   -1.79815919914724     -0.81244862723361     -1.86982986702397
  O   -1.80189156556164     -1.81476341958205      0.08821304799398
  N   -1.36924347742991      1.34835633491701      0.11185171641231
  O   -2.58524987819818      1.30808452597385     -0.04427137770306
  O   -0.72591565769436      2.33133459011378      0.49531424079654
