14
Coordinates from ORCA-job run
  C   0.69259596859426      0.01655685703743      0.11037644433412
  C   -0.66250139002504      0.07677240525895      0.01450809165717
  N   1.54987650872695      0.91665035564177      0.61172501965734
  H   2.51899787169375      0.80099556908381      0.35626241920026
  H   1.18734340234142      1.83306335641152      0.82592614029080
  N   1.38249914008905     -1.23123404076048     -0.32425534397132
  O   2.55360004909227     -1.09727843692278     -0.66902819820685
  O   0.74758209698381     -2.27760558112432     -0.28402985622089
  N   -1.41097292977054      1.26122642884093      0.35014296270607
  O   -2.60551864133067      1.26569899522060      0.07108208745640
  O   -0.79379110007663      2.19082228072309      0.88125713660589
  N   -1.50045286110753     -0.99566863406584     -0.51668450573684
  O   -2.18078972000595     -1.59689997901913      0.30685969120038
  O   -1.47846839520514     -1.16309957632554     -1.73214208897254
