14
Coordinates from ORCA-job run
  C   0.66704644434851     -0.18334480487342     -0.12199063005651
  C   -0.65677981941895      0.11008013758859     -0.01817295493817
  N   1.41787733173336     -0.34399645344104     -1.22090225448824
  H   2.41686979669070     -0.29383063851594     -1.08865743770397
  H   1.00898259473038     -0.07617212078480     -2.10308872142101
  N   1.43985765373037     -0.43966643288494      1.12624491710518
  O   0.82553229879204     -0.84698233282867      2.10421677208811
  O   2.64856495267957     -0.23453612747905      1.05336260469546
  N   -1.47151036660900      0.43497765274579     -1.16138018142571
  O   -2.60899852219646      0.83774924187625     -0.94103540624330
  O   -0.96125293931040      0.29866124237567     -2.27862426337711
  N   -1.38319513578198      0.21435231654186      1.24537518033021
  O   -1.17533169686237      1.21859499041692      1.91925720496057
  O   -2.16666259252579     -0.69688667073720      1.48639517047449
