14
Coordinates from ORCA-job run
  C   0.67003766050763     -0.04709976115101     -0.20548317767519
  C   -0.64360620383410      0.14867511595713      0.08651172649187
  N   1.31827236667074      0.13419771206881     -1.36490820463179
  H   2.21796724140983     -0.31508309194966     -1.44675592342940
  H   0.75749008034671      0.29895024354513     -2.18686880181725
  N   1.59002752756897     -0.46028067127765      0.89165770719571
  O   2.59990990605401     -1.06333478167067      0.53840557842940
  O   1.28467552207356     -0.15456064369095      2.03756033571628
  N   -1.62000036894416      0.48558502078059     -0.91810624670970
  O   -1.20201405482791      0.73901696771350     -2.05311150080557
  O   -2.79805203688955      0.48226647486183     -0.57612975209471
  N   -1.23225402329425     -0.03876832247325      1.41075261797577
  O   -1.38988420279490     -1.19679124733934      1.78488963873266
  O   -1.55256941404658      0.98622698462557      2.00158600262193
