14
Coordinates from ORCA-job run
  C   0.69075636336606     -0.01754885975695     -0.12484362621777
  C   -0.66584081589082     -0.01933334991245     -0.02974158590096
  N   1.46713160252833      0.24172190196535     -1.18673211780064
  H   2.43439784237230      0.45112418513997     -0.99020422075929
  H   1.01912226005682      0.63591208133507     -1.99993594456904
  N   1.48886517140687     -0.42025968238077      1.06736322982439
  O   0.96224878083592     -1.16952088935148      1.88028386226879
  O   2.63146271365886      0.02771144711727      1.11610211873433
  N   -1.52000798647816      0.41744192357781     -1.10479050416493
  O   -2.71588847030543      0.53268208566836     -0.85730788484744
  O   -0.98483112047152      0.65729593951678     -2.19258852191573
  N   -1.40696448107832     -0.36462925142021      1.18135387858240
  O   -1.40078279650362      0.46400940950708      2.08649947857851
  O   -2.00066906349729     -1.43660694100584      1.15554183818738
