14
Coordinates from ORCA-job run
  C   0.68702820982573     -0.06146712897166     -0.13101989323241
  C   -0.66605336445698      0.01881487601341     -0.02322178333456
  N   1.46665962885456      0.12145987080164     -1.20644949852026
  H   2.44575361315136      0.28207304312724     -1.02281518108738
  H   1.03412820188171      0.51923836125729     -2.02626957061650
  N   1.47285875230829     -0.47618033291089      1.06538916282556
  O   2.63876518657318     -0.09123484790451      1.09364189541579
  O   0.91273167951895     -1.17331461733575      1.90201779057616
  N   -1.41274915370875     -0.24760013336481      1.20425773632612
  O   -1.34522070443996      0.60302680660089      2.08618851479379
  O   -2.07106148107167     -1.28143567847387      1.21392445009872
  N   -1.50477186485701      0.47320339278262     -1.10330458417347
  O   -2.68936547399659      0.66468238512731     -0.84916701943428
  O   -0.96770322958283      0.64973400325107     -2.20217201963727
