14
Coordinates from ORCA-job run
  C   0.68029565873955     -0.00681210159056      0.17427386695860
  C   -0.65699969783586      0.09967510548822     -0.04736565267585
  N   1.51798542757923      0.86736036207091      0.75045202289198
  H   1.16730196748859      1.79755171042223      0.92118620928886
  H   2.50114924579369      0.72059742803059      0.57747457894527
  N   1.36415853733609     -1.27895632715813     -0.19277811538152
  O   0.69258061525176     -2.30290143237943     -0.21055269385414
  O   2.56586920906692     -1.18629414526033     -0.42861831692113
  N   -1.48067004926859     -0.94895786653928     -0.64489191763249
  O   -1.35965259402752     -1.12284978067579     -1.85365888969453
  O   -2.24728969982876     -1.52482775121455      0.11858147792285
  N   -1.39314530111020      1.31038235474466      0.21399981359194
  O   -2.55764268470410      1.35042599038565     -0.16958344796749
  O   -0.79494063448080      2.22460645367582      0.79148106452765
