14
Coordinates from ORCA-job run
  C   0.68327415502653     -0.00458773604846     -0.15916106893056
  C   -0.66684998286518     -0.02510722506463      0.00256729671484
  N   1.40404176405715      0.29731332026156     -1.24857841969697
  H   2.37751712720398      0.51224678812528     -1.09296152931948
  H   0.91326084484009      0.71095729547874     -2.02662311780358
  N   1.54367965590147     -0.43660210739157      0.97817069659033
  O   2.68043458321749      0.02833621986564      0.98943795223778
  O   1.06812551411402     -1.22437138745018      1.78620324302199
  N   -1.57746398299535      0.43525756484821     -1.01465349162814
  O   -1.09915831136695      0.71414057486557     -2.11954092943527
  O   -2.76041208857527      0.53092015700634     -0.70479009892987
  N   -1.34246314816030     -0.41945343588772      1.23684858294675
  O   -1.93030112519941     -1.49440388942815      1.20250140696762
  O   -1.29368500519827      0.37535386081938      2.17057947726457
