14
Coordinates from ORCA-job run
  C   0.68124053732568     -0.01196047244302      0.17016345572037
  C   -0.65775890899929      0.09953958693755     -0.03930587485977
  N   1.52029897030048      0.84219638030232      0.77317434926924
  H   2.50316450365106      0.70138837794115      0.59375820763361
  H   1.17033850948497      1.76463191659290      0.98243827502818
  N   1.36578221247486     -1.26794098910127     -0.24811377859590
  O   2.56704185245979     -1.16493583838675     -0.48186211325755
  O   0.69527689475196     -2.29114500870679     -0.30497854075534
  N   -1.48253045962022     -0.92637659551209     -0.67378802911683
  O   -1.36803381375789     -1.05181685608868     -1.88909539237257
  O   -2.24392822616196     -1.53359594801185      0.07038137065888
  N   -1.39463398602787      1.29796784359899      0.27137886068546
  O   -2.56121069822546      1.35025877816001     -0.10425449028247
  O   -0.79504738765613      2.19078882471753      0.88010370024470
