14
Coordinates from ORCA-job run
  C   0.66857280594654     -0.06598272816537      0.04781969024846
  C   -0.66736744389384      0.02838719170289     -0.08759096042472
  N   1.59732747685617      0.10957157063417     -0.92620840730216
  H   1.32205698398110      0.64927410938711     -1.73341444452961
  H   2.52943313774579      0.30645916996510     -0.59189240316653
  N   1.28145125888364     -0.51196202811954      1.31878692823384
  O   2.15729961213639      0.22741029054151      1.76034855351423
  O   0.91695146688708     -1.58870561099197      1.76856817734491
  N   -1.65827943702631     -0.10821970789356      0.95620985844147
  O   -2.80828507830767     -0.30983953421319      0.57398704506261
  O   -1.27735575860771      0.01570045312614      2.11482902909571
  N   -1.22033315591980      0.33659666645117     -1.40269332586473
  O   -1.42714577263095     -0.61541849944743     -2.15152634643329
  O   -1.41332609605042      1.52772865702296     -1.64822339422020
