14
Coordinates from ORCA-job run
  C   0.68048477872211     -0.02742019501615      0.17191059964806
  C   -0.65649225954886      0.10714473256551     -0.03686547555442
  N   1.52317769045222      0.78405258065482      0.82690639109737
  H   2.50562933451531      0.64692710287828      0.64238326328086
  H   1.17854346375413      1.69629506977341      1.08445211176135
  N   1.35760371010704     -1.26252859284485     -0.31524300194569
  O   0.67863399073823     -2.27410505481027     -0.43963706771591
  O   2.56169718485255     -1.15688955437083     -0.53257456475888
  N   -1.48755130836028     -0.87496165784133     -0.72985543086209
  O   -2.25141281259278     -1.52134117378428     -0.02212409197008
  O   -1.37573322917822     -0.92759117419185     -1.95073618464009
  N   -1.38553291735948      1.29168273017660      0.33893666530549
  O   -2.55101823312389      1.37279188276170     -0.03499924918828
  O   -0.78102939297808      2.14494330404925      0.99744603554231
