14
Coordinates from ORCA-job run
  C   0.69522646801597      0.01817908053674      0.09860025608086
  C   -0.66081796205579      0.08312390420131      0.01856505447641
  N   1.56612255315531      0.94575027932110      0.52089589126736
  H   1.21152228495213      1.87787681272128      0.67125960577984
  H   2.52910999573716      0.80655007542361      0.25399049895423
  N   1.36983705404382     -1.26176278205973     -0.25841014945105
  O   0.72668571769330     -2.29744786552509     -0.14209953965414
  O   2.53784107707498     -1.16173789050872     -0.62465499393968
  N   -1.51637977843092     -1.01877886516597     -0.41666232054568
  O   -2.17796508138548     -1.55917413630210      0.46225267246027
  O   -1.52495075440196     -1.26825786150465     -1.61810948275177
  N   -1.39657734030039      1.29387253089473      0.28040943156152
  O   -2.59635264311976      1.28547293239669      0.02498082138528
  O   -0.76430159097839      2.25633378557078      0.72898225437653
