14
Coordinates from ORCA-job run
  C   0.69729053164127      0.02166001049286      0.08020814693068
  C   -0.65993957376040      0.08589916972491      0.03439268378107
  N   1.58245604781852      0.96657882697286      0.42975551340603
  H   2.53470339587068      0.81240987440951      0.13341350226804
  H   1.23340787197462      1.90723495960238      0.53390632004187
  N   1.35811646684331     -1.27832473502400     -0.22511419173755
  O   2.51001768084481     -1.20225366228955     -0.64430747042309
  O   0.72150547749516     -2.30399973011562     -0.01874231506684
  N   -1.38619658874479      1.31236383827797      0.24702947430753
  O   -2.59087181506594      1.29604927778684      0.01664204979708
  O   -0.74108781583009      2.29390230977317      0.63103092157735
  N   -1.52741200252396     -1.03526678318479     -0.31887643629844
  O   -1.55714180250563     -1.35800510683834     -1.50251994571976
  O   -2.17684787405757     -1.51724824958820      0.60218174713603
