14
Coordinates from ORCA-job run
  C   0.68638321036032      0.00858784015794      0.14803436314843
  C   -0.66099455619817      0.08251349191949     -0.02057156403651
  N   1.52184388166350      0.89438562465685      0.70877729935810
  H   2.50194452190441      0.77580411154631      0.50065275827468
  H   1.15465871343181      1.81103987068724      0.91394654031986
  N   1.38946796753074     -1.23727492618637     -0.26950581457628
  O   2.57887701982918     -1.10766918743292     -0.54665294107090
  O   0.74494301033757     -2.27851253981864     -0.28353327781780
  N   -1.47835045248579     -0.97544003572265     -0.60974865551823
  O   -2.20247487991670     -1.58558474698668      0.16861522195709
  O   -1.39644867454907     -1.12323182235972     -1.82524187576881
  N   -1.41814174797680      1.26762325993517      0.29277195251075
  O   -2.59661751109455      1.28430863635489     -0.04735453676431
  O   -0.82309050283645      2.18545042324909      0.86781052998393
