14
Coordinates from ORCA-job run
  C   0.70216614802375     -0.01737645949742      0.00365573599585
  C   -0.64522390513746      0.15681463160607     -0.05339436472112
  N   1.66985469955400      0.89456334229350      0.17668446771141
  H   1.38565279134821      1.82273535654134      0.45057012512185
  H   2.57141710479834      0.53793596170641      0.45620400281328
  N   1.25397002384744     -1.38428484968968     -0.21512657030316
  O   0.59059154039733     -2.16675010264049     -0.88408617651624
  O   2.35365051582753     -1.59931056807314      0.28760588793032
  N   -1.60729830992202     -0.91565478217219     -0.29776787634484
  O   -1.81496850315387     -1.69182932079863      0.62965032192573
  O   -2.14725299789553     -0.90634163170142     -1.39807377041655
  N   -1.27558244878513      1.42582790512641      0.20858771521203
  O   -0.53823950157443      2.40744244923015      0.34947815970189
  O   -2.49973715732818      1.43622806806908      0.28701234188955
