14
Coordinates from ORCA-job run
  C   0.69748957868097      0.02441272655682      0.07941426550835
  C   -0.66058299283816      0.07854777391311      0.03529713407206
  N   1.57261495403482      0.96389281860657      0.46534885725932
  H   1.21555872885698      1.89584972730172      0.61096881454542
  H   2.52915978729503      0.82717739618818      0.17493190207488
  N   1.37159109743359     -1.25573730554798     -0.27779301732051
  O   2.52847287587720     -1.15278844619775     -0.67699897955324
  O   0.73948126126603     -2.29406380371023     -0.12910997295818
  N   -1.51910726573943     -1.03526118221951     -0.36173594702675
  O   -1.55714868021726     -1.30210524144877     -1.55890133970876
  O   -2.15393025170478     -1.56731909196641      0.54170073790766
  N   -1.39812480419320      1.28767775652257      0.30021425891208
  O   -0.76111677773962      2.26093615354201      0.71754028214442
  O   -2.60435751101218      1.26678071845966      0.07812300414324
