14
Coordinates from ORCA-job run
  C   0.68050146354373      0.00383105238394      0.17273590921125
  C   -0.65876712864484      0.08999245866528     -0.04660205167561
  N   1.50705614298283      0.89325517917474      0.74114246742362
  H   1.14425568435813      1.81924824793226      0.90900967725712
  H   2.49223344254719      0.75710207470355      0.57114975833668
  N   1.38182919733410     -1.26071185477613     -0.18801295756144
  O   0.72410651473258     -2.29370506296366     -0.20159162649806
  O   2.58234323086155     -1.15324378212172     -0.42361231266392
  N   -1.46858668385513     -0.97277263438094     -0.63787977123181
  O   -1.34666567461089     -1.15124319464221     -1.84589383606510
  O   -2.22665351770798     -1.55501898710765      0.12932882306659
  N   -1.41114521670013      1.29165450232135      0.20991531899270
  O   -2.57683033005363      1.31363472511488     -0.17148333125531
  O   -0.82467712478750      2.21697727569629      0.78179393266328
