14
Coordinates from ORCA-job run
  C   0.68693406737761      0.00553605732918      0.14644217453916
  C   -0.66101118357646      0.08173644991263     -0.01641367055435
  N   1.52250690598585      0.87730179675310      0.72880114907837
  H   2.50199182640218      0.76639098115421      0.51361837620924
  H   1.15392166301226      1.78750720812769      0.95873739336436
  N   1.39081492502349     -1.22716763351900     -0.30701207420906
  O   2.57974918085639     -1.08857165319479     -0.58198456210431
  O   0.74734240169709     -2.26826711432967     -0.35019944916180
  N   -1.47894985776915     -0.96169825485785     -0.63078160481539
  O   -2.19704800285565     -1.59557631171338      0.13396302166474
  O   -1.40341251822104     -1.07454074699819     -1.85039153794141
  N   -1.41949342127232      1.25651823792444      0.33115328337355
  O   -2.59942518170622      1.27951224355284     -0.00342776530629
  O   -0.82392080495403      2.16031873985878      0.92749526586317
