14
Coordinates from ORCA-job run
  C   0.67745474823433     -0.01695426669332      0.18571821270800
  C   -0.65508106555187      0.10709207546047     -0.05546505433480
  N   1.51432224740830      0.83762388216743      0.79106538437190
  H   1.17115894548115      1.76760564562389      0.97684444809497
  H   2.49888688671907      0.68107349779549      0.63579757960707
  N   1.35485555101582     -1.28895145552092     -0.19432075635229
  O   2.56107411058475     -1.20420679543738     -0.40921953332702
  O   0.67222865399646     -2.30419772831399     -0.24982520037282
  N   -1.47936617607280     -0.92058533418315     -0.68782322018245
  O   -1.34050106957139     -1.07219355588092     -1.89751098026959
  O   -2.26480237297256     -1.50252367714818      0.05171216420409
  N   -1.38320454678510      1.31994947886401      0.21780202796388
  O   -0.78505365859450      2.21624912842465      0.82294393873906
  O   -2.53997225389166      1.38101910484193     -0.18571901084998
