14
Coordinates from ORCA-job run
  C   0.69623269004334     -0.04627506586281      0.08188533255977
  C   -0.62834900437016      0.18658069146332     -0.11828319813796
  N   1.66776556813173      0.81448992704728      0.41874462709683
  H   2.51649875856150      0.40645963797487      0.78112236490078
  H   1.38474526368858      1.73694124810649      0.71265182419054
  N   1.22259266563547     -1.41951179852398     -0.15570039304101
  O   0.61813887705806     -2.13272475616907     -0.94686943721259
  O   2.24486832285957     -1.70992652251180      0.45993649597773
  N   -1.59161055149405     -0.83072637988447     -0.53430300503751
  O   -1.92717713874198     -1.65136429131371      0.31412722087106
  O   -2.00281876494488     -0.73627962765332     -1.68503069171287
  N   -1.24151498297395      1.46243495525743      0.14983012965966
  O   -0.49258610163387      2.40490245532241      0.42932525861354
  O   -2.46578560181936      1.51699952674734      0.09356347127204
