14
Coordinates from ORCA-job run
  C   0.70030379223782      0.05488369724657      0.01455150908172
  C   -0.65805073397398      0.09708387146925     -0.03566312677440
  N   1.56641798017875      1.00884895872038      0.38475610441794
  H   1.18688048233477      1.83037805007184      0.82996998363696
  H   2.50166329685170      0.69977306188635      0.60343913255817
  N   1.39303269890121     -1.17733866218095     -0.45770388161723
  O   0.81500728375736     -1.87713535572646     -1.27987649845474
  O   2.50977235269027     -1.37244550188117      0.01467873200250
  N   -1.50196355323611     -1.00000728308552     -0.50407642528512
  O   -1.62875294466808     -1.95871995410523      0.25135401506113
  O   -2.04173969211111     -0.83061936154283     -1.59137658344990
  N   -1.41820943804488      1.21798673504131      0.45631832344782
  O   -2.63676733739286      1.08732527407963      0.50878145224398
  O   -0.78759418752487      2.22198647000684      0.80484726313117
