14
Coordinates from ORCA-job run
  C   0.69512904972334      0.02097570157068      0.09953269458276
  C   -0.66058183757937      0.08453195678139      0.01444398681229
  N   1.56605383681672      0.96075261469529      0.49389672874479
  H   2.52969040124217      0.81138747610868      0.23490148331306
  H   1.21234880577077      1.89774914566352      0.61287845295725
  N   1.36910223579148     -1.27039322583195     -0.21510014590094
  O   2.53737369955071     -1.18294952747695     -0.58359313093060
  O   0.72513900321173     -2.30120626396334     -0.06536767076749
  N   -1.51590422735686     -1.02968509477756     -0.38796553577481
  O   -1.52071494399118     -1.31788427659537     -1.58076382651277
  O   -2.18104603747413     -1.54102802064881      0.50555574829585
  N   -1.39584657795495      1.30363409604629      0.23631039539534
  O   -2.59518510973420      1.28772212802754     -0.02064252199718
  O   -0.76355829801621      2.27939329040059      0.65491334178246
