14
Coordinates from ORCA-job run
  C   0.69696167682288      0.02596724953848      0.08334986450114
  C   -0.64634000247494      0.12220004397629     -0.10533367279055
  N   1.56504019981526      0.95939512116360      0.49864104250884
  H   2.45843323426648      0.62265378246987      0.82490937924866
  H   1.18100372381359      1.81650296555479      0.86621881158526
  N   1.37552523343854     -1.25454777332540     -0.26412236198674
  O   0.85124394286384     -1.96607772850082     -1.11188682217511
  O   2.42886260706064     -1.47444858250065      0.32783318382652
  N   -1.48898676984579     -0.95869584049743     -0.61189961368931
  O   -1.90840574780511     -0.81663458686811     -1.75481708073530
  O   -1.73162791123697     -1.87806040921285      0.16382944383790
  N   -1.39922901846057      1.29517347646116      0.26017771613848
  O   -0.76077356668582      2.28793406527488      0.62623702774517
  O   -2.62170760157201      1.21763821646618      0.19486308198503
