14
Coordinates from ORCA-job run
  C   0.69756933072701      0.03105217334595      0.07551549588871
  C   -0.66086463332185      0.07831156743311      0.03373546119283
  N   1.57074031980011      0.99287654039339      0.40689149865902
  H   2.52696055384735      0.84367960183166      0.12162598311812
  H   1.21090809072731      1.93002821057354      0.50435964344785
  N   1.37477278859660     -1.26434459337166     -0.21429288329344
  O   2.52884010342481     -1.17921739001820     -0.62561918845101
  O   0.74786293797462     -2.29521092251048     -0.00436333500994
  N   -1.51660110543600     -1.05797307647539     -0.30049698843635
  O   -1.55503385683536     -1.39047411125024     -1.48111522031911
  O   -2.14892307911007     -1.54143299584259      0.63155916866358
  N   -1.40152576196624      1.29764537034815      0.23530213399336
  O   -2.60812319301178      1.26140407750734      0.01727108677707
  O   -0.76658249541651      2.29365554803541      0.59862714376930
