14
Coordinates from ORCA-job run
  C   0.68286388100627      0.11032425353987     -0.12239887240118
  C   -0.65944589313103      0.04319952911430      0.08420047617822
  N   1.51290874557416      1.15406402040160      0.01674079244384
  H   1.14787904545018      1.97602039862845      0.47331488873910
  H   2.49588595122512      0.93491346273988      0.07871126929912
  N   1.38458876785599     -1.09722585922008     -0.64208596203520
  O   0.73210608055771     -1.89591886877330     -1.30248485448760
  O   2.58052216039752     -1.17260830527944     -0.37309198181655
  N   -1.47211659767089     -1.14840897940467     -0.14965054172089
  O   -2.21872174434764     -1.10195710434582     -1.12063971072375
  O   -1.36379096285512     -2.05853739251023      0.66628377555345
  N   -1.41366062123841      1.13477265295980      0.64622365592096
  O   -0.82502877898643      2.21012595764309      0.80222183693999
  O   -2.58299003383747      0.91223623450656      0.94265522811050
