14
Coordinates from ORCA-job run
  C   0.69373652526014      0.02431617203128      0.10719424686956
  C   -0.64057561929878      0.12157993903649     -0.13719105395453
  N   1.55702854644857      0.97473067651438      0.49209068751738
  H   1.17068725785662      1.85877330012044      0.78602055556569
  H   2.43544082897238      0.65372249363329      0.87042968908710
  N   1.36811821177279     -1.28344141230908     -0.12794741209563
  O   2.39726682491125     -1.47285362938828      0.51492635770652
  O   0.86606698302110     -2.04527012398707     -0.94486099457047
  N   -1.47749290611289     -0.98369551716547     -0.59905368499804
  O   -1.85343392950138     -0.91802286262619     -1.76370079303611
  O   -1.75937936464943     -1.84404777917414      0.22940433185345
  N   -1.39116412001208      1.32426196414809      0.11878504823361
  O   -2.61109160786658      1.25626915046724      0.00958843541855
  O   -0.75420763080171      2.33267762869902      0.44231458640292
