14
Coordinates from ORCA-job run
  C   0.69683303623904      0.02828459801501      0.07743039540030
  C   -0.66144112807697      0.07980038498886      0.03123213323449
  N   1.57020366208288      0.98500812608587      0.42083997203161
  H   2.52994005456642      0.83318070991278      0.14973325988014
  H   1.21366613234872      1.92186530902292      0.53091252769626
  N   1.37283519301761     -1.26574135017420     -0.22155579997861
  O   0.73947022599608     -2.29682513554508     -0.03309855826443
  O   2.53205336666909     -1.17986606337904     -0.61785864104690
  N   -1.51866546332370     -1.04998969654030     -0.32125350160253
  O   -1.55360310747051     -1.36653505865477     -1.50633151136570
  O   -2.15579169224207     -1.54419315628045      0.60183854054861
  N   -1.39907290655124      1.29858114704279      0.24423955742048
  O   -0.76177164676493      2.28946508672680      0.61768153038694
  O   -2.60565572649042      1.26796509877882      0.02519009565936
