14
Coordinates from ORCA-job run
  C   0.68286155624822     -0.00278559737325      0.16465530340653
  C   -0.65861042457267      0.09311884393749     -0.03678951261677
  N   1.51754682044947      0.86621680340710      0.75228485998957
  H   1.15886253732660      1.78651368572198      0.95619277360019
  H   2.50055168608755      0.73423971148703      0.56721060383761
  N   1.37734153059481     -1.25606069107362     -0.24570908948453
  O   0.71720757455559     -2.28673658211402     -0.28647770096152
  O   2.57564313690798     -1.14304623639159     -0.48974108586069
  N   -1.47799512184829     -0.94881549457829     -0.65207915433695
  O   -2.22609869829518     -1.55520803772275      0.10612583249540
  O   -1.37357119894089     -1.08672321156622     -1.86691443244638
  N   -1.40586334305591      1.28656176452321      0.26801185833359
  O   -2.57588221461746      1.32285457921643     -0.09866058798716
  O   -0.81099384083981      2.19187046252648      0.86289033203110
