18
Coordinates from ORCA-job run
  C   -0.49112058793584      0.35705856695311     -0.11565323394928
  C   0.82383574264861     -0.43871641159820     -0.10946703816771
  F   -0.13096363218607      1.71251737861708     -0.03428619558472
  H   0.61926468118319     -1.48823430035434     -0.32866988449023
  C   -1.38566709849601      0.06094484121762      1.06909880966726
  H   -2.32347144386768      0.60636964322050      0.95048427056680
  H   -1.60195662959958     -1.00603240035160      1.14456719587151
  H   -0.91691082295259      0.38691985954412      1.99810232984578
  C   -1.19512488226004      0.15436686264747     -1.44224733299224
  H   -1.55305297270724     -0.87387637152120     -1.53353060297399
  H   -0.51572676450020      0.37055056042486     -2.26559643948641
  H   -2.05324757299952      0.82704757134787     -1.49627844343028
  N   1.35283687938999     -0.47519142586876      1.32618752794564
  O   1.02728150334654     -1.44174877341406      2.01328921085524
  O   2.03714130051303      0.47502750131589      1.69624502378156
  N   1.74789236674943      0.11381795616653     -1.03028539268141
  H   2.60822039106678     -0.41619316637327     -1.06160487265637
  H   1.94976954260721      1.07337210802635     -0.78135493212114
