18
Coordinates from ORCA-job run
  C   -0.62224585723888     -0.23185838913981     -0.14719064969966
  C   0.89052205753880     -0.52249386101311     -0.16439950188529
  F   -1.24557189916828     -1.48654585363008     -0.10223637991215
  H   1.07984548179635     -1.23101099124614     -0.97232316298394
  C   -1.01921428389817      0.41666369742663     -1.46029172324011
  H   -0.64028869619325      1.43729317820951     -1.53288528182197
  H   -0.64737716410170     -0.16568751766185     -2.30698104634822
  H   -2.10841489715521      0.44942132023186     -1.52291585680998
  C   -1.11052855888739      0.55571857951000      1.05086789750977
  H   -0.61019632478554      1.52299753322752      1.12836282348956
  H   -2.18179340979986      0.73521005964143      0.94014328880390
  H   -0.94442106767480      0.00477830835496      1.97532513838969
  N   1.25095098165387     -1.27202157494121      1.09012235542720
  O   1.44500172462853     -0.58797015590945      2.09327360600539
  O   1.30229585636390     -2.49587865852573      1.02781061597983
  N   1.78482796149908      0.59088821924628     -0.27300938620733
  H   1.56810891073829      1.32218837294249      0.38923295463594
  H   1.80749918468427      0.95530773327672     -1.21390569133263
