18
Coordinates from ORCA-job run
  C   -0.48307350722940      0.42111526762140     -0.42273084055866
  C   0.98472820615847     -0.04225985712359     -0.33797621707138
  F   -0.46485054598903      1.41836439227705     -1.40667333531554
  H   1.33618351832367     -0.21934701793141     -1.35495366685887
  C   -0.97753101158826      1.06028878631343      0.85682676491508
  H   -0.91267795118824      0.36391568225275      1.69485441324169
  H   -0.38998212673613      1.95231892264276      1.07439084194898
  H   -2.01903906774332      1.36060342241594      0.72945705516218
  C   -1.40361138953179     -0.67432891015226     -0.92321916289452
  H   -2.37040530466311     -0.22729003180161     -1.16081445380559
  H   -1.55651256759983     -1.44806785202121     -0.16916411945117
  H   -1.00448271658055     -1.14050209678774     -1.82551047845427
  N   1.00209285692020     -1.42587231882777      0.31197052236061
  O   0.96551293270583     -1.46026135622212      1.54218651519088
  O   1.03145194632948     -2.40375514739023     -0.43110815113876
  N   1.82189064682818      0.88918154761832      0.32798105808546
  H   1.64092091775372      0.89143962181851      1.32357330471557
  H   2.79938516383011      0.68245694529779      0.17090994992830
