18
Coordinates from ORCA-job run
  C   -0.47695524414494      0.36847445053007     -0.13771413268426
  C   0.81599231568132     -0.46021992796701     -0.07271730860052
  F   -0.08598796826331      1.71500437084188     -0.05263704447898
  H   0.59369435822331     -1.50598608972003     -0.29249151735451
  C   -1.42532659539638      0.10551882956132      1.01247638948335
  H   -2.34271230542625      0.67464407649100      0.85271696387243
  H   -1.67312393842451     -0.95471800231168      1.08623196168303
  H   -0.98523921215017      0.42614952491615      1.95720045254627
  C   -1.13195163863217      0.17170345633661     -1.49008746177506
  H   -1.50660154311480     -0.84971921799261     -1.59028134079328
  H   -0.41546390146888      0.36885539182086     -2.28633945016846
  H   -1.97330469340262      0.86112616270478     -1.58275956322911
  N   1.28610404734214     -0.49775535752997      1.38334684019513
  O   0.90807246346096     -1.44929354283806      2.06455488078040
  O   1.97959158952914      0.43794144444930      1.77304787087656
  N   1.78988222837593      0.06101664821534     -0.95975917698837
  H   2.00699565767099      1.01693815307832     -0.70982504299061
  H   2.63633438014024     -0.49168037058624     -0.95396332037400
