12
Coordinates from ORCA-job run
  C   0.53941389683811     -0.23625431580990     -0.48378441879926
  C   -0.69005795065667     -0.05438505400901      0.01624329280553
  H   0.60192629920505     -0.77695636003314     -1.42482001291717
  C   1.79684550311372      0.24209622590968      0.15511789840386
  H   1.61504014111187      0.76491020662466      1.09421684005657
  H   2.46116735614364     -0.60575155585424      0.34555446109007
  H   2.32763461469548      0.91281528883938     -0.52667746550673
  N   -1.87759670777013     -0.56831309154579     -0.71062125564299
  O   -2.96815312890486     -0.30030788646195     -0.21596860157553
  O   -1.68272534143480     -1.20808402571047     -1.73492809250387
  C   -0.97939145139848      0.62932406584565      1.23570866168157
  N   -1.14510323094293      1.20090650220513      2.24995869290796
