12
Coordinates from ORCA-job run
  C   0.51374692397238     -0.21115400398587     -0.52236760654748
  C   -0.68632972701000     -0.06809371308660      0.05559400328783
  H   0.52918813712953     -0.72426620127475     -1.48070335092855
  C   1.79829093367319      0.27559138403917      0.05300507312147
  H   2.48908784915391     -0.56315461505540      0.17899887794028
  H   2.27375782362250      0.97507385467584     -0.64055054431744
  H   1.66386244164405      0.76941366343457      1.01537371540146
  N   -1.90580967769246     -0.58789876832261     -0.61182401740962
  O   -1.76206011703134     -1.19018616485051     -1.66688847617949
  O   -2.96842167801976     -0.36359326465793     -0.04037620955011
  C   -0.91418344673737      0.57473439385279      1.30980447867046
  N   -1.03112946270462      1.11453343523129      2.34793405651119
