12
Coordinates from ORCA-job run
  C   0.48458168789619     -0.58211413416620      0.08805941504987
  C   -0.68883413952981      0.05123534177117     -0.04089337500014
  H   0.43940234732288     -1.66226612149990      0.20249809289205
  C   1.81562770534917      0.08611638368809      0.09159324930860
  H   1.74059839997566      1.16650748807098     -0.03174023425837
  H   2.33538892211847     -0.12824740905586      1.02987868009306
  H   2.43636770773476     -0.31965244664901     -0.71248512221556
  N   -1.95910384751839     -0.71630621225434     -0.03227129838778
  O   -2.98466444201960     -0.06024038286782     -0.18682109982753
  O   -1.88956823166894     -1.92763170869371      0.12336811221731
  C   -0.83928076490366      1.46173684164297     -0.20204041832841
  N   -0.89051534475674      2.62986236001364     -0.32814600154311
