12
Coordinates from ORCA-job run
  C   0.64951011731520      0.30784908749805      0.45597806665855
  C   -0.68168561185562      0.34026957956022      0.27790509661994
  H   1.01388449102926      0.93783225815520      1.26517039155247
  C   1.66253177539972     -0.47727596267682     -0.31088431751996
  H   2.53944041216293     -0.65522178395592      0.31222730227489
  H   1.98097901744622      0.08787949348636     -1.19216095098909
  H   1.27079103900280     -1.42757914962429     -0.66969095662637
  N   -1.36743576605392     -0.46402399564450     -0.75148912761137
  O   -2.50033693555993     -0.84716583945025     -0.47578881387078
  O   -0.75373797709132     -0.69006075539334     -1.79005107438364
  C   -1.56190859458302      1.11247968761607      1.09678019204163
  N   -2.25203196721233      1.77401738042921      1.78100419185373
