12
Coordinates from ORCA-job run
  C   0.66383854161485      0.38701706298089      0.36598324474774
  C   -0.67257653590221      0.39097715061695      0.22926616375494
  H   1.05759417646595      1.18526816658383      0.99225313170819
  C   1.64804045878602     -0.56463842147091     -0.23101926844803
  H   1.76480557767586     -1.43573635910288      0.42090441108537
  H   2.61983045076727     -0.07908635662245     -0.32452300277429
  H   1.33150554256890     -0.93807071246019     -1.20344006118530
  N   -1.39145844111378     -0.59507633688269     -0.59999821975101
  O   -0.90760472567755     -1.71992827036598     -0.68287805708377
  O   -2.41728036642448     -0.20048353848810     -1.14615486133598
  C   -1.51726636309226      1.37535059662565      0.82852764050940
  N   -2.18042831566857      2.19340701858588      1.35107887877273
