12
Coordinates from ORCA-job run
  C   0.48474503937728     -0.58219906327425      0.08843403137866
  C   -0.68377948658603      0.04694356872243     -0.09409340720656
  H   0.44717721093354     -1.66803758730483      0.12332957294816
  C   1.80117973588985      0.09713800332902      0.24175579019541
  H   2.25041922363140     -0.17682474332912      1.20066223128820
  H   2.48767328283446     -0.24409064028353     -0.53836705603488
  H   1.71862731163145      1.18272246825155      0.18897374056677
  N   -1.93932906708112     -0.73129456632287     -0.23712581677766
  O   -1.86060138770026     -1.95078398881071     -0.18289597785493
  O   -2.96321029387328     -0.07454805785431     -0.39976891888567
  C   -0.84215085700100      1.46380647649431     -0.16948758758616
  N   -0.90075071205630      2.63716813038230     -0.22141660203135
