12
Coordinates from ORCA-job run
  C   0.62691832638289      0.28415878570296      0.50166725463267
  C   -0.65403093908273      0.45994751631344      0.13706242987449
  H   0.97793771871191      0.96976380428233      1.27056780185650
  C   1.60178898440132     -0.72140346765188     -0.01698558751024
  H   2.09913590306788     -0.32940102014380     -0.90936203541516
  H   1.12409981409115     -1.65559205911588     -0.30759926277481
  H   2.36457051535077     -0.91966766073322      0.73651723631137
  N   -1.31846937862739     -0.38924233625341     -0.86986078752164
  O   -2.51813025679120     -0.58928337704030     -0.70535088211326
  O   -0.62367682933517     -0.83055225384502     -1.78038480311316
  C   -1.50698110120675      1.44428595141641      0.72450164498215
  N   -2.17316275696270      2.27698611706837      1.21922699079111
