12
Coordinates from ORCA-job run
  C   0.56032295514595     -0.10631054668689     -0.50635032753077
  C   -0.68860580798012      0.05105067771200     -0.04792015522308
  H   0.66657514432261     -0.24558983834623     -1.57940021100150
  C   1.78462579373782     -0.09849868906485      0.34195178050401
  H   1.55900632995965      0.03900688610796      1.39941053586079
  H   2.45494499389203      0.70260146565830      0.01690764261735
  H   2.33010391561334     -1.03805030267812      0.21437884335223
  N   -1.83978037158704      0.02019501078672     -0.98398535287372
  O   -1.59777846371354     -0.08216558521411     -2.17863791901830
  O   -2.95186934756488      0.09823852347703     -0.47066081447472
  C   -1.03305613344273      0.24769722570528      1.32358365734654
  N   -1.24548900838308      0.40982517254291      2.46872232044115
