12
Coordinates from ORCA-job run
  C   0.48586238598878     -0.58030499948945      0.09319704541178
  C   -0.68947061160839      0.04912917062471     -0.03690407377738
  H   0.44402857092548     -1.65960733438127      0.21587991269822
  C   1.81530831321803      0.09107110899846      0.08195195038040
  H   1.73711236326121      1.16975911797304     -0.05423615413022
  H   2.33961599070815     -0.10996735937602      1.02064604179527
  H   2.43335766063615     -0.32302013296269     -0.71988084074068
  N   -1.95793960837158     -0.72114882887803     -0.01780953810358
  O   -1.88602271152322     -1.92827170544511      0.16682508119433
  O   -2.98407308133550     -0.07132132362349     -0.19285921450447
  C   -0.84304927228074      1.45798566051384     -0.20905566236695
  N   -0.89472999961835      2.62469662604600     -0.34675454785671
