12
Coordinates from ORCA-job run
  C   0.50885153267827     -0.41702015625689     -0.38409106975840
  C   -0.69141246356156      0.03885109101777     -0.00230005207630
  H   0.51378199275543     -1.16905592788592     -1.16900211126949
  C   1.80929979287724      0.03390337746741      0.18463767055504
  H   2.36632540890935     -0.82553659706423      0.56839312117034
  H   2.42331334752984      0.47142505714255     -0.60802298138230
  H   1.68699533916163      0.76683201180723      0.98180054692921
  N   -1.92562098405440     -0.46886147088038     -0.64983011240512
  O   -2.97991065157724      0.01531066857869     -0.24938695474950
  O   -1.80245796910716     -1.32178408287507     -1.51771421678710
  C   -0.90275217967512      1.02607435457164      1.00650881919324
  N   -1.00741316593630      1.84986167437720      1.83900734058038
