12
Coordinates from ORCA-job run
  C   0.65666177078212      0.51760853897521      0.04600758345891
  C   -0.66568935059193      0.38711379472458      0.24235337093913
  H   1.04717465205396      1.51153301805580      0.25760685377407
  C   1.64794306846605     -0.49847924708712     -0.41191166788147
  H   2.29968784329610     -0.76259143253460      0.42700009059134
  H   1.18857311041124     -1.41330390356120     -0.77533208346371
  H   2.27867846185124     -0.06483171060032     -1.19212166402577
  N   -1.40601080236786     -0.86562093420519     -0.00898395230501
  O   -0.82375813228807     -1.92603221698183      0.19928671091159
  O   -2.55318088693868     -0.73581718034020     -0.42680465648074
  C   -1.50114505838151      1.47285236575044      0.65086165484987
  N   -2.16993467629268      2.37756890780443      0.99103775963180
