12
Coordinates from ORCA-job run
  C   0.63846856135980      0.50408539215003      0.24851531219871
  C   -0.69516128698359      0.34389527126944      0.23601981737020
  H   0.98157242693337      1.40118358364615      0.76026810626645
  C   1.67913665103540     -0.38784844187892     -0.34429090822677
  H   1.38984057213891     -1.43709131835537     -0.33025659186433
  H   2.62266186608365     -0.25921380292796      0.18744990261825
  H   1.84206880533989     -0.11788923798913     -1.39230185413071
  N   -1.35183724471848     -0.82156322456233     -0.38466087548037
  O   -0.80592677693560     -1.31682871609664     -1.36635378297057
  O   -2.39385800760141     -1.20281850211285      0.13979115736194
  C   -1.59712511793417      1.25646504723789      0.86468448105603
  N   -2.30884044871777      2.03662394961967      1.38113523580116
