12
Coordinates from ORCA-job run
  C   0.64977494233865      0.27127516076438      0.47953681172048
  C   -0.67651970428790      0.34841562699516      0.28145233917831
  H   1.01775708501155      0.85835867500654      1.31885081658160
  C   1.65295208248699     -0.51004091788466     -0.30332465619176
  H   1.99713244481471      0.08050571277638     -1.15803349033328
  H   2.51751563942188     -0.73356230187650      0.32225123000275
  H   1.24309236533783     -1.43564049637043     -0.70455907780276
  N   -1.36486424526709     -0.39706202096620     -0.79005691632057
  O   -0.74240341823836     -0.58833515364022     -1.83048714373420
  O   -2.50802149552745     -0.76915608432067     -0.54546672421950
  C   -1.55040320016382      1.11148288440284      1.11529993506316
  N   -2.23501249592701      1.76275891511338      1.81453687605578
