12
Coordinates from ORCA-job run
  C   0.52789401024871     -0.53659023913038     -0.12182676981880
  C   -0.69002471149684      0.01719957327313     -0.05284879739408
  H   0.56793626540177     -1.57611773273711     -0.43742289622098
  C   1.80091845069548      0.16592929720609      0.20127835118431
  H   2.32156691986167     -0.36354753863093      1.00459873077207
  H   1.64145903037182      1.20046885552213      0.50547370433574
  H   2.46423355883213      0.15128437620355     -0.66841254616980
  N   -1.89497322400456     -0.77799955196881     -0.39611780014290
  O   -2.96920806100980     -0.19126062895593     -0.30806733226581
  O   -1.72943393376683     -1.94136948529669     -0.73566731625938
  C   -0.94934471714589      1.36530832699132      0.33889754773981
  N   -1.09102358798766      2.48469474752362      0.67011512423981
