12
Coordinates from ORCA-job run
  C   0.61730885869244      0.26431815002723      0.52360247813832
  C   -0.69615140737409      0.33278216575352      0.25041859724739
  H   0.92927260580605      0.83085520946740      1.39899823704023
  C   1.67415915290572     -0.48435968358457     -0.22019407511383
  H   2.50320103611526     -0.71700805996980      0.44876512808101
  H   1.29965781305337     -1.40233389401909     -0.66973237070740
  H   2.06064783365508      0.13549472529721     -1.03511627182148
  N   -1.31275254401099     -0.38862211842903     -0.87895994301473
  O   -0.62689212350774     -0.55220487937443     -1.88375068718631
  O   -2.46690560123758     -0.77186146995826     -0.71374138677774
  C   -1.62531401457214      1.06387929906714      1.05294153985472
  N   -2.35723160952539      1.68906055572270      1.72776875425983
