12
Coordinates from ORCA-job run
  C   0.65136562383293      0.34797079059879      0.42534059493205
  C   -0.67170945053505      0.40726573018058      0.20144874440507
  H   1.02990739081956      1.10647228013393      1.10719885557884
  C   1.63863543277433     -0.61655440825781     -0.14551301641448
  H   1.38157625344767     -0.92872138726192     -1.15671176114708
  H   2.63418290398051     -0.17205318655268     -0.14457889717655
  H   1.66969282933475     -1.52202578879159      0.46767690754854
  N   -1.36615999678557     -0.51628088769273     -0.71682741755090
  O   -0.92164051498064     -1.65609165420791     -0.81114076866084
  O   -2.33347298135107     -0.05797300050774     -1.31709395072213
  C   -1.52176826296663      1.39528471716604      0.78678051957151
  N   -2.19160922757081      2.21270679519305      1.30142018963598
