12
Coordinates from ORCA-job run
  C   0.67344329661208      0.35556405517293      0.39012558664199
  C   -0.65853584488355      0.41563318770025      0.22918124817504
  H   1.08892735915378      1.12158213253702      1.04153272449125
  C   1.62497154862009     -0.62555335268997     -0.21232449695445
  H   1.31547014533513     -0.95251641847376     -1.20399399550112
  H   1.68155710135227     -1.52121188462965      0.41353143425340
  H   2.62148142509114     -0.18681315663176     -0.26951597779365
  N   -1.39362980660514     -0.52271953288263     -0.64072973120078
  O   -2.36644687609229     -0.06508254770634     -1.23282472912679
  O   -0.97167645984034     -1.67314614789167     -0.70992176985182
  C   -1.48101869080883      1.41443678525822      0.83450034588156
  N   -2.13354319793434      2.23882688023735      1.36043936098537
