18

C	0.072314	0.008072	-1.537353
C	0.0	0.0	0.0
Cl	-1.554504	-0.008274	-2.379621
H	1.103174	0.0	0.0
N	0.767845	1.224868	-1.923739
H	1.647772	1.146109	-1.392883
H	1.003638	1.160067	-2.909078
N	0.765825	-1.227224	-1.896781
H	1.663065	-1.121559	-1.397208
H	0.964061	-1.206777	-2.893062
N	-0.558276	-1.207418	0.58239
H	-0.042575	-1.992776	0.201744
H	-1.512246	-1.306163	0.238551
C	-0.632347	1.231904	0.600978
H	-1.718856	1.229776	0.438659
H	-0.224541	2.141167	0.161701
H	-0.449446	1.231641	1.678734
F	2.752705	0.0	0.0
