18

C	-0.231337	-0.076866	-1.523935
C	0.0	0.0	0.0
Cl	-0.14653	1.602684	-2.241787
H	1.098618	0.0	0.0
N	0.865679	-0.814738	-2.13799
H	1.720377	-0.494977	-1.651878
H	0.734123	-1.771602	-1.812338
N	-1.527999	-0.614455	-1.856999
H	-1.594728	-1.464784	-1.30317
H	-1.506045	-0.870645	-2.840268
N	-0.374346	-1.33799	0.525778
H	-1.125201	-1.246359	1.199778
H	0.438079	-1.684046	1.021776
C	-0.672701	1.122212	0.756374
H	-1.763222	1.089613	0.62627
H	-0.318189	2.096635	0.42244
H	-0.439202	1.027615	1.823298
F	2.726788	0.0	0.0
