18

C	0.046736	-0.035102	-1.524533
C	0.0	0.0	0.0
Cl	-1.617024	-0.062899	-2.305718
H	1.110344	0.0	0.0
N	0.763314	1.106482	-2.076695
H	1.652222	1.080971	-1.557843
H	0.282746	1.964317	-1.829028
N	0.747537	-1.24657	-1.883414
H	1.621984	-1.163574	-1.345687
H	0.989725	-1.157464	-2.86598
N	-0.603896	-1.210717	0.576983
H	-0.553404	-1.92795	-0.140622
H	0.026238	-1.52071	1.312441
C	-0.622857	1.235667	0.606799
H	-0.117102	2.152995	0.292943
H	-1.688529	1.293837	0.354428
H	-0.539025	1.174793	1.697524
F	2.754066	0.0	0.0
