18

C	-0.159391	0.082041	-1.531396
C	0.0	0.0	0.0
Cl	-0.015965	-1.734984	-2.191917
H	1.101915	0.0	0.0
N	-1.411954	0.507408	-2.111318
H	-2.147784	-0.036036	-1.670163
H	-1.529283	1.480143	-1.845586
N	0.907398	0.857597	-1.986087
H	1.005541	0.815137	-2.989947
H	1.774432	0.604252	-1.468593
N	-0.727375	-1.116697	0.604793
H	-0.257662	-1.971459	0.327657
H	-0.591917	-1.037707	1.608347
C	-0.484478	1.296959	0.627528
H	-0.182729	1.323254	1.680457
H	-0.019992	2.151161	0.131775
H	-1.577621	1.383246	0.585007
F	2.767094	0.0	0.0
