16

C	-0.437863	-0.028599	-1.453263
C	0.0	0.0	0.0
Cl	-2.214241	0.042457	-1.645599
H	1.099968	0.0	0.0
H	-0.103402	-0.953679	-1.912099
N	0.150167	1.071568	-2.296094
O	0.837082	0.709972	-3.24804
O	-0.099932	2.233333	-1.991452
N	-0.405151	-1.298642	0.551996
H	-1.224861	-1.189351	1.136442
H	0.353305	-1.639583	1.129692
C	-0.482792	1.185627	0.819647
H	-1.574833	1.196651	0.899465
H	-0.155201	2.133213	0.395108
H	-0.056147	1.093574	1.821619
Br	3.521555	0.0	0.0
