16

C	-0.569885	-0.005365	-1.403569
C	0.0	0.0	0.0
Cl	0.135442	1.230939	-2.457577
H	1.096722	0.0	0.0
H	-1.650653	0.133171	-1.38917
N	-0.379307	-1.33538	-2.086345
O	0.632886	-1.976019	-1.832768
O	-1.264509	-1.667818	-2.874777
N	-0.550448	-1.203626	0.645043
H	0.14713	-1.934876	0.558869
H	-0.654813	-1.019429	1.63584
C	-0.482234	1.242798	0.731405
H	-0.167674	2.152938	0.220484
H	-1.574797	1.238435	0.825678
H	-0.040829	1.259565	1.7311
Br	3.607743	0.0	0.0
