16

C	-0.403355	-0.059279	-1.479917
C	0.0	0.0	0.0
Cl	-2.151035	-0.311357	-1.72404
H	1.095271	0.0	0.0
H	0.116696	-0.87231	-1.980564
N	0.015416	1.184079	-2.223878
O	1.120087	1.119855	-2.75277
O	-0.72716	2.160825	-2.209835
N	-0.387744	-1.212735	0.708978
H	0.224821	-1.97393	0.442562
H	-1.347764	-1.467955	0.507957
C	-0.528809	1.227915	0.717751
H	-1.622491	1.266439	0.702288
H	-0.193235	1.165113	1.75299
H	-0.142516	2.149868	0.282754
Br	3.602871	0.0	0.0
