16

C	-0.585119	0.002777	-1.396404
C	0.0	0.0	0.0
Cl	0.150433	1.210532	-2.46397
H	1.096727	0.0	0.0
H	-1.659923	0.180697	-1.370835
N	-0.452593	-1.335871	-2.078646
O	-1.364119	-1.638339	-2.848403
O	0.541957	-2.009838	-1.842229
N	-0.560354	-1.191935	0.658847
H	-0.606874	-1.010539	1.654628
H	0.108953	-1.944648	0.535901
C	-0.465862	1.250902	0.730509
H	-1.555553	1.247663	0.849711
H	-0.161865	2.155421	0.203264
H	-0.000579	1.278022	1.71899
Br	3.6337	0.0	0.0
