16

C	-0.413806	0.029823	-1.461642
C	0.0	0.0	0.0
Cl	0.272466	-1.312804	-2.378291
H	1.102072	0.0	0.0
H	-0.090754	0.956705	-1.931851
N	-1.921168	0.016577	-1.586012
O	-2.515175	-1.045091	-1.713888
O	-2.447555	1.127543	-1.489887
N	-0.56165	-1.192029	0.64433
H	-0.246577	-1.17292	1.608892
H	-0.118391	-2.008059	0.233108
C	-0.460899	1.242831	0.745556
H	-1.544277	1.252995	0.879846
H	0.021334	1.250163	1.726859
H	-0.153298	2.152234	0.225628
Br	3.587049	0.0	0.0
