16

C	-0.396443	-0.050151	-1.479089
C	0.0	0.0	0.0
Cl	-2.152891	-0.280371	-1.727741
H	1.095224	0.0	0.0
H	0.112404	-0.871973	-1.978332
N	0.023771	1.185639	-2.231887
O	1.064258	1.079516	-2.875662
O	-0.662248	2.198556	-2.125416
N	-0.375131	-1.233519	0.684266
H	0.300634	-1.955133	0.466551
H	-1.299389	-1.546509	0.416567
C	-0.537816	1.208411	0.742276
H	-0.200469	1.126252	1.77569
H	-1.631461	1.235525	0.730447
H	-0.161691	2.14286	0.326082
Br	3.546023	0.0	0.0
