16

C	-0.350389	-0.009336	-1.496449
C	0.0	0.0	0.0
Cl	-0.037359	-1.562167	-2.274212
H	1.096223	0.0	0.0
H	0.211689	0.75384	-2.030114
N	-1.797125	0.345767	-1.688082
O	-2.036033	1.462703	-2.145385
O	-2.644062	-0.454945	-1.296872
N	-0.470987	-1.129013	0.774449
H	-1.423453	-1.366234	0.520423
H	0.121251	-1.929601	0.591237
C	-0.476517	1.308199	0.618621
H	-0.153813	2.174003	0.034521
H	-1.567451	1.334751	0.715975
H	-0.040396	1.379472	1.614781
Br	3.551303	0.0	0.0
