19

C	-0.406236	0.004039	-1.485857
C	0.0	0.0	0.0
Cl	-0.516334	1.69715	-2.072284
H	1.095809	0.0	0.0
C	0.564944	-0.728327	-2.381046
H	0.565598	-1.786999	-2.131531
H	1.561469	-0.325745	-2.188192
H	0.289963	-0.596514	-3.426039
N	-1.83103	-0.52775	-1.666111
O	-2.090362	-1.107271	-2.71332
O	-2.631487	-0.290704	-0.766922
N	-0.373677	-1.324275	0.611416
O	-0.400517	-1.398923	1.836074
O	-0.581071	-2.274949	-0.144611
C	-0.466209	1.139334	0.884994
H	-1.548965	1.256557	0.863896
H	0.015786	2.059789	0.561343
H	-0.13589	0.932908	1.900777
Br	3.440913	0.0	0.0
