19

C	-0.408273	-0.029047	-1.481881
C	0.0	0.0	0.0
Cl	0.101593	1.496603	-2.229778
H	1.091043	0.0	0.0
C	0.204822	-1.166748	-2.268322
H	1.287237	-1.106321	-2.135343
H	-0.146087	-2.127668	-1.904836
H	-0.052172	-1.05909	-3.323839
N	-1.940164	-0.096378	-1.548145
O	-2.418064	-1.229146	-1.574098
O	-2.58571	0.94403	-1.499054
N	-0.446388	-1.289703	0.633121
O	0.224493	-2.295013	0.415084
O	-1.463304	-1.262915	1.330298
C	-0.510549	1.169377	0.8154
H	-1.596655	1.239212	0.822214
H	-0.084228	2.089708	0.421185
H	-0.158191	1.049538	1.840254
Br	3.439645	0.0	0.0
