19

C	-0.369883	-0.13754	-1.483958
C	0.0	0.0	0.0
Cl	0.168707	1.32677	-2.334091
H	1.092085	0.0	0.0
C	0.301307	-1.3393	-2.107561
H	0.102669	-1.368825	-3.179382
H	-0.059425	-2.262794	-1.657866
H	1.374025	-1.242305	-1.921502
N	-1.891	-0.20633	-1.661903
O	-2.361282	-1.280052	-2.026386
O	-2.53795	0.80027	-1.400607
N	-0.4623	-1.257201	0.678723
O	-1.66858	-1.335016	0.932612
O	0.36714	-2.126472	0.931002
C	-0.528623	1.192856	0.767161
H	-0.11151	1.151031	1.776287
H	-0.172788	2.109336	0.298413
H	-1.614977	1.204317	0.82022
Br	3.484863	0.0	0.0
