19

C	-0.399178	0.036326	-1.464009
C	0.0	0.0	0.0
Br	-2.369567	0.313343	-1.700153
H	1.095525	0.0	0.0
C	0.337944	1.125854	-2.197645
H	0.024113	2.077397	-1.773731
H	1.406503	0.982263	-2.000301
H	0.134929	1.097078	-3.269138
N	-0.100143	-1.313172	-2.10688
O	-0.838403	-2.261409	-1.851036
O	0.906514	-1.377266	-2.809059
C	-0.487467	-1.183852	0.81498
H	-0.090038	-2.131056	0.449227
H	-0.120215	-1.046841	1.836417
H	-1.581106	-1.247798	0.831775
N	-0.347661	1.295951	0.58532
H	-1.168685	1.208126	1.173074
H	0.440148	1.576727	1.161954
H	2.791297	0.0	0.0
