19

C	-0.403879	0.051419	-1.463083
C	0.0	0.0	0.0
Br	-2.375648	0.326134	-1.688214
H	1.095557	0.0	0.0
C	0.329885	1.150125	-2.186982
H	0.121586	1.134619	-3.257764
H	1.399691	1.004921	-1.996929
H	0.017418	2.096428	-1.750219
N	-0.104	-1.289726	-2.123309
O	-0.835148	-2.243862	-1.869631
O	0.894217	-1.341676	-2.83694
C	-0.486459	-1.190095	0.806049
H	-0.112557	-1.063431	1.826357
H	-1.580189	-1.25079	0.828761
H	-0.094231	-2.135152	0.429295
N	-0.345829	1.291232	0.597872
H	-1.159144	1.197546	1.194482
H	0.448048	1.571877	1.166287
H	2.792313	0.0	0.0
