19

C	-0.535174	0.011693	-1.429916
C	0.0	0.0	0.0
Br	0.379596	-1.352869	-2.514313
H	1.094842	0.0	0.0
C	-2.026488	-0.181454	-1.573005
H	-2.32666	-0.096721	-2.615543
H	-2.300889	-1.168669	-1.201159
H	-2.524196	0.589309	-0.979886
N	-0.156903	1.336279	-2.09798
O	0.799259	1.95132	-1.646467
O	-0.824771	1.684003	-3.073216
C	-0.455938	-1.230531	0.764393
H	0.111448	-1.268083	1.69915
H	-0.238999	-2.148788	0.216039
H	-1.526779	-1.19792	0.999787
N	-0.509381	1.225747	0.646926
H	-0.774385	1.002356	1.59913
H	0.279522	1.863549	0.701734
H	2.915525	0.0	0.0
