19

C	-0.332846	0.053646	-1.479102
C	0.0	0.0	0.0
Br	-2.314733	0.308731	-1.815293
H	1.096084	0.0	0.0
C	0.418617	1.155164	-2.182309
H	0.036488	2.119655	-1.850039
H	1.472359	1.05708	-1.891757
H	0.309308	1.083395	-3.265062
N	0.019763	-1.281917	-2.116061
O	-0.752668	-2.227555	-1.977679
O	1.118572	-1.339789	-2.666339
C	-0.514723	-1.206563	0.759058
H	-0.188158	-1.08694	1.79361
H	-0.100821	-2.140267	0.375443
H	-1.607468	-1.271656	0.737151
N	-0.352765	1.235471	0.690862
H	0.394585	1.909381	0.548711
H	-1.229448	1.618954	0.3488
H	2.767957	0.0	0.0
