19

C	-0.56643	0.014489	-1.415966
C	0.0	0.0	0.0
Br	0.320607	-1.344935	-2.528719
H	1.094834	0.0	0.0
C	-2.061836	-0.178908	-1.51682
H	-2.325673	-1.166387	-1.138146
H	-2.393717	-0.091825	-2.54951
H	-2.540705	0.590859	-0.907005
N	-0.208435	1.341338	-2.09
O	0.757439	1.957348	-1.661445
O	-0.902066	1.689732	-3.046747
C	-0.436926	-1.235034	0.770793
H	0.157908	-1.276692	1.687892
H	-1.500443	-1.204078	1.03683
H	-0.235881	-2.151117	0.212628
N	-0.50094	1.222563	0.660275
H	0.291157	1.855869	0.717145
H	-0.763764	0.992651	1.611403
H	2.908005	0.0	0.0
