19

C	-0.40556	0.068665	-1.458613
C	0.0	0.0	0.0
Br	-2.393994	0.214392	-1.695727
H	1.096923	0.0	0.0
C	0.248125	1.234446	-2.153463
H	0.050085	1.219647	-3.226267
H	-0.134874	2.149199	-1.705539
H	1.324394	1.160435	-1.959128
N	-0.004564	-1.230899	-2.14882
O	1.020982	-1.19693	-2.825061
O	-0.67943	-2.237289	-1.94634
C	-0.47434	-1.204751	0.790107
H	-0.122492	-2.146295	0.366995
H	-0.051729	-1.114629	1.795915
H	-1.567942	-1.239981	0.860087
N	-0.348065	1.276693	0.626031
H	0.443153	1.53955	1.21116
H	-1.1688	1.16836	1.213424
H	2.778776	0.0	0.0
