18

C	0.0	0.0	0.0
C	-0.497634	-0.057643	-1.455775
Cl	1.771636	0.0	0.0
H	-1.527283	-0.403412	-1.315931
N	-0.584287	0.965883	0.841522
H	-0.328839	1.885431	0.49938
H	-1.624057	0.761913	0.65568
N	-0.343576	-1.376946	0.66588
O	-0.823649	-2.263652	-0.02623
O	-0.073256	-1.481253	1.854947
N	0.288012	-0.98887	-2.261701
H	-0.338681	-1.549468	-2.821739
H	0.911439	-0.481653	-2.877596
C	-0.571853	1.349074	-2.039249
H	-0.835658	1.283498	-3.099601
H	0.383174	1.883089	-1.9553
H	-1.357928	1.911961	-1.53681
F	-2.812121	0.0	0.0
