18

C	0.0	0.0	0.0
C	-0.473553	-0.034923	-1.513355
Cl	1.780506	0.0	0.0
H	0.434565	0.02035	-2.121067
N	-0.542867	1.00687	0.819378
H	-1.559733	0.754504	0.803184
H	-0.472576	1.854439	0.262061
N	-0.312761	-1.356297	0.703311
O	0.17398	-2.36391	0.196471
O	-0.981817	-1.338256	1.724022
N	-1.233204	1.20234	-1.723007
H	-1.426589	1.269273	-2.717053
H	-2.120463	1.000597	-1.22832
C	-1.270143	-1.271344	-1.943512
H	-1.592808	-1.102905	-2.978226
H	-0.686471	-2.191091	-1.912453
H	-2.151804	-1.325558	-1.301399
F	-2.88875	0.0	0.0
