18

C	0.0	0.0	0.0
C	-0.50997	-0.191604	-1.437338
Cl	1.813475	0.0	0.0
H	-1.54732	-0.50408	-1.263197
N	-0.606302	1.069802	0.625757
H	-1.654988	0.817532	0.474001
H	-0.379001	1.049295	1.613212
N	-0.277267	-1.338556	0.819936
O	-0.371645	-1.212878	2.035401
O	-0.34708	-2.411905	0.228137
N	0.306017	-1.128873	-2.224686
H	0.21501	-2.044029	-1.798982
H	-0.138084	-1.187688	-3.135393
C	-0.523447	1.1526	-2.150466
H	-1.241703	1.816333	-1.673871
H	0.469752	1.61058	-2.140426
H	-0.825833	1.00307	-3.193291
F	-2.837468	0.0	0.0
