18

C	0.0	0.0	0.0
C	-0.507863	-0.091587	-1.448303
Cl	1.81085	0.0	0.0
H	-1.550885	-0.395672	-1.296684
N	-0.596373	1.042767	0.686692
H	-1.642358	0.80297	0.52775
H	-0.369394	0.961139	1.671514
N	-0.295333	-1.374921	0.736904
O	-0.378691	-2.409962	0.082536
O	-0.394281	-1.318617	1.956877
N	0.290674	-0.994167	-2.291613
H	0.189343	-1.929289	-1.915864
H	-0.160895	-0.996282	-3.200458
C	-0.493176	1.294697	-2.074343
H	-0.790226	1.216909	-3.126815
H	-1.2022	1.939816	-1.560852
H	0.506661	1.734134	-2.029759
F	-2.83045	0.0	0.0
