18

C	0.0	0.0	0.0
C	-0.489155	-0.260709	-1.461616
Cl	1.772177	0.0	0.0
H	-1.521386	-0.580293	-1.291529
N	-0.564	1.095897	0.677205
H	-1.603932	0.86831	0.539706
H	-0.317184	1.937449	0.170909
N	-0.353288	-1.248446	0.864606
O	-0.493684	-2.320992	0.281201
O	-0.391578	-1.105909	2.076561
N	0.226004	-1.245436	-2.264991
H	1.202685	-0.98191	-2.335503
H	0.186207	-2.128115	-1.772901
C	-0.541351	1.061758	-2.212103
H	-0.758409	0.844615	-3.260366
H	0.406672	1.611468	-2.166184
H	-1.345898	1.675556	-1.810553
F	-2.77486	0.0	0.0
