18

C	0.0	0.0	0.0
C	-0.47357	-0.059288	-1.511004
Cl	1.785994	0.0	0.0
H	0.431855	0.005521	-2.120026
N	-0.54417	1.019703	0.80286
H	-0.488802	1.853863	0.223554
H	-1.558935	0.761125	0.800147
N	-0.311211	-1.346601	0.72436
O	-1.019453	-1.318319	1.71871
O	0.209241	-2.357327	0.257543
N	-1.259252	1.15749	-1.735831
H	-1.469818	1.197183	-2.727622
H	-2.136802	0.948694	-1.222128
C	-1.241434	-1.320475	-1.91702
H	-0.634567	-2.22446	-1.876169
H	-1.580486	-1.178442	-2.950152
H	-2.116068	-1.387543	-1.268221
F	-2.89883	0.0	0.0
