16

C	-0.506232	-0.048394	-1.431985
C	0.0	0.0	0.0
F	-1.869648	-0.133532	-1.468601
H	1.099451	0.0	0.0
N	-0.125817	1.241738	-2.173513
O	-0.996841	2.096826	-2.25284
O	1.023489	1.29319	-2.585287
C	0.043096	-1.173939	-2.196113
N	0.373441	-2.109397	-2.824843
C	-0.442203	-1.254097	0.763109
H	-0.050293	-1.194849	1.779091
H	-1.528978	-1.349553	0.799277
H	-0.007235	-2.138504	0.293139
C	-0.500981	1.207085	0.650087
N	-0.901342	2.158412	1.211488
Cl	3.213761	0.0	0.0
