16

C	-0.38476	-0.175709	-1.463516
C	0.0	0.0	0.0
F	0.245541	-1.253383	-1.976517
H	1.10787	0.0	0.0
N	-1.895547	-0.47245	-1.552919
O	-2.228088	-1.629559	-1.767338
O	-2.631405	0.481321	-1.332998
C	-0.139476	1.000027	-2.304905
N	0.035718	1.920091	-3.014044
C	-0.466419	-1.183954	0.848702
H	-1.552237	-1.202535	0.976429
H	-0.1359	-2.115413	0.388615
H	0.0045	-1.105651	1.829261
C	-0.481314	1.267746	0.531021
N	-0.865602	2.267784	1.013312
Cl	3.201901	0.0	0.0
