16

C	-0.385428	-0.282056	-1.446987
C	0.0	0.0	0.0
F	0.173326	-1.444289	-1.849339
H	1.097535	0.0	0.0
N	-1.911163	-0.480139	-1.53438
O	-2.321237	-1.632302	-1.541291
O	-2.582237	0.544736	-1.520176
C	-0.041751	0.789324	-2.387313
N	0.223122	1.614026	-3.180703
C	-0.468655	-1.110639	0.942285
H	-0.14454	-2.076969	0.555518
H	0.010454	-0.955604	1.909818
H	-1.553109	-1.115914	1.077524
C	-0.483185	1.306514	0.426408
N	-0.889804	2.340601	0.808622
Cl	3.200299	0.0	0.0
