20

C	0.0	0.0	0.0
C	-0.296166	-0.067754	-1.532168
Cl	1.871442	0.0	0.0
H	0.508907	-0.681824	-1.946775
C	-0.486593	1.250588	0.70334
H	-0.201449	1.206315	1.75989
H	-0.083509	2.167866	0.273773
H	-1.583445	1.238498	0.63105
N	-0.449019	-1.216515	0.63028
H	-0.233043	-1.157181	1.62196
H	-1.473987	-1.188412	0.558178
C	-0.214695	1.311851	-2.183413
H	-1.07783	1.917963	-1.899389
H	0.702456	1.843723	-1.917079
H	-0.233426	1.200213	-3.272289
C	-1.609394	-0.753711	-1.900019
H	-1.770172	-0.649186	-2.980366
H	-1.557535	-1.822005	-1.672405
H	-2.473946	-0.346438	-1.355685
H	-3.70618	0.0	0.0
