20

C	0.0	0.0	0.0
C	-0.308819	0.081499	-1.535741
Cl	1.813686	0.0	0.0
H	0.507295	0.677148	-1.957589
C	-0.439838	1.258367	0.733369
H	-0.084184	1.225982	1.768593
H	-0.04996	2.164351	0.26124
H	-1.535785	1.267554	0.729584
N	-0.538652	-1.204045	0.574149
H	-0.394982	-1.166758	1.580057
H	-1.558267	-1.127088	0.431436
C	-1.610235	0.787754	-1.909885
H	-1.551939	1.861275	-1.702363
H	-1.776582	0.66768	-2.987988
H	-2.476874	0.398165	-1.354958
C	-0.237516	-1.305618	-2.17147
H	-1.108181	-1.901785	-1.89276
H	-0.224488	-1.205265	-3.262237
H	0.658764	-1.845702	-1.858991
H	-3.634585	0.0	0.0
