20

C	0.0	0.0	0.0
C	-0.288894	0.114322	-1.533192
Cl	1.875113	0.0	0.0
H	0.559461	0.666619	-1.947134
C	-0.405029	1.2501	0.761104
H	-0.046196	1.18833	1.793175
H	-0.004559	2.159165	0.306603
H	-1.501818	1.273107	0.760082
N	-0.540487	-1.202474	0.556058
H	-0.428439	-1.163287	1.565216
H	-1.558454	-1.119504	0.38563
C	-1.543951	0.903825	-1.907576
H	-1.682044	0.839577	-2.994085
H	-1.435327	1.962886	-1.649337
H	-2.434735	0.523872	-1.389645
C	-0.301007	-1.265316	-2.188913
H	-0.273374	-1.147023	-3.278352
H	0.55784	-1.866072	-1.8785
H	-1.212199	-1.807423	-1.925764
H	-3.513883	0.0	0.0
