20

C	0.0	0.0	0.0
C	-0.291772	0.046738	-1.546907
Cl	1.817027	0.0	0.0
H	0.501734	0.662147	-1.981237
C	-0.461024	1.267174	0.690689
H	-1.557656	1.280457	0.679587
H	-0.109279	1.252583	1.723517
H	-0.069898	2.152518	0.185978
N	-0.535765	-1.112496	0.725542
H	-1.554382	-0.96702	0.754597
H	-0.362515	-1.974809	0.224124
C	-1.626564	0.679191	-1.926813
H	-2.46806	0.277355	-1.347508
H	-1.612435	1.760821	-1.759483
H	-1.8052	0.519659	-2.996847
C	-0.176233	-1.347789	-2.161008
H	-1.055571	-1.948236	-1.907714
H	0.727684	-1.87322	-1.833643
H	-0.135548	-1.266626	-3.252553
H	-3.702956	0.0	0.0
