17

C	0.0	0.0	0.0
C	-0.502178	0.080655	-1.474012
Br	1.97973	0.0	0.0
H	-1.575028	0.302123	-1.286495
N	-0.503676	0.989683	0.896098
H	-0.3246	1.895772	0.47431
H	-1.535513	0.790452	0.796654
C	-0.360547	-1.326569	0.528608
N	-0.536664	-2.40302	0.964433
C	-0.326018	-1.180577	-2.285495
H	-0.644926	-1.011226	-3.314862
H	0.710817	-1.522411	-2.299051
H	-0.962871	-1.951015	-1.849942
N	0.130303	1.248844	-2.148419
O	0.820903	1.060286	-3.151543
O	-0.076806	2.364879	-1.661984
F	-2.711813	0.0	0.0
