17

C	0.0	0.0	0.0
C	-0.457425	0.049847	-1.490113
Br	1.978442	0.0	0.0
H	-1.535732	0.264604	-1.344461
N	-0.441753	1.054326	0.85799
H	-1.475162	0.91717	0.805141
H	-0.207626	1.932844	0.40758
C	-0.40954	-1.285003	0.580776
N	-0.592109	-2.339936	1.064811
C	-0.204703	-1.221024	-2.266084
H	0.853957	-1.486279	-2.268975
H	-0.783287	-2.023536	-1.80882
H	-0.528388	-1.103905	-3.30138
N	0.189694	1.213024	-2.167646
O	-0.059765	2.339473	-1.728592
O	0.935084	1.008623	-3.127881
F	-2.649297	0.0	0.0
