17

C	0.0	0.0	0.0
C	-0.517147	-0.006772	-1.449048
Cl	1.785313	0.0	0.0
H	-1.600314	0.139845	-1.298989
N	-0.568541	1.133023	0.663899
H	-1.602681	0.94878	0.569407
H	-0.342753	1.08599	1.653488
C	-0.331009	-1.295206	0.650333
N	-0.504981	-2.330466	1.180656
N	-0.221272	-1.295293	-2.082799
H	-0.388903	-1.19274	-3.078183
H	-0.909128	-1.964672	-1.747009
C	0.078684	1.129088	-2.25816
H	1.103242	0.891203	-2.556684
H	-0.520074	1.29083	-3.16084
H	0.078752	2.047661	-1.671262
H	-3.027565	0.0	0.0
