17

C	0.0	0.0	0.0
C	-0.53025	-0.024616	-1.443024
Cl	1.785744	0.0	0.0
H	-1.617515	0.082574	-1.278468
N	-0.566969	1.137506	0.659814
H	-1.601133	0.958894	0.570316
H	-0.336917	1.096687	1.648833
C	-0.333482	-1.287963	0.662951
N	-0.528746	-2.307865	1.214696
N	-0.191366	-1.300256	-2.081296
H	-0.350975	-1.197602	-3.07778
H	-0.860367	-1.993177	-1.755877
C	0.005266	1.136658	-2.256998
H	1.043405	0.95694	-2.550456
H	-0.051571	2.057443	-1.676322
H	-0.599808	1.257172	-3.162148
H	-3.05493	0.0	0.0
