17

C	0.0	0.0	0.0
C	-0.392493	0.096513	-1.530126
Cl	1.853276	0.0	0.0
H	0.504768	0.430715	-2.058937
N	-0.509696	1.03159	0.840929
H	-0.527447	1.870424	0.265055
H	-1.50947	0.778088	0.943628
C	-0.328522	-1.308726	0.586777
N	-0.491937	-2.375815	1.050281
N	-1.392466	1.148984	-1.668593
H	-2.234773	0.812657	-1.148022
H	-1.63568	1.21669	-2.65297
C	-0.807875	-1.259122	-2.104469
H	-0.029731	-2.018341	-1.971651
H	-1.730214	-1.589186	-1.625314
H	-0.991638	-1.144446	-3.17839
H	-3.116199	0.0	0.0
