17

C	0.0	0.0	0.0
C	-0.25099	0.009705	-1.569076
Cl	1.785771	0.0	0.0
H	0.515859	-0.675917	-1.945143
N	-0.629348	1.106034	0.633026
H	-1.66987	0.863356	0.49533
H	-0.434376	1.076543	1.631044
C	-0.367404	-1.320846	0.555295
N	-0.560081	-2.377981	1.035699
N	0.06776	1.365139	-2.047053
H	-0.040201	1.986949	-1.248927
H	-0.652184	1.631264	-2.709347
C	-1.566301	-0.495314	-2.144047
H	-1.84113	-1.474341	-1.750008
H	-2.395245	0.16494	-1.907656
H	-1.40806	-0.57926	-3.230016
H	-3.024148	0.0	0.0
