17

C	0.0	0.0	0.0
C	-0.190066	0.000898	-1.571443
Cl	1.87162	0.0	0.0
H	0.532979	-0.729244	-1.95538
N	-0.630672	1.027795	0.713266
H	-0.569024	1.852275	0.11837
H	-1.648662	0.741482	0.715625
C	-0.329227	-1.328002	0.534955
N	-0.487482	-2.430945	0.908195
N	0.126672	1.360532	-2.016606
H	-0.381337	1.560496	-2.867463
H	1.117432	1.453725	-2.197625
C	-1.554602	-0.398819	-2.096294
H	-1.483593	-0.434108	-3.193357
H	-2.341491	0.272873	-1.75572
H	-1.852973	-1.3799	-1.728191
H	-3.239934	0.0	0.0
