10
Coordinates from ORCA-job run
  C   0.90950335835549      0.12489079061428      0.51129744288196
  C   -0.26886550650821     -0.24895565007129     -0.05977657846358
  H   1.53066671735109     -0.61533833779747      1.00790913583866
  C   1.36527942193186      1.46835932304057      0.50008972094135
  N   1.76738672856554      2.57516984457660      0.49678477351687
  C   -1.09237370680521      0.72874623987267     -0.71789303856077
  N   -1.78249845881761      1.49893825041297     -1.27907116559467
  N   -0.80976061567382     -1.51378100684282      0.00630893045455
  H   -0.17457645025704     -2.25158396987762      0.26899180927893
  H   -1.44476148814209     -1.76444548392789     -0.73464103029329
