10
Coordinates from ORCA-job run
  C   0.73943053218014      0.81301238195844     -0.06154372933019
  C   -0.33181934105308      0.00175504220678     -0.29722526653873
  H   0.95917511301295      1.63754372833855     -0.72706161492613
  C   1.56354689856071      0.57972095268024      1.06933631062361
  N   2.21353762525788      0.33202306582263      2.02054556882237
  C   -1.14086557204968      0.25082552977881     -1.45883844760720
  N   -1.80158015751544      0.43427456890730     -2.41461180154034
  N   -0.76998310599129     -1.00267843373688      0.52690775540552
  H   -1.30672815666433     -1.74012598478105      0.10026769616687
  H   -0.12571383573785     -1.30535085117483      1.24322352892423
