10
Coordinates from ORCA-job run
  C   0.72407816329462      0.83144325185149     -0.02714152013933
  C   -0.35154288284382      0.02856558287027     -0.27257325624463
  H   0.89102962918358      1.72212453521534     -0.61853739131831
  C   1.62468720331113      0.49720388897586      1.01704129363420
  N   2.33845476439375      0.15965409892977      1.89176989019363
  C   -1.23922459673399      0.37429789100193     -1.34879191491936
  N   -1.96488969458443      0.63345605950748     -2.23770347467385
  N   -0.72046080738933     -1.06148701786872      0.47319181637710
  H   -1.27683887786104     -1.76224316217367      0.01120535019811
  H   -0.02429290077045     -1.42301512830975      1.10953920689245
