10
Coordinates from ORCA-job run
  C   0.45408766099850      0.79928600522309      0.60815880789972
  C   -0.44277788212659      0.00677507238363     -0.04751986423821
  H   0.12898012983402      1.70591914113654      1.10126686582036
  C   1.82203389285496      0.42515655613422      0.65058009499160
  N   2.94387476497469      0.06467798607191      0.64515977704502
  C   -1.82114584724192      0.41264922954820     -0.08749919129845
  N   -2.95001309516736      0.73901180690255     -0.14232582782954
  N   -0.16647138991972     -1.21053537477919     -0.61579921874891
  H   0.81030029626761     -1.42582113189653     -0.75584901319302
  H   -0.77786853047419     -1.51711929072442     -1.35517243044857
