10
Coordinates from ORCA-job run
  C   0.77498389974771      0.77442532009595     -0.10918374230432
  C   -0.34612532169456      0.01566042892674     -0.28056364072278
  H   1.00398056784076      1.57766579458502     -0.79718319424403
  C   1.64024221356840      0.51295404951345      0.98412922701723
  N   2.32297829253171      0.24276752124271      1.90578341634224
  C   -1.19591386731030      0.28815814400239     -1.40763586375291
  N   -1.88945293404734      0.48976509051353     -2.33599686762421
  N   -0.79301895426133     -0.95428221287787      0.57929564983509
  H   -1.38716604644457     -1.66901793233303      0.19204728280029
  H   -0.13150784993047     -1.27809620366888      1.27030773265340
