10
Coordinates from ORCA-job run
  C   0.72160914903631      0.83104407764365     -0.03637183140721
  C   -0.30419791260340     -0.02098382226794     -0.32520006505885
  H   0.97837038627264      1.63172594249185     -0.71753377754778
  C   1.44770643012300      0.67279224989128      1.17224433673645
  N   2.01725271659920      0.48592538341509      2.18677732085638
  C   -1.01457183523681      0.15085980419921     -1.56290269022703
  N   -1.59347240607690      0.27010026096162     -2.57993496539496
  N   -0.78729319787257     -0.99944106404418      0.50522733003601
  H   -1.26430708622868     -1.77198721636621      0.06983400191754
  H   -0.20109624401279     -1.24903561592437      1.28886034008945
