10
Coordinates from ORCA-job run
  C   0.47806210206010      0.75208838958949      0.64794736845970
  C   -0.44526833763757     -0.00328521128044     -0.01446622194046
  H   0.16734721626271      1.59693368098167      1.24850515347247
  C   1.85427420678330      0.41938722222901      0.55610625840579
  N   2.98133046817808      0.09745136995594      0.43490734023390
  C   -1.83200265536100      0.36253865299968      0.08227911624510
  N   -2.96860937907880      0.66026456583113      0.13874674382894
  N   -0.18222935260694     -1.15201013410232     -0.71524313414854
  H   -0.83846217642318     -1.40767165560276     -1.43488815930082
  H   0.78655790782330     -1.32369688060140     -0.94289446525608
