10
Coordinates from ORCA-job run
  C   0.92392786951804      0.12340983575042      0.48303735530330
  C   -0.26178115104636     -0.25582067716971     -0.06925504168836
  H   1.59673254932671     -0.62637385549578      0.88970301562010
  C   1.32350452493379      1.48239657907254      0.56412531953239
  N   1.68110879503511      2.60187631061420      0.63918610923328
  C   -1.15270493929262      0.73483440137083     -0.60985082971471
  N   -1.89507124955671      1.51996943342145     -1.07557713135451
  N   -0.74547364508833     -1.54520446401921     -0.08690434622692
  H   -0.06847485583570     -2.27229206518249      0.08522373407738
  H   -1.40176789799392     -1.76279549836225     -0.81968818478195
