10
Coordinates from ORCA-job run
  C   0.65879526025254      0.88009588261290      0.07275365570667
  C   -0.31006221734515      0.00328020207446     -0.32007594051089
  H   0.73437321103961      1.85649341970659     -0.38759247353303
  C   1.57906029305902      0.50340791702634      1.08458557128069
  N   2.30854597969670      0.13554624393036      1.93375167436741
  C   -1.24201876074033      0.41489251813245     -1.33413441350902
  N   -2.02187250757276      0.74385414006274     -2.15102540282967
  N   -0.43842702691741     -1.29153982286783      0.11244764735530
  H   -1.35474566582262     -1.70425944992798      0.05064652215714
  H   0.08635143435039     -1.54077105075003      0.93864315951540
