10
Coordinates from ORCA-job run
  C   0.97279111994769      0.13065929727960      0.37424627687245
  C   -0.23455415467015     -0.26223462510188     -0.11805117616165
  H   1.68765246487165     -0.61293242157399      0.71530172942014
  C   1.35359034950323      1.49522042980283      0.45023786133782
  N   1.69215876456232      2.62035645903914      0.52920436398426
  C   -1.18181437398261      0.71949785114633     -0.57182375464061
  N   -1.98620800666379      1.49609368365059     -0.93824938957509
  N   -0.61855955075301     -1.57064572123187     -0.31053456912451
  H   -1.61019195524381     -1.74811202668914     -0.30603742592227
  H   -0.07486465757154     -2.26690292632162      0.17570608380945
