10
Coordinates from ORCA-job run
  C   0.95875531950641      0.10803987698052      0.41439118675178
  C   -0.26786575656947     -0.25242420597271     -0.05476783119596
  H   1.65323198443014     -0.65398690398996      0.75675892362556
  C   1.37462872788783      1.46236050232144      0.48947467102878
  N   1.74610749129002      2.57780849098133      0.55673580340451
  C   -1.18894927170761      0.75386762743594     -0.50913989286097
  N   -1.95845608387659      1.55180967090083     -0.90337651064321
  N   -0.76287035801184     -1.53762025977732     -0.05804815867153
  H   -1.47265678650454     -1.73805248773730     -0.74435383367152
  H   -0.08192526644436     -2.27280231114277      0.05332564223257
