10
Coordinates from ORCA-job run
  C   0.38154496355693      0.88597654881123      0.53039240865382
  C   -0.41492963038477      0.02046555576198     -0.16119913980703
  H   -0.00608635828085      1.83909792340273      0.86581515860761
  C   1.73012641102997      0.53776571412291      0.80059652076154
  N   2.83851086530555      0.19039684098929      0.99909831098294
  C   -1.78082435930516      0.39201876842777     -0.41130753150322
  N   -2.90479085992779      0.67714182863497     -0.60922318402330
  N   -0.00844540690036     -1.16176963331364     -0.72554209962203
  H   0.88285556641375     -1.52050629632976     -0.41409318783506
  H   -0.71696119150728     -1.86158725050748     -0.87453725621528
