10
Coordinates from ORCA-job run
  C   0.89611409759442      0.13522928480615      0.52856160645588
  C   -0.22306063188474     -0.26566363014848     -0.13581478524935
  H   1.50472394869985     -0.59509253317814      1.05423432203375
  C   1.31957266809393      1.48899504538465      0.55401276054135
  N   1.69000214327274      2.60601161186246      0.59551449959940
  C   -1.03161941644410      0.69913006208492     -0.83048738308195
  N   -1.72144826863981      1.46844018946352     -1.39352044741313
  N   -0.62494795550859     -1.57441482995047     -0.28225508908196
  H   -0.20087667102930     -2.24005682628201      0.34555132869188
  H   -1.60945991415439     -1.72357837404259     -0.43579681249588
