10
Coordinates from ORCA-job run
  C   0.78613676890705      0.77335596395683     -0.00681439915258
  C   -0.30386490695158      0.01682399867666     -0.32530647982713
  H   1.10885715787194      1.57387752153109     -0.65940501408676
  C   1.49356206919437      0.51338488600685      1.19536197204496
  N   2.04111341144465      0.24479001988426      2.20362824642511
  C   -0.99578054757321      0.28654531228759     -1.55603745723538
  N   -1.56264680612919      0.48181842022644     -2.56802340324029
  N   -0.86432179840962     -0.95020508008579      0.46904460051477
  H   -0.30171421188282     -1.27413863127749      1.24261425819597
  H   -1.40134113647159     -1.66525241120643      0.00593767636135
