10
Coordinates from ORCA-job run
  C   0.75915048754717      0.79116025423387     -0.10193345723228
  C   -0.29048849075961     -0.04903232558437     -0.33436937125515
  H   0.98150551675229      1.59487169467395     -0.79147156451559
  C   1.57001681619123      0.60266676151385      1.04689516511431
  N   2.20211494686152      0.40035284787958      2.02058126941803
  C   -1.10460867258260      0.17189969984132     -1.49829709188380
  N   -1.78757852612456      0.34958675543629     -2.43936243725796
  N   -0.60466827507108     -1.15897955825505      0.40722456067106
  H   -1.56157791216891     -1.47118605071409      0.37658081217870
  H   -0.16386589064545     -1.22934007902536      1.31315211476269
