10
Coordinates from ORCA-job run
  C   0.54414656296717      0.92638614496892      0.23641390727655
  C   -0.34638390837811      0.03073527044514     -0.27994273430643
  H   0.43692065428837      1.98468025316032      0.03747044131323
  C   1.62557106332260      0.46462378094404      1.03009503268061
  N   2.49774788175216      0.02146320512666      1.68696051953979
  C   -1.44255742656814      0.52647604063319     -1.06668798007174
  N   -2.35220831672962      0.92470081301832     -1.69721753566793
  N   -0.25258140272352     -1.33395857905738     -0.18372195809606
  H   0.39864415390384     -1.68818277598910      0.50208665479285
  H   -1.10929926183475     -1.85692415325011     -0.26445634746088
