10
Coordinates from ORCA-job run
  C   0.44453137531324      0.94021404935442      0.36615474340583
  C   -0.34649840441995      0.03445702831019     -0.27842807862730
  H   0.22506298419555      1.99848430118533      0.31137833011273
  C   1.56780783890886      0.48901324420897      1.10592586866993
  N   2.47796110738153      0.04907079279741      1.71150044023898
  C   -1.49055800682959      0.51203016157225     -1.00585665292097
  N   -2.44110957669113      0.88465734401420     -1.59004042251088
  N   -0.10787259112267     -1.31324426434292     -0.36726710203147
  H   0.57627724095880     -1.68737297840701      0.27471842438530
  H   -0.90560196769465     -1.90630967869285     -0.52808555072215
