10
Coordinates from ORCA-job run
  C   0.76678733334549      0.78836851319178     -0.05218171055916
  C   -0.30477817614156     -0.01112496752209     -0.32478035809451
  H   0.97793667923658      1.65192093160815     -0.66932730182028
  C   1.61929834420667      0.47426907571307      1.03754561140456
  N   2.28585881030597      0.16621124557440      1.95918310178010
  C   -1.15950917213529      0.33489264721762     -1.42743282947132
  N   -1.87482173746279      0.61381705884066     -2.31857596940868
  N   -0.60845881872568     -1.18492289913806      0.31529859139749
  H   -0.13207070235715     -1.35244370887865      1.18987994082833
  H   -1.57024256027224     -1.48198789660689      0.29239092394347
