10
Coordinates from ORCA-job run
  C   0.94826126527843      0.10875684604075      0.43716088898116
  C   -0.26854320550907     -0.25165164709747     -0.05696908467985
  H   1.63004030102625     -0.65241791059726      0.80586473676258
  C   1.37009018597713      1.46176223872348      0.50261263495089
  N   1.74672953705339      2.57593589672666      0.56193971407671
  C   -1.17210592312380      0.75338727050433     -0.54770760801620
  N   -1.92535153877714      1.55108716654538     -0.97261097021848
  N   -0.77054122552804     -1.53426808672790     -0.05480143854042
  H   -1.46179020356587     -1.74085584836634     -0.75825557764688
  H   -0.09578919283130     -2.27073592575163      0.08376670433049
