10
Coordinates from ORCA-job run
  C   0.86671858192458      0.16888495859793      0.56589213113887
  C   -0.20843298660137     -0.27447765412001     -0.14260203181649
  H   1.46774176654125     -0.53453395736660      1.13543930328185
  C   1.25353660372665      1.53371199525484      0.58529069748426
  N   1.59402932155819      2.66036274151874      0.62561321300790
  C   -1.00577499266799      0.65444745383528     -0.89661216916580
  N   -1.68623030205131      1.39160336887048     -1.51123024221495
  N   -0.57014419557772     -1.59666766116587     -0.27930256351537
  H   -0.17060663950158     -2.23240616424770      0.39385524254594
  H   -1.54283715735068     -1.77092508117709     -0.47634358074621
