10
Coordinates from ORCA-job run
  C   0.96804901069017      0.12915120586263      0.38386148447391
  C   -0.23477589040415     -0.26329762277666     -0.11988760098291
  H   1.67326167897945     -0.61434992310757      0.74447463002812
  C   1.35494030774164      1.49243777750065      0.45070349245094
  N   1.69985088710236      2.61613622888532      0.52289925708894
  C   -1.17016549745194      0.71908577607378     -0.59674822957286
  N   -1.96308839175150      1.49959827365310     -0.97917688254645
  N   -0.62305731230530     -1.57213798039730     -0.30171763181770
  H   -0.09132436062814     -2.26350793407753      0.20416797640838
  H   -1.61569043197260     -1.74411580161643     -0.30757649553039
