10
Coordinates from ORCA-job run
  C   0.67557622367972      0.86415925807485      0.09071578536204
  C   -0.24314321163570     -0.03205709856151     -0.37232416241076
  H   0.88783364655579      1.76849981247442     -0.46435795534257
  C   1.36518856599450      0.60211654929055      1.30254079784726
  N   1.90107088943663      0.33305504275320      2.31684631545417
  C   -0.93992935481910      0.26519411895666     -1.59396635690966
  N   -1.52850139562256      0.50425632803194     -2.58403823577161
  N   -0.51744910594829     -1.25479250456645      0.18464136376969
  H   -1.42532768904564     -1.64754454972970     -0.00349413938080
  H   -0.17631856859535     -1.40388695672395      1.12343658738224
