10
Coordinates from ORCA-job run
  C   0.93077260462190      0.57552284432880     -0.12245027663561
  C   -0.29437164580940      0.01362559709649     -0.33447010686241
  H   1.34359632296802      1.27680156336814     -0.83575954367086
  C   1.67320001193305      0.22739994256049      1.03537315817245
  N   2.23787949392036     -0.09589953166298      2.01777598942921
  C   -1.03307156574704      0.39452241680132     -1.50723979836691
  N   -1.65542662576563      0.70938066992885     -2.45447640269840
  N   -0.87041747756195     -0.96161169109028      0.43863795517933
  H   -0.45724806427151     -1.11199830971414      1.34784876033537
  H   -1.87491305428780     -1.02774350161670      0.41376026511781
