10
Coordinates from ORCA-job run
  C   0.43123017984743      0.94877878119914      0.35601020067585
  C   -0.40225332236942      0.01769299867428     -0.19156648981857
  H   0.11330182168525      1.97812770825648      0.45762462006701
  C   1.72729214176838      0.56482804151437      0.78700065169637
  N   2.78711078447402      0.18334382487125      1.13312627088801
  C   -1.71697577846336      0.42707481832697     -0.60384263817073
  N   -2.80172537283262      0.74409523715120     -0.93027061233276
  N   -0.07343840175423     -1.28514368330675     -0.46634180467841
  H   -0.83234834653622     -1.94532284266919     -0.51271344661253
  H   0.76680629418076     -1.63447488401775     -0.02802675171423
