10
Coordinates from ORCA-job run
  C   0.88133100056305      0.15200565652695      0.54995829371909
  C   -0.20939865384475     -0.26927381270474     -0.14833298276434
  H   1.50801456238770     -0.57156686384108      1.06408885516755
  C   1.25452063560287      1.51893799595721      0.62218006900219
  N   1.58301480674608      2.64703176270348      0.70176075572640
  C   -1.03884055337406      0.68527789574344     -0.83233421266447
  N   -1.74830154064523      1.44155685418458     -1.38814356240914
  N   -0.56086761720419     -1.58742084435517     -0.33894856712586
  H   -1.53653205054181     -1.76464179942624     -0.51746279915667
  H   -0.13294058968967     -2.25190684478844      0.28723415050524
