10
Coordinates from ORCA-job run
  C   0.96757428521115      0.12408257492392      0.38852240264198
  C   -0.23064165321782     -0.25973814036266     -0.13257583664367
  H   1.68524305848882     -0.62681876859714      0.70662724190661
  C   1.33397872918645      1.48768699187822      0.52607899079283
  N   1.66074380253368      2.61166368924656      0.65536278973274
  C   -1.18406748453299      0.73125337024551     -0.55259883734693
  N   -1.99168423516296      1.51747768882839     -0.88994824148596
  N   -0.59885920363536     -1.56275618999273     -0.38282735289880
  H   -0.05282765435409     -2.27302241885979      0.07956987498733
  H   -1.58845964451688     -1.75082879731028     -0.39821103168612
