16

C	0.0	0.0	0.0
C	-0.578986	-0.197839	-1.42888
F	1.367567	0.0	0.0
H	-1.388001	0.537331	-1.482394
C	-0.408868	1.321016	0.601515
H	-1.49232	1.289225	0.716915
H	0.116793	1.456147	1.547683
H	-0.093389	2.107348	-0.092109
N	-0.342079	-1.164241	0.911321
O	-0.099566	-2.277093	0.452316
O	-0.68169	-0.928846	2.061205
C	-1.2663	-1.455228	-1.734999
N	-1.794422	-2.415019	-2.157287
C	0.467084	0.021252	-2.435831
N	1.290615	0.215772	-3.250736
F	-2.579352	0.0	0.0
