16

C	0.0	0.0	0.0
C	-0.514602	-0.039188	-1.463069
F	1.381901	0.0	0.0
H	-0.789053	0.995283	-1.697063
C	-0.394639	1.224424	0.784091
H	0.011206	1.140696	1.791708
H	-1.480995	1.269304	0.783962
H	0.064604	2.085314	0.289035
N	-0.34214	-1.293053	0.702492
O	-0.515542	-1.266013	1.914074
O	-0.269449	-2.305014	0.009477
C	-1.710459	-0.848865	-1.771273
N	-2.405846	-1.521568	-2.446789
C	0.562164	-0.436755	-2.38897
N	1.391207	-0.728304	-3.167748
F	-2.525148	0.0	0.0
