16

C	0.0	0.0	0.0
C	-0.424544	-0.152721	-1.464928
F	1.383437	0.0	0.0
H	-0.078233	-1.144443	-1.7766
C	-0.383123	1.278503	0.702552
H	-0.078839	2.109024	0.060408
H	-1.454127	1.284419	0.864188
H	0.179048	1.33386	1.634908
N	-0.396035	-1.231976	0.789347
O	-0.48324	-1.104879	2.004648
O	-0.480012	-2.293793	0.178431
C	0.324103	0.835012	-2.254092
N	0.935484	1.62652	-2.868832
C	-1.867269	-0.055995	-1.82519
N	-2.616543	-0.022564	-2.743805
F	-2.519617	0.0	0.0
