16

C	0.0	0.0	0.0
C	-0.418139	0.167497	-1.467824
F	1.367626	0.0	0.0
H	-0.056595	1.174839	-1.718496
C	-0.399863	1.127794	0.921107
H	-1.481547	1.136904	1.005065
H	0.087706	0.966949	1.882078
H	-0.021326	2.056652	0.485436
N	-0.413064	-1.348815	0.542524
O	-0.621103	-2.242424	-0.267302
O	-0.391379	-1.479068	1.761663
C	-1.857376	0.151175	-1.841366
N	-2.617127	0.29277	-2.740779
C	0.340378	-0.734869	-2.347179
N	0.962058	-1.394237	-3.092362
F	-2.544051	0.0	0.0
