16

C	0.0	0.0	0.0
C	-0.500657	0.02301	-1.458605
F	1.374536	0.0	0.0
H	-0.679665	-1.014818	-1.749889
C	-0.380944	1.188578	0.849263
H	-1.449625	1.182607	1.025293
H	-0.081228	2.08321	0.295194
H	0.195686	1.142055	1.7744
N	-0.324626	-1.336427	0.671286
O	-0.45725	-1.328722	1.886641
O	-0.301657	-2.340934	-0.032937
C	0.555183	0.578408	-2.323672
N	1.381669	1.053813	-3.011153
C	-1.753869	0.787174	-1.689725
N	-2.403951	1.506891	-2.370067
F	-2.49811	0.0	0.0
