16

C	0.0	0.0	0.0
C	-0.435522	-0.304564	-1.439938
F	1.362026	0.0	0.0
H	-0.077729	-1.318356	-1.651235
C	-0.394017	1.342247	0.567786
H	-0.082825	2.105147	-0.151025
H	0.157963	1.491564	1.496176
H	-1.466693	1.362091	0.717274
N	-0.402403	-1.146762	0.908379
O	-0.455636	-2.266588	0.407986
O	-0.519086	-0.896917	2.101494
C	0.296595	0.604162	-2.33345
N	0.882688	1.329393	-3.047213
C	-1.881537	-0.263772	-1.799495
N	-2.631821	-0.342835	-2.714763
F	-2.538139	0.0	0.0
