13

C	0.0	0.0	0.0
C	-0.57359	-0.011493	-1.383458
Cl	1.782059	0.0	0.0
H	-1.70406	-0.047504	-1.061451
H	-0.35061	0.904485	0.48373
H	-0.34685	-0.867217	0.547066
N	-0.202877	-1.309658	-2.055538
O	0.134782	-1.278046	-3.245704
O	-0.302253	-2.350601	-1.405487
N	-0.198378	1.13125	-2.150134
H	0.784577	1.082964	-2.396993
H	-0.725251	1.147567	-3.011982
F	-2.709279	0.0	0.0
