13

C	0.0	0.0	0.0
C	-0.607249	-0.059478	-1.382595
Cl	1.778884	0.0	0.0
H	-1.695367	-0.243552	-1.07677
H	-0.326299	-0.861868	0.570965
H	-0.358152	0.902536	0.482839
N	-0.04337	-1.247382	-2.092803
O	-0.196681	-2.33476	-1.529272
O	0.54131	-1.102514	-3.165371
N	-0.503816	1.117204	-2.188577
H	0.3961	1.570605	-2.083097
H	-1.238996	1.738377	-1.877983
F	-2.75218	0.0	0.0
