13

C	0.0	0.0	0.0
C	-0.47039	0.204115	-1.44566
Cl	1.775899	0.0	0.0
H	0.393726	0.356395	-2.10363
H	-0.352672	-0.961471	0.349503
H	-0.357935	0.788296	0.645588
N	-1.150582	1.594959	-1.556132
O	-1.971184	1.7356	-2.456315
O	-0.730253	2.507588	-0.849438
N	-1.279879	-0.858104	-1.905086
H	-1.591309	-0.645262	-2.844727
H	-2.089479	-0.766419	-1.229981
F	-2.629593	0.0	0.0
