13

C	0.0	0.0	0.0
C	-0.617666	-0.203599	-1.367249
Cl	1.782066	0.0	0.0
H	-1.688484	-0.4108	-1.035889
H	-0.364635	0.944884	0.387807
H	-0.321146	-0.797929	0.660151
N	-0.010534	-1.413445	-1.99894
O	-0.014401	-2.437267	-1.309429
O	0.447304	-1.354375	-3.139521
N	-0.610409	0.9164	-2.255597
H	-1.393783	1.490033	-1.969069
H	0.249089	1.448695	-2.187166
F	-2.750917	0.0	0.0
