13

C	0.0	0.0	0.0
C	-0.470378	0.149868	-1.451883
Cl	1.775843	0.0	0.0
H	0.393579	0.278274	-2.114712
H	-0.356218	0.814026	0.614276
H	-0.352694	-0.94722	0.386838
N	-1.147317	1.536678	-1.616008
O	-1.959517	1.647361	-2.528563
O	-0.732797	2.473126	-0.938262
N	-1.282509	-0.926259	-1.874322
H	-1.589424	-0.746033	-2.822744
H	-2.093059	-0.810306	-1.204784
F	-2.630015	0.0	0.0
