13

C	0.0	0.0	0.0
C	-0.566225	-0.076959	-1.402214
Cl	1.778841	0.0	0.0
H	-1.663764	-0.218533	-1.129791
H	-0.34493	-0.853025	0.573245
H	-0.368714	0.909768	0.460669
N	-0.014958	-1.305319	-2.052766
O	0.634474	-1.206693	-3.094315
O	-0.232303	-2.37259	-1.473647
N	-0.365817	1.06197	-2.245634
H	-1.036815	1.76146	-1.957943
H	0.573382	1.432146	-2.152888
F	-2.702724	0.0	0.0
