14

C	0.0	0.0	0.0
C	-0.631655	0.03054	-1.389738
Cl	1.750525	0.0	0.0
H	-1.728803	-0.075444	-1.209627
H	-0.379521	0.850848	0.562555
N	-0.427881	-1.225311	0.769508
O	-0.512668	-2.270208	0.136432
O	-0.567936	-1.07724	1.975108
N	-0.186734	-1.066212	-2.329671
O	-1.04169	-1.867568	-2.682273
O	0.983385	-1.045184	-2.704314
C	-0.330981	1.30565	-2.022675
N	-0.102695	2.341995	-2.526831
Cl	-3.41047	0.0	0.0
