14

C	0.0	0.0	0.0
C	-0.459826	0.098391	-1.470862
Cl	1.750118	0.0	0.0
H	0.444721	0.105056	-2.092188
H	-0.38836	0.815645	0.595168
N	-0.374564	-1.282243	0.703003
O	-0.37165	-2.311372	0.040439
O	-0.506084	-1.191835	1.915336
N	-1.013446	1.48843	-1.74614
O	-0.598182	2.389978	-1.028687
O	-1.692034	1.619796	-2.751688
C	-1.312807	-0.929168	-2.054383
N	-1.763164	-1.743172	-2.774541
Cl	-2.966371	0.0	0.0
