14

C	0.0	0.0	0.0
C	-0.458576	0.070865	-1.473021
Cl	1.75303	0.0	0.0
H	0.4455	0.05496	-2.093476
H	-0.389711	0.823717	0.582894
N	-0.373018	-1.273031	0.719265
O	-0.34835	-2.312609	0.073107
O	-0.526603	-1.164542	1.927756
N	-0.99911	1.459975	-1.773186
O	-1.704163	1.577412	-2.760752
O	-0.551646	2.372386	-1.089298
C	-1.323624	-0.95892	-2.032763
N	-1.767948	-1.794104	-2.733437
Cl	-2.967214	0.0	0.0
