14
Coordinates from ORCA-job run
  C   -0.68200431182408      0.05025571367333      0.33108000596134
  C   0.67812852726863     -0.07895623494205     -0.36892556515560
  F   -0.50042485931200      0.83168015946063      1.45645949841100
  H   0.54839236661999     -0.74521999570290     -1.22947935351729
  C   -1.11712340514314     -1.28856151863724      0.80294815073955
  N   -1.55826666049780     -2.33479434314297      1.10337101382193
  N   -1.62459195104530      0.72051075626881     -0.50421221552711
  H   -1.76051490077350      0.22761768581951     -1.37833415466672
  H   -2.51710787706463      0.80731634030715     -0.03238888495878
  N   1.60796055311330     -0.70059353861390      0.55217487307381
  H   2.46658633347396     -0.94955846334808      0.07838475488051
  H   1.83106499414592     -0.05668165315707      1.30143645325859
  C   1.09752666023647      1.24590781148784     -0.86749401029467
  N   1.52937453080217      2.27107728052693     -1.24402056602655
