14
Coordinates from ORCA-job run
  C   -0.76706189404160      0.21367126651211      0.11573976776407
  C   0.68946157219841      0.32646108273161     -0.36388014305149
  F   -1.32493798404034      1.49245502739131      0.01962791117936
  H   0.63025526055332      0.65550644907245     -1.41603295139120
  C   -0.83186444338063     -0.19311505035254      1.52923921078824
  N   -0.93600137291091     -0.48933726873791      2.65998157018350
  N   -1.44532664310285     -0.73405002977825     -0.69232727223676
  H   -2.35511551304429     -0.96604416870308     -0.31417382983176
  H   -1.55439205337008     -0.37230968908543     -1.63330147110100
  N   1.33517936105226     -0.95248250409660     -0.14474284748872
  H   2.31523618460615     -0.91247501512521     -0.39214817411017
  H   0.87018555109361     -1.66115661673182     -0.69807750749524
  C   1.39017753833835      1.37836167590886      0.37984226907700
  N   1.98420443604860      2.21351484099450      0.95125346771418
