14
Coordinates from ORCA-job run
  C   -0.80137867881204      0.23568315724896     -0.00888920668402
  C   0.72871772855802      0.34447574839017     -0.16279727650728
  F   -1.29998839533959      0.68111408557948     -1.26159903206464
  H   0.94882807107144      1.39245879994916     -0.40853973491821
  C   -1.31023683878524      1.19121221977720      0.98941741008884
  N   -1.70916526773765      1.96923888523854      1.77266194188517
  N   -1.16736124465232     -1.07351996797657      0.30785136511842
  H   -2.16723937036729     -1.20858017628552      0.35819415467349
  H   -0.71646518776762     -1.72649296132585     -0.32129454861622
  N   1.12473556721515     -0.60664874535795     -1.19737328224270
  H   0.89354263727310     -0.22054159171384     -2.10462784895479
  H   2.12207733398668     -0.77449983966687     -1.16168387982735
  C   1.38924925997455      0.01938250845759      1.10239242337354
  N   1.96468438538281     -0.22228212231450      2.09628751467575
