14
Coordinates from ORCA-job run
  C   -0.72445816825742      0.08279802693154      0.33981157913123
  C   0.67126396081322     -0.16851159039129     -0.27294827587089
  F   -0.51445338923882      1.04714503213102      1.33083837816916
  H   0.56889960294717     -1.01743062189385     -0.95603661845566
  C   -1.17649287379222     -1.15182213615489      1.00854906249689
  N   -1.57510612871265     -2.14199863464539      1.49516830662710
  N   -1.70802634078603      0.52490508559789     -0.56416268338305
  H   -1.36821573633538      1.05597631806808     -1.35103150977042
  H   -2.43066994837080     -0.13414538228239     -0.79722335346869
  N   1.60102574087383     -0.52139449872892      0.77725254742211
  H   2.48926952920045     -0.81644872966544      0.39131817040117
  H   1.75527375827607      0.27331053391101      1.38440442073582
  C   1.04861680293102      1.01265330317928     -1.07736938950829
  N   1.36107319045156      1.95496329394334     -1.70657063452648
