14
Coordinates from ORCA-job run
  C   -0.81346639044796      0.20399726047248      0.11730111472171
  C   0.60438224135972      0.29985897035069     -0.47898587278457
  F   -1.33170716800569      1.50863464262225      0.03191495998260
  H   0.46448679647725      0.69355791164684     -1.49276805592432
  C   -0.75529307399573     -0.12958405316969      1.55547558430491
  N   -0.67194982416016     -0.42253023320594      2.68929809378029
  N   -1.58666899334621     -0.75439680368535     -0.55409245629042
  H   -2.55382307298536     -0.73745170252539     -0.25893933802349
  H   -1.50512955957795     -0.68603900110447     -1.55912918178684
  N   1.22537866773079     -1.00530860727382     -0.57059566202086
  H   1.32570958402913     -1.41426490746184      0.35222348739665
  H   2.15110497575616     -0.91742904053531     -0.97238324931217
  C   1.37857691689443      1.30563712969646      0.27739040223340
  N   2.06839890027156      2.05531843417309      0.86229017372310
