14
Coordinates from ORCA-job run
  C   -0.71805451377507      0.11428389474893      0.31860614308662
  C   0.68253911438290     -0.02701925588523     -0.31095014383432
  F   -0.62435880604194      0.95996802287220      1.39641965167416
  H   0.58096785021279     -0.64612604244524     -1.21192908175419
  C   -1.12949977086127     -1.21610091953998      0.83678772909635
  N   -1.51014463528796     -2.28422498539039      1.14329698433406
  N   -1.62980540028424      0.69999571502447     -0.61069256539113
  H   -1.69522996410297      0.15644620517070     -1.46221998346207
  H   -2.55260006974660      0.78716065322144     -0.20204387146904
  N   1.57910194197410     -0.64336242693333      0.65251052881498
  H   1.95204441876231     -1.51544992765526      0.30849707139564
  H   2.33752451966986     -0.03279397419325      0.91779352106174
  C   1.14395736507686      1.30229210203140     -0.72994596886481
  N   1.58355795002125      2.34393093897353     -1.04513001468800
