14
Coordinates from ORCA-job run
  C   -0.85814988378013      0.12313959512073     -0.12459437791508
  C   0.64635983098771      0.47436098173823     -0.19442447892275
  F   -1.35424878142660      0.57657466263355     -1.36490725568728
  H   0.72423440424354      1.54736037003315     -0.41813642710390
  C   -1.53202559683899      0.92140638570244      0.91270421702167
  N   -2.05407914663492      1.55953482206642      1.74855509352152
  N   -1.09123007055121     -1.24456432583737      0.03840426008411
  H   -1.60229536537304     -1.52678474549355      0.85623482431486
  H   -0.29563746243969     -1.81966570068440     -0.19606892031104
  N   1.24007883758156     -0.40149138447744     -1.19745284959874
  H   2.24739069136469     -0.30031868899510     -1.20311538506057
  H   0.88413648883660     -0.13977374607590     -2.10955448728616
  C   1.26630363982299      0.21882109412630      1.10833482195002
  N   1.77816241420749      0.01140068014294      2.14402096499334
