15

C	-0.06072	0.044646	-0.012127
C	-0.435401	0.201558	-1.491717
F	1.335987	-0.091834	0.044557
H	-1.527066	0.309245	-1.488385
H	-0.503552	-0.885367	0.345715
N	-0.471613	1.094945	0.854157
H	-1.46037	0.940813	1.042891
H	-0.361946	1.996222	0.402784
C	-0.050994	-1.024401	-2.31957
H	1.024136	-1.203235	-2.267192
H	-0.341022	-0.899656	-3.365125
H	-0.582242	-1.890452	-1.918807
C	0.166949	1.420101	-2.032503
N	0.654946	2.398653	-2.462204
Br	-3.514385	-0.523049	0.14486
