16

C	0.0	0.0	0.0
C	-0.308885	-0.085616	-1.498582
F	1.395789	0.0	0.0
H	0.365826	-0.878823	-1.846598
H	-0.365536	0.930833	0.435355
C	-0.456845	-1.198982	0.793489
H	-0.04131	-1.159136	1.806839
H	-1.550601	-1.131529	0.79665
H	-0.108807	-2.120516	0.307585
C	0.117499	1.205227	-2.195316
H	0.002059	1.109158	-3.278854
H	-0.495862	2.034642	-1.845372
H	1.166226	1.411802	-1.960267
C	-1.651672	-0.490844	-1.959446
N	-2.406282	-0.860237	-2.788051
F	-2.682699	0.0	0.0
