16

C	0.0	0.0	0.0
C	-0.584213	-0.090909	-1.400917
F	1.393293	0.0	0.0
H	-1.684958	0.014153	-1.148893
H	-0.317588	0.959393	0.416161
C	-0.488835	-1.111222	0.900535
H	-1.583764	-1.071265	0.830079
H	-0.081624	-2.075688	0.583951
H	-0.156385	-0.921997	1.925371
C	-0.290333	-1.418884	-2.10171
H	-0.620183	-1.38842	-3.142605
H	0.78135	-1.645217	-2.086092
H	-0.832617	-2.223784	-1.602736
C	-0.116386	1.023403	-2.215214
N	0.266431	1.908429	-2.889045
F	-2.897673	0.0	0.0
