16

C	0.0	0.0	0.0
C	-0.586723	-0.084469	-1.40092
F	1.392973	0.0	0.0
H	-1.686697	0.022746	-1.144001
H	-0.31851	0.95745	0.419655
C	-0.490042	-1.113506	0.897007
H	-1.584681	-1.068205	0.828121
H	-0.088011	-2.078445	0.575593
H	-0.155007	-0.929488	1.922383
C	-0.300091	-1.410218	-2.109622
H	-0.633754	-1.372601	-3.149441
H	-0.845142	-2.214458	-1.612284
H	0.770147	-1.642596	-2.099973
C	-0.119066	1.034334	-2.209418
N	0.259487	1.923609	-2.88009
F	-2.898381	0.0	0.0
