18

C	-0.500716	0.011059	-1.462795
C	0.0	0.0	0.0
Cl	0.179672	-1.486705	-2.197708
H	1.09126	0.0	0.0
C	-2.013738	-0.071723	-1.579405
H	-2.39343	-0.966451	-1.082615
H	-2.481158	0.803487	-1.122462
H	-2.293843	-0.113514	-2.634305
C	0.086242	1.203216	-2.202694
H	1.164052	1.252853	-2.034506
H	-0.371219	2.131028	-1.850587
H	-0.116712	1.100045	-3.270899
C	-0.519503	-1.133101	0.754514
N	-0.923229	-2.061469	1.349973
N	-0.464466	1.267182	0.671311
O	-1.57517	1.257267	1.211332
O	0.280068	2.239926	0.592941
Cl	3.244488	0.0	0.0
