18

C	-0.486097	-0.036996	-1.469167
C	0.0	0.0	0.0
Cl	-0.029294	1.524758	-2.234781
H	1.092127	0.0	0.0
C	0.292449	-1.144831	-2.16664
H	1.36444	-0.996557	-2.019316
H	0.007929	-2.116084	-1.751603
H	0.06021	-1.138894	-3.234091
C	-1.98938	-0.205075	-1.617828
H	-2.306749	-1.144315	-1.157317
H	-2.242439	-0.22968	-2.680226
H	-2.532095	0.613495	-1.145452
C	-0.474731	-1.189484	0.699177
N	-0.84024	-2.176172	1.221832
N	-0.520149	1.205259	0.729024
O	0.23827	2.156846	0.857956
O	-1.689822	1.158687	1.120632
Cl	3.253525	0.0	0.0
