18

C	-0.395205	0.008316	-1.485212
C	0.0	0.0	0.0
Cl	-2.202614	0.026007	-1.629849
H	1.093834	0.0	0.0
C	0.163842	1.21851	-2.214821
H	-0.294211	2.145573	-1.875932
H	-0.026665	1.102775	-3.284445
H	1.240396	1.268929	-2.030303
C	0.130905	-1.27812	-2.105489
H	-0.099112	-1.287287	-3.17314
H	-0.31956	-2.15803	-1.644066
H	1.215294	-1.31094	-1.961537
C	-0.497013	-1.17759	0.698571
N	-0.854318	-2.15433	1.244259
N	-0.466753	1.229371	0.7215
O	0.123627	2.272145	0.455657
O	-1.402336	1.121669	1.513118
Cl	3.207453	0.0	0.0
