18

C	-0.4926	0.076827	-1.466774
C	0.0	0.0	0.0
Cl	-0.046647	-1.510062	-2.199161
H	1.09126	0.0	0.0
C	-2.002262	0.221186	-1.562404
H	-2.319837	1.178425	-1.139889
H	-2.306417	0.186883	-2.610892
H	-2.508586	-0.582884	-1.02488
C	0.258992	1.155333	-2.232002
H	-0.043709	2.146496	-1.889565
H	0.030562	1.063732	-3.296471
H	1.333277	1.042336	-2.071126
C	-0.535454	-1.154776	0.708664
N	-0.960179	-2.098594	1.263825
N	-0.451187	1.246005	0.719587
O	-1.448961	1.17427	1.439092
O	0.194439	2.267131	0.504636
Cl	3.229871	0.0	0.0
