18

C	-0.488782	-0.019603	-1.468342
C	0.0	0.0	0.0
Cl	0.081205	1.493131	-2.25672
H	1.092105	0.0	0.0
C	0.201744	-1.189159	-2.15493
H	1.28086	-1.126069	-1.996399
H	-0.16799	-2.133361	-1.745109
H	-0.015322	-1.162082	-3.22513
C	-2.000787	-0.075229	-1.613689
H	-2.474323	0.805866	-1.18204
H	-2.394393	-0.962025	-1.109529
H	-2.255561	-0.126283	-2.674627
C	-0.496595	-1.178995	0.699662
N	-0.88026	-2.157571	1.225413
N	-0.506507	1.218251	0.721604
O	0.263218	2.163711	0.841341
O	-1.679807	1.190839	1.105131
Cl	3.234339	0.0	0.0
