19

C	0.0	0.0	0.0
C	-0.638446	0.035482	-1.373348
F	1.389501	0.0	0.0
H	-1.761056	-0.030648	-1.148876
C	-0.493532	1.206834	0.778537
H	-1.592418	1.192108	0.741253
H	-0.165951	1.110574	1.816793
H	-0.093183	2.131365	0.365536
C	-0.446497	-1.271024	0.702113
H	-1.542244	-1.307719	0.680798
H	-0.022993	-2.156243	0.22678
H	-0.097345	-1.226035	1.736855
N	-0.199019	-1.091363	-2.240883
O	-0.768438	-2.169659	-2.083687
O	0.717888	-0.880745	-3.03788
N	-0.387696	1.259767	-2.184431
O	0.532056	2.019802	-1.883726
O	-1.150141	1.412323	-3.139218
H	-3.107542	0.0	0.0
