19

C	0.0	0.0	0.0
C	-0.595549	-0.025869	-1.395182
F	1.389383	0.0	0.0
H	-1.710957	0.075036	-1.231978
C	-0.458635	1.263092	0.705209
H	-1.55531	1.286449	0.676678
H	-0.116368	1.21364	1.742084
H	-0.040407	2.154863	0.238013
C	-0.503475	-1.215367	0.756156
H	-0.201975	-1.125045	1.80272
H	-0.086647	-2.134228	0.346381
H	-1.601884	-1.203693	0.69345
N	-0.34979	-1.269967	-2.1845
O	-1.126843	-1.449083	-3.122228
O	0.588269	-2.007513	-1.889182
N	-0.066477	1.073791	-2.252402
O	0.857585	0.809609	-3.02309
O	-0.577714	2.181985	-2.109669
H	-3.13738	0.0	0.0
