19

C	0.0	0.0	0.0
C	-0.585057	0.018988	-1.400512
F	1.389297	0.0	0.0
H	-1.6976	-0.090495	-1.252926
C	-0.500592	1.221694	0.747965
H	-0.071417	2.134472	0.336846
H	-0.205093	1.132923	1.796367
H	-1.598463	1.21967	0.679445
C	-0.458932	-1.260116	0.710137
H	-0.11802	-1.205055	1.747162
H	-1.555455	-1.285446	0.679903
H	-0.037319	-2.152651	0.247399
N	-0.034781	-1.076906	-2.25065
O	0.89351	-0.80456	-3.012688
O	-0.535828	-2.190009	-2.109637
N	-0.340499	1.264761	-2.188292
O	-1.12184	1.448708	-3.121619
O	0.603593	1.996542	-1.897324
H	-3.152839	0.0	0.0
