19

C	0.0	0.0	0.0
C	-0.32804	-0.013156	-1.498427
F	1.401602	0.0	0.0
H	0.206019	-0.844052	-1.950252
C	-0.486803	1.182417	0.801384
H	-0.069275	2.115345	0.428829
H	-1.576123	1.21718	0.732353
H	-0.179893	1.036821	1.842305
C	-0.498492	-1.30116	0.586528
H	-1.594064	-1.278309	0.600452
H	-0.111576	-1.403992	1.604977
H	-0.178195	-2.155148	-0.013533
N	0.201836	1.191064	-2.219051
O	0.985356	0.965372	-3.146566
O	-0.181673	2.307007	-1.8861
N	-1.751216	-0.1924	-1.884636
O	-2.590979	0.668494	-1.441775
O	-2.063495	-1.390325	-2.124064
H	-3.287439	0.0	0.0
