19

C	0.0	0.0	0.0
C	-0.640221	0.026981	-1.372989
F	1.389505	0.0	0.0
H	-1.762583	-0.027121	-1.146311
C	-0.494343	1.211061	0.771784
H	-0.16221	1.123779	1.80942
H	-1.593206	1.191891	0.738916
H	-0.100087	2.134381	0.350215
C	-0.447834	-1.267267	0.708482
H	-0.100397	-1.217615	1.743571
H	-1.543589	-1.303635	0.68565
H	-0.024544	-2.155533	0.238261
N	-0.218526	-1.115926	-2.228451
O	-0.812841	-2.179754	-2.066429
O	0.708837	-0.93133	-3.019886
N	-0.377933	1.23838	-2.198445
O	-1.128766	1.37802	-3.1644
O	0.537283	2.003544	-1.896538
H	-3.112049	0.0	0.0
