19

C	0.0	0.0	0.0
C	-0.329079	0.063591	-1.497123
F	1.401326	0.0	0.0
H	0.219703	-0.731805	-1.992986
C	-0.489233	1.139498	0.859976
H	-0.065408	2.08976	0.542327
H	-1.577968	1.181583	0.783649
H	-0.192585	0.937089	1.894281
C	-0.496126	-1.329802	0.521114
H	-0.181074	-2.151682	-0.124572
H	-0.101903	-1.484649	1.530156
H	-1.591368	-1.307927	0.543456
N	0.177368	1.314911	-2.150706
O	0.965879	1.154963	-3.088113
O	-0.227038	2.40395	-1.7575
N	-1.748945	-0.121628	-1.892922
O	-2.041187	-1.313327	-2.182896
O	-2.601732	0.709153	-1.419743
H	-3.291643	0.0	0.0
