13

C	-0.400197	0.091329	-1.462513
C	0.0	0.0	0.0
Cl	-2.176791	0.38696	-1.695613
H	1.095197	0.0	0.0
H	0.099268	0.943134	-1.928179
H	-0.35982	-0.941614	0.423461
C	-0.069055	-1.118286	-2.212474
N	0.164598	-2.09099	-2.826901
C	-0.464769	1.194022	0.823723
H	-1.549755	1.230075	0.944179
H	-0.003005	1.144821	1.811888
H	-0.136466	2.128546	0.36012
Cl	3.448878	0.0	0.0
