13

C	-0.553141	0.00344	-1.41897
C	0.0	0.0	0.0
Cl	0.040558	-1.386447	-2.387368
H	1.093317	0.0	0.0
H	-1.642391	-0.107727	-1.396927
H	-0.325176	0.940491	0.461502
C	-0.265811	1.24559	-2.136588
N	-0.112783	2.266634	-2.695828
C	-0.515745	-1.181984	0.81088
H	-1.610359	-1.199839	0.868402
H	-0.174722	-2.124714	0.380541
H	-0.118741	-1.125698	1.826061
Cl	3.502603	0.0	0.0
