13

C	-0.550427	7e-05	-1.419518
C	0.0	0.0	0.0
Cl	-0.006033	-1.442974	-2.338243
H	1.093215	0.0	0.0
H	-1.640488	-0.067163	-1.396671
H	-0.330512	-0.933237	0.467471
C	-0.214853	1.210218	-2.169329
N	0.007301	2.212805	-2.739937
C	-0.514317	1.202303	0.786012
H	-1.609277	1.246592	0.816226
H	-0.146005	1.144345	1.812276
H	-0.140255	2.135789	0.360274
Cl	3.50863	0.0	0.0
