13

C	-0.410752	0.00559	-1.462805
C	0.0	0.0	0.0
Cl	-2.165043	0.433091	-1.682825
H	1.095799	0.0	0.0
H	0.143746	0.778861	-1.998772
H	-0.317194	0.957959	0.424447
C	-0.186029	-1.276897	-2.12851
N	-0.023924	-2.304862	-2.671973
C	-0.552782	-1.164566	0.804973
H	-1.646392	-1.18467	0.80579
H	-0.185625	-2.115259	0.411718
H	-0.20845	-1.086626	1.838346
Cl	3.467856	0.0	0.0
