14

C	0.0	0.0	0.0
C	-0.519556	0.493161	-1.335538
F	1.363705	0.0	0.0
H	-0.174972	1.514188	-1.496985
H	-1.616355	0.489925	-1.286341
N	-0.272118	1.109814	1.081557
O	-0.32616	0.713571	2.241021
O	-0.308871	2.281611	0.723583
N	-0.514741	-1.235619	0.360576
H	-1.53556	-1.185454	0.269364
H	-0.279719	-1.438497	1.324775
C	-0.039125	-0.363613	-2.412956
N	0.360257	-1.031891	-3.290367
Cl	-3.535079	0.0	0.0
