14

C	0.0	0.0	0.0
C	-0.524916	-0.140613	-1.416489
F	1.381193	0.0	0.0
H	-0.508343	-1.208493	-1.648813
H	-1.572495	0.18146	-1.422261
N	-0.260669	1.454518	0.510283
O	-0.467079	2.335999	-0.313822
O	-0.15933	1.60964	1.72434
N	-0.515938	-0.965071	0.85522
H	-1.537618	-0.955587	0.738535
H	-0.296424	-0.709806	1.811365
C	0.275876	0.566069	-2.408738
N	0.909307	1.081542	-3.251164
Cl	-3.50751	0.0	0.0
