14

C	0.0	0.0	0.0
C	-0.48731	-0.113141	-1.445081
F	1.361063	0.0	0.0
H	-1.548543	0.161324	-1.449031
H	-0.431118	-1.172585	-1.714654
N	-0.348988	1.403949	0.537012
O	-0.477737	2.288915	-0.303407
O	-0.365006	1.552815	1.750635
N	-0.503732	-0.948464	0.906555
H	-0.324954	-1.876835	0.541731
H	-1.520848	-0.813911	0.948903
C	0.29028	0.641749	-2.421364
N	0.925586	1.177265	-3.250183
Cl	-3.491235	0.0	0.0
