14

C	0.0	0.0	0.0
C	-0.472892	0.353753	-1.409327
F	1.366378	0.0	0.0
H	-0.039318	1.302738	-1.722801
H	-1.568033	0.429315	-1.365454
N	-0.352575	1.186841	0.923112
O	-0.198703	2.300914	0.426616
O	-0.648769	0.953107	2.083745
N	-0.490828	-1.178185	0.583014
H	-1.507137	-1.070106	0.670759
H	-0.303827	-1.95279	-0.043914
C	-0.070125	-0.704687	-2.327872
N	0.265233	-1.551356	-3.068817
Cl	-3.500204	0.0	0.0
