14

C	0.0	0.0	0.0
C	-0.527188	-0.16453	-1.416077
F	1.360681	0.0	0.0
H	-0.516749	-1.236976	-1.626503
H	-1.572419	0.163421	-1.435508
N	-0.271048	1.464349	0.483999
O	-0.159768	1.643853	1.693996
O	-0.492742	2.329031	-0.354033
N	-0.527184	-0.949366	0.868706
H	-0.31065	-0.680473	1.822346
H	-1.548568	-0.931578	0.747809
C	0.279358	0.518593	-2.420086
N	0.908192	1.033413	-3.266337
Cl	-3.516735	0.0	0.0
