14

C	0.0	0.0	0.0
C	-0.519124	0.11208	-1.420052
F	1.39724	0.0	0.0
H	-1.570752	0.418795	-1.370306
H	-0.490969	-0.895998	-1.840287
N	-0.257257	1.336324	0.762643
O	-0.115283	1.277472	1.980577
O	-0.511813	2.343023	0.11485
N	-0.513481	-1.102636	0.668728
H	-1.535183	-1.074598	0.552468
H	-0.293713	-1.025146	1.655284
C	0.265721	1.000956	-2.267223
N	0.868492	1.683661	-3.007878
Cl	-3.505899	0.0	0.0
