14

C	0.0	0.0	0.0
C	-0.520213	-0.150877	-1.413649
F	1.394311	0.0	0.0
H	-1.579137	0.135547	-1.413725
H	-0.46631	-1.216868	-1.649449
N	-0.259905	1.456318	0.505727
O	-0.113215	1.621409	1.713679
O	-0.525151	2.327221	-0.31245
N	-0.511584	-0.960496	0.861721
H	-0.282378	-0.703417	1.815263
H	-1.533968	-0.950978	0.751248
C	0.249782	0.587557	-2.408303
N	0.855734	1.098293	-3.274144
Cl	-3.507758	0.0	0.0
