14

C	0.0	0.0	0.0
C	-0.535753	0.063938	-1.42023
F	1.356052	0.0	0.0
H	-0.510596	-0.958997	-1.804625
H	-1.586737	0.372727	-1.375713
N	-0.275175	1.365764	0.71633
O	-0.151542	1.348013	1.938273
O	-0.513875	2.352192	0.031908
N	-0.523336	-1.079792	0.705497
H	-1.545198	-1.045636	0.597591
H	-0.296857	-0.973521	1.688375
C	0.25458	0.913195	-2.30253
N	0.891359	1.542193	-3.061359
Cl	-3.524443	0.0	0.0
