14

C	0.0	0.0	0.0
C	-0.494136	-0.011766	-1.447553
F	1.352912	0.0	0.0
H	-0.426487	-1.047765	-1.794481
H	-1.557991	0.252721	-1.428749
N	-0.353004	1.362962	0.63648
O	-0.519887	2.300549	-0.137787
O	-0.330797	1.430188	1.856921
N	-0.507821	-1.009567	0.838555
H	-0.32572	-1.910217	0.411018
H	-1.525969	-0.878213	0.881928
C	0.272731	0.821982	-2.367096
N	0.899276	1.430045	-3.151681
Cl	-3.497315	0.0	0.0
