14

C	0.0	0.0	0.0
C	-0.493377	0.181205	-1.436043
F	1.353659	0.0	0.0
H	-1.590125	0.241574	-1.384539
H	-0.082945	1.0992	-1.858243
N	-0.35566	1.292951	0.767661
O	-0.829065	1.202593	1.889008
O	-0.042064	2.334297	0.193228
N	-0.489968	-1.097704	0.730099
H	-0.321626	-1.942654	0.195435
H	-1.502101	-0.973609	0.827505
C	-0.08184	-0.965713	-2.234851
N	0.267126	-1.894933	-2.861923
Cl	-3.541521	0.0	0.0
