13
Coordinates from ORCA-job run
  C   0.86601206062317     -0.09559439817729     -0.26615437268076
  C   -0.46825709710169      0.57963860006842      0.14658270692900
  Br  1.37667932165816      0.56151204419483     -2.03894158936333
  H   -0.31587251993948      1.65993569835145      0.19813393639006
  C   1.88536231731166      0.32618223902934      0.69344584319172
  N   2.67958292889787      0.69399337762367      1.47953906460272
  C   0.78255163257105     -1.55373671787275     -0.29575935235233
  N   0.76875413076327     -2.72994047310203     -0.29059966957767
  C   -0.93834035663477      0.04446415052166      1.41716936456285
  N   -1.30458449030673     -0.38169898091362      2.44963910293618
  N   -1.52722262939789      0.35154503834019     -0.91411228675968
  O   -1.79422933036862     -0.81556164879329     -1.16546557019855
  O   -2.00743596807600      1.36026107072943     -1.41347717768020
