13
Coordinates from ORCA-job run
  C   0.70550092714972     -0.50020764586947      0.05233923926251
  C   -0.41590711914640      0.56993192776061     -0.06763992618191
  Br  0.22754593486737     -1.81349271389990      1.42060485113914
  H   -0.17517879053712      1.22246626308480     -0.91354054154939
  C   0.93325187286406     -1.19401989894695     -1.21409695739206
  N   1.17365829207262     -1.75218312217722     -2.22123822467776
  C   1.93331226045161      0.18065713548225      0.46079079140122
  N   2.91088101096394      0.75473378862878      0.77509479683174
  C   -0.55158753679425      1.33789576670482      1.15918001662643
  N   -0.63590083320209      1.99207522976703      2.13171092335194
  N   -1.73058169284588     -0.10253559427790     -0.43210196803771
  O   -1.77622578359716     -0.53056908370404     -1.57897765356007
  O   -2.59676854224643     -0.16475205255281      0.42787465278591
