13
Coordinates from ORCA-job run
  C   0.76023471872404     -0.41334763527105      0.01758122368767
  C   -0.48319663997391      0.51881271815752     -0.03495989874487
  Br  0.46751339675377     -1.83775817802169      1.32608382421860
  H   -0.33975494635147      1.23236448997051     -0.85319309620757
  C   1.04477860188321     -1.01403619093281     -1.28447280425152
  N   1.32960849426245     -1.48814056169621     -2.32256384990412
  C   1.90614064827493      0.38900026701100      0.44306455570705
  N   2.81656999385222      1.05763285031662      0.77192405924601
  C   -0.68286611864442      1.20850945990546      1.22900191953994
  N   -0.81962842450192      1.80000272039330      2.23508048604442
  N   -1.71568729390198     -0.28970652659539     -0.41025846500311
  O   -2.55233334406741     -0.48995079856793      0.45784972443252
  O   -1.73237908630951     -0.67138261466932     -1.57413767876501
