13
Coordinates from ORCA-job run
  C   0.84857835887331     -0.21689054138813     -0.25112092465083
  C   -0.39412168262333      0.64113577630090      0.10478040825795
  Br  1.44358671052957      0.26082633633894     -2.05338255966980
  H   -0.10971265717422      1.69573182423266      0.09430239663746
  C   1.90702406505781      0.13324834390200      0.69509208365686
  N   2.73469768904968      0.44222890990800      1.47170098105095
  C   0.58619726101767     -1.65269528487541     -0.19160583844721
  N   0.43454823316836     -2.81644930196553     -0.11081074124769
  C   -0.93328394223506      0.24590954218127      1.39900851996696
  N   -1.35543752847006     -0.06726894787852      2.45048306390234
  N   -1.46809279027516      0.48150459299518     -0.95336758211972
  O   -1.87479899399493     -0.65725127312662     -1.14003082672393
  O   -1.81918472292365      1.50997002337527     -1.51604898061333
