13
Coordinates from ORCA-job run
  C   0.93331072595307     -0.03513740819921     -0.13161271649040
  C   -0.46142015145551      0.63770312597825     -0.14478126295693
  Br  2.24907248025006      1.42042205518460     -0.21586792916151
  H   -0.52757410235044      1.30492778852314     -1.00639718488454
  C   1.18554622612801     -0.80358749017659      1.08309877161437
  N   1.43655138868526     -1.39393868615756      2.06897847908457
  C   1.07884641914867     -0.86453345220157     -1.32540361172987
  N   1.16084957310136     -1.51534889161385     -2.30177953167728
  C   -0.73350728015551      1.34405373819694      1.09780795928099
  N   -0.96421547831591      1.91412554589972      2.09937732184688
  N   -1.53379725073078     -0.42168959834914     -0.35714515013389
  O   -2.35286898870991     -0.18054908367253     -1.23315069853461
  O   -1.47079356154837     -1.40644764341218      0.36687555374224
