13
Coordinates from ORCA-job run
  C   0.84243776942656     -0.20853304032182     -0.27581837511090
  C   -0.39846961837079      0.63720856164104      0.11205350151564
  Br  1.37982000188023      0.27069458989334     -2.09658729697606
  H   -0.12801284246286      1.69502067377038      0.08229081142802
  C   1.92437151149753      0.15601670294148      0.63762101281167
  N   2.76939381219251      0.48167392522633      1.38845069710655
  C   0.59847166140790     -1.64726093320597     -0.20530947938041
  N   0.47237496411884     -2.81331001949099     -0.11457828962345
  C   -0.89101764139899      0.24860258800787      1.42663875131721
  N   -1.27701527381899     -0.05142890338796      2.49560525329685
  N   -1.50370873848917      0.45316392469684     -0.90948301660212
  O   -1.90517484428529     -0.69198509986186     -1.06663027354769
  O   -1.88347076169743      1.47013703009133     -1.47425329623530
