13
Coordinates from ORCA-job run
  C   0.78455621763917     -0.36136840755757     -0.00030196832268
  C   -0.51856472246038      0.48666383672484     -0.02309438518267
  Br  0.61398025863964     -1.80457906284847      1.30834231347113
  H   -0.43985288621179      1.21016159341198     -0.84146690036398
  C   1.08236943146437     -0.93821453674081     -1.31023666286766
  N   1.39011226761457     -1.39004754535002     -2.35179281839654
  C   1.88385846297909      0.51401789881954      0.40387316388151
  N   2.75971595137816      1.23598890129973      0.71321784774013
  C   -0.73638872502176      1.15849189979192      1.24745688231437
  N   -0.89375059731556      1.73198347249623      2.26092816892926
  N   -1.70197279661170     -0.40127238199965     -0.37573884042021
  O   -2.50878699931860     -0.65327078152094      0.50690599829526
  O   -1.71227586277524     -0.78755488652678     -1.53809279907793
