13
Coordinates from ORCA-job run
  C   0.76281905080978     -0.40824731835065     -0.00221157263904
  C   -0.48739721152110      0.51603843019246      0.02370813193154
  Br  0.40283491538321     -2.04126718764033      1.01254318970267
  H   -0.29762333860153      1.36433482005638     -0.64236514535062
  C   1.14398703559479     -0.77004465109664     -1.36631854524707
  N   1.50688335099288     -1.05529772340030     -2.44825843078647
  C   1.86557970150041      0.30919701409293      0.63570334882945
  N   2.74238396714310      0.91050490399527      1.13940308495848
  C   -0.78375547362098      0.96927324671040      1.37281413187973
  N   -0.99860842744087      1.37338742509331      2.45508154601835
  N   -1.67858136497477     -0.21494685972883     -0.57530333150278
  O   -1.61016539965802     -0.38043892136928     -1.78726224159500
  O   -2.56835680560690     -0.57249317855484      0.18246583380079
