13
Coordinates from ORCA-job run
  C   0.93688496855106     -0.02593018421619     -0.16250333143879
  C   -0.48321118483511      0.58194991664619     -0.17713437315860
  Br  2.18216336613278      1.49197724646774     -0.26912965911917
  H   -0.61809053333716      1.16080469260167     -1.09547616007548
  C   1.20635174246215     -0.75472159000395      1.07235435270013
  N   1.44167419330337     -1.30800516509506      2.08299516106942
  C   1.14366581770536     -0.85719911840033     -1.34529058564403
  N   1.30834040116423     -1.48526219177449     -2.32565285615497
  C   -0.74162828757179      1.40943032474804      0.99282785946645
  N   -0.95728165840127      2.06779865040279      1.94212323737563
  N   -1.55132974375058     -0.51140242902577     -0.22523668068359
  O   -2.68432782979736     -0.10463417834333     -0.42888443381791
  O   -1.18221125162568     -1.66680597400728     -0.06099253051902
