13
Coordinates from ORCA-job run
  C   0.91877166195051      0.00801312836797     -0.18952151411985
  C   -0.49513226681453      0.63790057135396     -0.09470774674234
  Br  2.20173405163292      1.49119189138501     -0.22220608151647
  H   -0.63977816643825      1.30812324901725     -0.94447186649432
  C   1.21644763413236     -0.83990903409071      0.96109791555937
  N   1.48387215868602     -1.51480646251518      1.88673323369441
  C   1.04325115846715     -0.74330042714624     -1.43615253306518
  N   1.11521043530440     -1.33779521538751     -2.44871713930734
  C   -0.69618091298994      1.32109487039545      1.17303179018762
  N   -0.86952817390658      1.88466591087995      2.18945218021196
  N   -1.52528088743547     -0.47178399902159     -0.24926290786216
  O   -2.07030334773604     -0.53686170734499     -1.34429942165338
  O   -1.68308334485254     -1.20553277589337      0.71802409110766
