13
Coordinates from ORCA-job run
  C   0.93756504817526     -0.02218373402649     -0.15682397232731
  C   -0.48121358417232      0.58866022226944     -0.16014367294153
  Br  2.18616526424692      1.49629658713015     -0.20561802115026
  H   -0.60896857100489      1.19858565930531     -1.05917567092234
  C   1.19914197754058     -0.79203438918303      1.05450339994333
  N   1.43331174167390     -1.37840229550158      2.04658399480945
  C   1.14982607021444     -0.81401487873927     -1.36535793060077
  N   1.31484489861546     -1.41362831847003     -2.36330772891858
  C   -0.74621397960055      1.37713488023770      1.03501663278920
  N   -0.96951056643076      2.00842325261609      2.00080232135037
  N   -1.55065414992302     -0.50047549012066     -0.25219768662215
  O   -2.68090241831993     -0.08531859445568     -0.45460327114926
  O   -1.18539173101512     -1.66104290106199     -0.11867839426014
