13
Coordinates from ORCA-job run
  C   0.94225045310277     -0.05292931731493     -0.12397142639833
  C   -0.45655027771816      0.60025306195444     -0.18508557645387
  Br  2.23776612948467      1.42559056293559     -0.14950257773842
  H   -0.53450321148445      1.19926965726536     -1.09709512506396
  C   1.13667896359989     -0.81233910942877      1.10662678285386
  N   1.31397429378768     -1.39273927062397      2.11392540490734
  C   1.17141459789309     -0.86901641749584     -1.31313264355379
  N   1.35421701214255     -1.48278888288153     -2.29933311141796
  C   -0.73739027685334      1.41455261260740      0.98880975582644
  N   -0.97386668947927      2.06584634815713      1.93805843399562
  N   -1.55557557829077     -0.45736433900909     -0.29813987013855
  O   -2.66571906216845     -0.01067850176731     -0.53995924411515
  O   -1.22969635401622     -1.62665640439846     -0.14120080270321
