13
Coordinates from ORCA-job run
  C   0.93262603083961     -0.04852748132102     -0.17603060271255
  C   -0.47398470933030      0.58998181281441     -0.17377479693313
  Br  2.20921388312444      1.44040975896393     -0.31638803172088
  H   -0.61100508760820      1.16350118228879     -1.09516327916244
  C   1.20576373209375     -0.77254385279645      1.06082052570525
  N   1.44845879533612     -1.32929627663102      2.06780157076434
  C   1.10205517467460     -0.89449992015700     -1.35428221227915
  N   1.23583773663795     -1.53140409953812     -2.33365035008697
  C   -0.69520151014941      1.43454111075002      0.99173185629217
  N   -0.87333017095754      2.11942372422323      1.92997455806798
  N   -1.56658507028819     -0.48012574879565     -0.19395329571280
  O   -1.21992243670470     -1.64223223103764     -0.02876160662746
  O   -2.69392636766809     -0.04922797876352     -0.37832433559441
