13
Coordinates from ORCA-job run
  C   0.86621506725849     -0.03844914000978     -0.27961919650335
  C   -0.50335101794498      0.54801585928070      0.15206414134189
  Br  1.30934865466549      0.65287309290067     -2.05712870813564
  H   -0.42201125680307      1.63620532427308      0.19907488970704
  C   1.86848641184106      0.44556678403124      0.66864956547240
  N   2.64377972649023      0.86018442716904      1.45024573146781
  C   0.87785905145902     -1.49889618814000     -0.31156864629431
  N   0.94345576791596     -2.67336659736741     -0.30871617421640
  C   -0.91839108943496     -0.01272939524797      1.43072370632220
  N   -1.23684952629183     -0.45202490517978      2.47347256551756
  N   -1.56041441524934      0.24726084004649     -0.89205278135768
  O   -2.10844683840142      1.22054782549057     -1.39232086796375
  O   -1.75968053550463     -0.93618792724687     -1.13082422535776
