13
Coordinates from ORCA-job run
  C   0.76768604992954     -0.39963906261551      0.02857531910356
  C   -0.49277555963501      0.50533589263814     -0.07355143508325
  Br  0.56811917871053     -1.65055999106663      1.51898453058860
  H   -0.40396295682087      1.11226634736087     -0.98074268856563
  C   0.99458223596776     -1.15676428979987     -1.20120849853632
  N   1.23102491189442     -1.75519984460346     -2.18589661824896
  C   1.91989519716688      0.46207035097440      0.28801991116779
  N   2.83445807915105      1.17621060861197      0.48205801168999
  C   -0.63904199359885      1.34556300152169      1.10359269762368
  N   -0.73801942658132      2.05725042800399      2.03337510798765
  N   -1.72907971247002     -0.35723200812953     -0.27932239784358
  O   -1.79899960719550     -0.88004572306287     -1.38485902115543
  O   -2.51488639651860     -0.45825570983322      0.65097508127190
