15

C	0.0	0.0	0.0
C	-0.539618	0.039871	-1.412407
Br	2.048898	0.0	0.0
H	-0.329939	0.992433	-1.895033
H	-1.659598	-0.069119	-1.191963
N	-0.489662	1.112193	0.744045
H	-0.261785	1.976615	0.263156
H	-1.528313	0.955806	0.692669
N	-0.412217	-1.154915	0.673213
H	-0.140723	-2.004243	0.204081
H	-0.137358	-1.12077	1.642886
N	-0.094209	-1.003289	-2.34311
O	0.037254	-2.159956	-1.928145
O	0.072717	-0.67785	-3.522863
H	-2.971037	0.0	0.0
