15

C	0.0	0.0	0.0
C	-0.479521	0.110114	-1.441754
Br	2.010435	0.0	0.0
H	-0.130307	-0.747712	-2.008854
H	-1.583451	0.145728	-1.34934
N	-0.434912	1.145177	0.741262
H	-0.226167	0.985557	1.722879
H	-1.466388	1.109253	0.635775
N	-0.459107	-1.299436	0.427366
H	-1.49298	-1.177803	0.396362
H	-0.204721	-1.419922	1.403721
N	-0.0254	1.323179	-2.15839
O	0.865631	1.180705	-3.003156
O	-0.580418	2.390874	-1.905758
H	-2.973819	0.0	0.0
