15

C	0.0	0.0	0.0
C	-0.630187	0.092159	-1.3508
Br	2.0714	0.0	0.0
H	-1.830644	0.14571	-0.918409
H	-0.480241	-0.824676	-1.910508
N	-0.341395	1.12294	0.807464
H	-0.146319	1.984095	0.314511
H	0.160975	1.090491	1.679835
N	-0.43053	-1.248097	0.55279
H	-0.133301	-1.299453	1.526697
H	-1.4595	-1.104122	0.536224
N	-0.284368	1.201486	-2.196514
O	-0.230344	1.004882	-3.423501
O	-0.099354	2.329856	-1.697757
H	-2.813974	0.0	0.0
