15

C	0.0	0.0	0.0
C	-0.537114	0.053749	-1.413818
Br	2.047628	0.0	0.0
H	-1.65503	0.15111	-1.193198
H	-0.324493	-0.865031	-1.956603
N	-0.411066	1.108905	0.747219
H	-0.134375	1.013149	1.712404
H	-0.139681	1.986789	0.334868
N	-0.49362	-1.157491	0.668065
H	-1.531077	-0.990898	0.629689
H	-0.273339	-1.987359	0.127273
N	-0.081137	1.155187	-2.271458
O	0.128081	0.899769	-3.462186
O	0.018443	2.28738	-1.786279
H	-2.977208	0.0	0.0
