15

C	0.0	0.0	0.0
C	-0.519152	0.004576	-1.424667
Br	2.048041	0.0	0.0
H	-0.297305	0.945645	-1.922548
H	-1.629401	-0.111765	-1.233286
N	-0.505803	1.124184	0.709181
H	-0.289087	1.977419	0.205247
H	-1.544233	0.950002	0.655198
N	-0.416936	-1.139913	0.690959
H	-0.146156	-1.095948	1.661213
H	-0.164498	-2.002845	0.236652
N	-0.032138	-1.060201	-2.317268
O	-0.018896	-2.221928	-1.899377
O	0.299621	-0.737496	-3.462497
H	-2.98548	0.0	0.0
