8
Coordinates from ORCA-job run
  C   0.68893370175795      0.21871804491005      0.05425217739190
  C   -0.79436761680266     -0.07963423484762      0.00228479135478
  Cl  1.64678337497213     -1.18298754192272     -0.51122015674426
  H   -1.10939443448762     -0.30918443560870     -1.01626483850087
  H   0.95081069988701      1.05838897081564     -0.58837746687449
  H   1.01802207388842      0.43537013566460      1.06981261499255
  H   -1.35744498745795      0.78995839372178      0.35185872377188
  H   -1.04234281175728     -0.93062933273302      0.63765415460850
