16
Coordinates from ORCA-job run
  C   0.56360610552537      0.11283878900565      0.40932861156811
  C   -0.89033477518803     -0.36907026853236      0.26794146012565
  H   1.07966945118413     -0.66451865136499      1.00042123222850
  H   -1.37068385010865     -0.26862321888551      1.25547606434523
  N   0.53793281371172      1.41144331410041      1.07194898813837
  H   0.34450058144622      1.30794670061222      2.06127531088011
  H   1.43856342723589      1.86557959309592      0.98237982499256
  C   1.24957881869799      0.23345620809923     -0.93945340288099
  H   1.13660310381000     -0.68897527808704     -1.50847244306686
  H   0.81097083890358      1.05846845302857     -1.50552127659388
  H   2.31640154783037      0.43473350457597     -0.80639986900103
  N   -0.91643730418835     -1.73704038943323     -0.25181817210367
  H   -1.86897257718177     -2.01516861067811     -0.45590601169299
  H   -0.55899912182155     -2.36492504371289      0.45938003950173
  C   -1.62964409489322      0.50811005033065     -0.64722481031354
  N   -2.24275496496370      1.17474484784552     -1.39335554612730
