16
Coordinates from ORCA-job run
  C   0.51681126922650      0.14475535838429      0.45495610640792
  C   -0.69199391072054     -0.75483245967950      0.13665530620173
  H   0.76637244066030     -0.01247769037370      1.51565998865302
  H   -0.41937440399340     -1.79466918457817      0.34836083404045
  N   0.12115206906145      1.52392120234853      0.16543079569506
  H   -0.43473614495997      1.89975526146299      0.92544232923267
  H   0.94145823945068      2.10892489727826      0.06692501747549
  C   1.71471318066679     -0.24063656273785     -0.39767571719858
  H   1.96553588623581     -1.29466730507841     -0.25981069262862
  H   1.49648924892489     -0.07405634297659     -1.45185558003255
  H   2.58779938090849      0.35312326402012     -0.11170472541184
  N   -1.03288385448033     -0.62971788607161     -1.26974837169781
  H   -1.17925821832324      0.35562815420349     -1.46097732943023
  H   -1.88408087731216     -1.13562639581975     -1.48034480560161
  C   -1.79518996246618     -0.38888786753751      1.05514341181884
  N   -2.67281434287908     -0.05853644284458      1.76354343247605
