16
Coordinates from ORCA-job run
  C   0.38441465713402      0.37030524633067      0.30547644065657
  C   -0.77535184095548     -0.43632399735385     -0.30771117595865
  H   0.12809766975582      0.55990510000465      1.35638723911691
  H   -0.42147959556085     -0.88398127574124     -1.24647438151827
  N   0.45185146032267      1.66917579215551     -0.35622200275682
  H   0.41830165328048      1.55790373534776     -1.36299095700512
  H   1.32315418746055      2.12791827063366     -0.11725813945034
  C   1.67408541756720     -0.44702854112357      0.26139800267173
  H   1.96119157266426     -0.64399924746423     -0.77600483035617
  H   2.48733661170485      0.10751956217033      0.73732592132975
  H   1.57258681591650     -1.40179120434987      0.78522731101470
  N   -1.91383886583908      0.41804736119469     -0.61830005947906
  H   -2.03633392770200      1.11225308929379      0.10780694032919
  H   -2.76168249356160     -0.12808541315628     -0.70430399837574
  C   -1.09930476928562     -1.55290865648051      0.60399811070554
  N   -1.39402855290171     -2.42690982146151      1.33164557907576
