16
Coordinates from ORCA-job run
  C   0.35110363324764      0.36814995328920      0.17933845630366
  C   -0.88452787626659     -0.46617414350774     -0.22762182773183
  H   0.10254845658453      0.85686550143928      1.12932521527546
  H   -0.65889567862536     -0.92705461528117     -1.19974917139508
  N   0.47974506608207      1.42391791390359     -0.82799161459717
  H   0.98089159130469      1.06347856644947     -1.63385183139640
  H   1.02392355486289      2.19416467858531     -0.45940598137558
  C   1.60049038520000     -0.48871597174153      0.35335435386706
  H   1.82723599762359     -1.02020387138648     -0.57732820468017
  H   2.46006391834428      0.13988950618314      0.59899175755994
  H   1.48188367380092     -1.23003573077206      1.14667775523070
  N   -2.11328365776030      0.30341331570535     -0.38090353818953
  H   -1.85579254207856      1.13979361453633     -0.89655983537700
  H   -2.43708956906924      0.59972982514330      0.53371655481516
  C   -1.10225287617698     -1.55689328931203      0.72910955426657
  N   -1.25604407707361     -2.39932525323397      1.53189835742421
