16
Coordinates from ORCA-job run
  C   0.48502436835065      0.13725560447175      0.43477317514248
  C   -0.81943520883303     -0.67236520759431      0.24401948298260
  H   0.79964992979984      0.00824006457336      1.48293467771855
  H   -0.62009872120903     -1.72132009721128      0.49176976248439
  N   0.18842075143375      1.52640431770326      0.09162721878723
  H   1.04750584705330      2.05250733044029     -0.01252157014066
  H   -0.34954192578085      1.96493485357322      0.83135233704486
  C   1.58432486519612     -0.38621931467303     -0.47478259499640
  H   1.75530665402678     -1.45377330058195     -0.31443677690782
  H   2.52539023431446      0.13386867753460     -0.27668843448909
  H   1.32309476112686     -0.21965647661322     -1.52156035045006
  N   -1.39836628653441     -0.61095514621862     -1.08918965867993
  H   -0.87522425071960     -1.21055723406849     -1.71411291606045
  H   -1.31044487866371      0.34590861957326     -1.41658865901849
  C   -1.80338853602923     -0.17430164232141      1.22174836649364
  N   -2.53321760353190      0.28102895141256      2.02065594008915
