18

C	-0.510796	-0.026524	-1.449252
C	0.0	0.0	0.0
F	-0.048099	1.140715	-2.050976
H	1.091104	0.0	0.0
C	0.033706	-1.161912	-2.217704
N	0.345214	-2.053388	-2.915654
C	-2.025524	-0.028515	-1.581014
H	-2.461435	-0.912834	-1.116792
H	-2.432196	0.862501	-1.102583
H	-2.28927	-0.013819	-2.639364
N	-0.466635	-1.26017	0.655995
O	0.172672	-2.28266	0.426556
O	-1.486063	-1.210724	1.354633
C	-0.457798	1.21933	0.772684
H	-1.537163	1.275798	0.901864
H	-0.091131	2.104574	0.253082
H	0.01098	1.195727	1.757813
Br	3.45197	0.0	0.0
