18

C	-0.52006	-0.077057	-1.444521
C	0.0	0.0	0.0
F	-0.211601	1.143631	-2.043164
H	1.091076	0.0	0.0
C	0.134306	-1.124636	-2.253206
N	0.523414	-1.939016	-3.005226
C	-2.027491	-0.253523	-1.539422
H	-2.525377	0.551313	-0.998119
H	-2.336239	-1.214585	-1.125465
H	-2.322178	-0.210692	-2.589335
N	-0.465286	-1.234456	0.701934
O	-1.236661	-1.115625	1.655224
O	-0.06925	-2.30938	0.257068
C	-0.449568	1.249209	0.728029
H	-1.532072	1.335263	0.823991
H	-0.051242	2.112005	0.194765
H	-0.013345	1.241618	1.726749
Br	3.434286	0.0	0.0
