18

C	-0.434522	-0.124659	-1.466644
C	0.0	0.0	0.0
F	-1.813565	-0.390822	-1.509747
H	1.091645	0.0	0.0
C	-0.248287	1.183692	-2.126559
N	-0.122201	2.205012	-2.694434
C	0.301782	-1.190301	-2.254598
H	0.03101	-2.17439	-1.874913
H	1.37881	-1.047827	-2.12415
H	0.028802	-1.113424	-3.308928
N	-0.45416	-1.24017	0.706826
O	-1.379456	-1.143187	1.514699
O	0.119043	-2.291037	0.428976
C	-0.538018	1.23238	0.693487
H	-1.617921	1.326345	0.574913
H	-0.304932	1.185633	1.756596
H	-0.039795	2.110111	0.279954
Br	3.454154	0.0	0.0
