18

C	-0.419484	0.077422	-1.464296
C	0.0	0.0	0.0
F	-0.127723	-1.141473	-2.066167
H	1.091466	0.0	0.0
C	-1.862248	0.333791	-1.650283
N	-2.980982	0.636424	-1.838572
C	0.396125	1.14275	-2.182751
H	1.454025	0.966281	-1.972487
H	0.117641	2.14364	-1.850203
H	0.205256	1.062347	-3.254054
N	-0.502647	-1.25848	0.625866
O	-1.58525	-1.700621	0.233102
O	0.162489	-1.729706	1.542793
C	-0.496023	1.157918	0.851323
H	-0.083453	2.096518	0.479293
H	-0.128257	1.019997	1.868935
H	-1.587995	1.215146	0.858419
Br	3.501776	0.0	0.0
