18

C	-0.439743	-0.131496	-1.464563
C	0.0	0.0	0.0
F	-1.819366	-0.403988	-1.500871
H	1.091689	0.0	0.0
C	-0.266455	1.178888	-2.125264
N	-0.168305	2.220409	-2.658985
C	0.297982	-1.192769	-2.258862
H	0.035798	-2.17864	-1.880456
H	0.019786	-1.11497	-3.311856
H	1.374549	-1.043878	-2.133633
N	-0.447662	-1.238756	0.717752
O	-1.326545	-1.130208	1.572175
O	0.090008	-2.298556	0.406084
C	-0.535628	1.234374	0.692364
H	-0.051706	2.112293	0.264219
H	-0.284654	1.197172	1.751507
H	-1.617684	1.320008	0.591279
Br	3.446512	0.0	0.0
