15

C	-0.521673	-0.025288	-1.434955
C	0.0	0.0	0.0
Br	0.069041	1.604287	-2.36837
H	1.100669	0.0	0.0
H	-0.010325	-0.832661	-1.965516
C	-2.030012	-0.12528	-1.550117
H	-2.363062	-1.076113	-1.124836
H	-2.488908	0.687828	-0.988075
H	-2.352041	-0.075742	-2.592474
C	-0.443388	-1.228271	0.651296
N	-0.780412	-2.227299	1.171987
N	-0.524049	1.168452	0.740906
H	0.095531	1.93363	0.480297
H	-0.32251	1.000131	1.722647
H	2.770237	0.0	0.0
