15

C	-0.505877	0.006102	-1.441554
C	0.0	0.0	0.0
Br	0.128888	1.635429	-2.352665
H	1.100652	0.0	0.0
H	0.00107	-0.801421	-1.973598
C	-2.013474	-0.064108	-1.591162
H	-2.305497	-0.022591	-2.643132
H	-2.376536	-1.002588	-1.161586
H	-2.475189	0.765099	-1.055045
C	-0.450087	-1.246247	0.615067
N	-0.788106	-2.260594	1.10495
N	-0.539388	1.144356	0.765257
H	-0.027524	1.95048	0.411288
H	-0.196002	1.02637	1.714932
H	2.774451	0.0	0.0
