15

C	-0.443965	0.107954	-1.464369
C	0.0	0.0	0.0
Br	-0.150029	-1.591398	-2.412147
H	1.096049	0.0	0.0
H	-1.527953	0.254879	-1.53374
C	0.326972	1.201826	-2.184034
H	0.074761	1.225413	-3.246346
H	0.081588	2.175042	-1.747623
H	1.397115	1.023304	-2.047346
C	-0.565101	-1.168758	0.669084
N	-1.035605	-2.099178	1.212469
N	-0.340838	1.204768	0.760997
H	0.472657	1.812147	0.741436
H	-1.140232	1.690563	0.372536
H	2.756663	0.0	0.0
