15

C	-0.544322	0.041086	-1.427426
C	0.0	0.0	0.0
Br	0.146489	1.624612	-2.354042
H	1.093652	0.0	0.0
H	-0.121437	-0.800439	-1.981736
C	-2.059704	0.062253	-1.500955
H	-2.407585	0.124639	-2.53433
H	-2.461282	-0.851522	-1.050133
H	-2.435411	0.927019	-0.951371
C	-0.424291	-1.262669	0.603475
N	-0.786113	-2.268684	1.097211
N	-0.420993	1.155228	0.792809
H	-1.08167	0.896039	1.513955
H	0.418068	1.517127	1.23848
H	2.723161	0.0	0.0
