15

C	-0.51699	0.103034	-1.43562
C	0.0	0.0	0.0
Br	-0.286535	-1.612486	-2.372546
H	1.101082	0.0	0.0
H	-1.598482	0.268741	-1.442402
C	0.22622	1.190526	-2.186805
H	0.034977	2.140346	-1.683542
H	-0.109065	1.252974	-3.224615
H	1.29822	0.986638	-2.145362
C	-0.511576	-1.162655	0.716868
N	-0.945598	-2.043897	1.364756
N	-0.346606	1.251886	0.696176
H	-1.083573	1.103016	1.372956
H	0.492887	1.546242	1.190256
H	2.751287	0.0	0.0
