15

C	-0.325816	0.01839	-1.475344
C	0.0	0.0	0.0
Br	-2.271941	0.127195	-1.850222
H	1.104501	0.0	0.0
H	0.070335	0.952959	-1.883159
C	0.286099	-1.168711	-2.185979
H	0.158655	-1.092199	-3.26756
H	1.354001	-1.174945	-1.93447
H	-0.166035	-2.102616	-1.845032
C	-0.501204	-1.196027	0.65468
N	-0.863962	-2.175873	1.194453
N	-0.463877	1.216423	0.69413
H	0.235584	1.919548	0.459881
H	-0.333105	1.053798	1.687915
H	2.722615	0.0	0.0
