15

C	-0.441237	0.108036	-1.463363
C	0.0	0.0	0.0
Br	-0.117353	-1.585835	-2.410179
H	1.096098	0.0	0.0
H	-1.52765	0.239193	-1.534095
C	0.315272	1.216062	-2.179575
H	0.050175	2.186081	-1.745053
H	0.068215	1.233523	-3.242593
H	1.388654	1.055348	-2.040057
C	-0.564324	-1.172571	0.663432
N	-1.033857	-2.106053	1.202382
N	-0.343081	1.201231	0.76643
H	-1.135981	1.692557	0.376704
H	0.472732	1.803469	0.754747
H	2.75767	0.0	0.0
