15

C	-0.432275	-0.000487	-1.473903
C	0.0	0.0	0.0
Br	0.10023	1.693665	-2.317474
H	1.096563	0.0	0.0
H	0.169298	-0.754604	-1.989537
C	-1.915626	-0.212716	-1.724831
H	-2.139041	-0.189423	-2.793764
H	-2.217466	-1.18279	-1.320994
H	-2.512638	0.564512	-1.240652
C	-0.46404	-1.260555	0.582314
N	-0.848357	-2.280059	1.026257
N	-0.419892	1.122896	0.825632
H	0.355578	1.777656	0.825089
H	-1.228566	1.590564	0.435971
H	2.720646	0.0	0.0
