13

C	0.0	0.0	0.0
C	-0.58403	0.817845	-1.143132
Br	1.91436	0.0	0.0
H	-1.527993	1.258947	-0.819865
H	-0.363263	-1.022406	-0.036775
H	-0.769015	0.160115	-1.988387
N	-0.395115	0.50208	1.372353
O	-0.667009	1.685801	1.504302
O	-0.336784	-0.340369	2.26024
N	0.320332	1.886338	-1.65032
O	0.877433	1.679429	-2.731903
O	0.449851	2.905206	-0.97607
Br	-3.513515	0.0	0.0
