13

C	0.0	0.0	0.0
C	-0.585656	0.103527	-1.413602
Br	1.924922	0.0	0.0
H	-1.326874	0.893469	-1.442263
H	-0.353749	-0.874815	0.534378
H	-1.047283	-0.838792	-1.68394
N	-0.371266	1.18612	0.869427
O	-0.594269	2.253976	0.321643
O	-0.323411	0.978433	2.074747
N	0.430686	0.417931	-2.458001
O	0.770707	1.591272	-2.582687
O	0.853378	-0.515923	-3.140137
Br	-3.352297	0.0	0.0
