16
Coordinates from ORCA-job run
  C   0.64216507548335     -0.46664259572616     -0.09765569816488
  C   -0.71481337167018      0.05982222399580      0.41069015232096
  F   0.53796605452716     -1.85501331133476     -0.11593388766787
  H   -0.84022834359330     -0.37703377358340      1.40905755141462
  C   1.80764210413455     -0.09227101156680      0.79585896845639
  H   1.95737935434208      0.98790783368461      0.81079264035734
  H   1.60707805326727     -0.44508026149817      1.80981923923040
  H   2.71422808872659     -0.57374530725190      0.42690376434212
  C   0.87268123088260     -0.01885471702243     -1.48274217556379
  N   1.06234348007081      0.34776056594281     -2.58212290658460
  C   -1.88240764986087     -0.36218434644458     -0.48456285468642
  H   -1.88340506517291     -1.44624895525291     -0.59812495422277
  H   -1.80243085359151      0.09983289147665     -1.47005476633208
  H   -2.82784512475549     -0.05520283822104     -0.03501379432937
  C   -0.65153815790929      1.51437486195922      0.55300862907830
  N   -0.59981487488085      2.68357874084308      0.64908009235165
