16
Coordinates from ORCA-job run
  C   0.70665156677116     -0.36228693881612      0.20911819517949
  C   -0.81578451072827     -0.19247945518867      0.02654477076568
  F   1.04840055576113      0.16672095685854      1.44744407067778
  H   -1.08872424431259     -0.69179140474273     -0.91108043651082
  C   1.52541801186642      0.35007268048402     -0.85153147723197
  H   1.24448947907651      0.01313687175824     -1.85134178710216
  H   2.58325773849151      0.13823128832696     -0.69223377068075
  H   1.37231954672644      1.42603676459263     -0.77105537845250
  C   1.03715124850577     -1.79947421501300      0.22413728307987
  N   1.30572636828949     -2.94209279049444      0.18708948986022
  C   -1.24482284013295      1.27784887965750     -0.02318456516740
  H   -2.33346276322888      1.34502465772031     -0.01824716309689
  H   -0.88073112285152      1.76023024066956     -0.93076813061624
  H   -0.86287817326684      1.81153102175330      0.84783937545812
  C   -1.51051271337033     -0.88587268212984      1.11557397481894
  N   -2.08649814759707     -1.41383587543625      1.99169554901863
