16
Coordinates from ORCA-job run
  C   0.66893458615719     -0.41842387731499      0.22817906463633
  C   -0.82221701238848     -0.15337652533344     -0.06640572190357
  F   0.91521122088764     -0.04674844657309      1.54384721131560
  H   -1.02807149219483     -0.53547314993426     -1.07367219578864
  C   1.61087385156804      0.36390396525410     -0.66808632795306
  H   2.63982173714630      0.08174705497804     -0.44223972274352
  H   1.41028726465544      0.15443299951935     -1.72067493096951
  H   1.49520561835444      1.43076019631787     -0.47823863821944
  C   0.93770250193075     -1.86342073710290      0.10731481031327
  N   1.15947211749468     -3.00728479374700     -0.03946319946926
  C   -1.18512273339308      1.33343667256754      0.00998201205918
  H   -0.71785625714608      1.89156442261598     -0.80185547555907
  H   -2.26572889859266      1.45420909788776     -0.07538070458635
  H   -0.86628428408008      1.75077872859406      0.96574404713037
  C   -1.64069192797552     -0.92340352518255      0.87534098691056
  N   -2.31353629242375     -1.51270208254648      1.63560878482710
