16
Coordinates from ORCA-job run
  C   0.68885287132376     -0.61305829127803      0.18142516832334
  C   -0.81686185050397     -0.33413392850608      0.36382397139278
  F   1.08340408891961     -1.41271573963357      1.24748897417377
  H   -1.29798221358618     -1.31455629873373      0.45823840963426
  C   1.56351351154861      0.62473294668597      0.16969367505403
  H   1.40302988031806      1.19019331786314      1.08923914838320
  H   1.34545839731381      1.25643100313522     -0.69216733219557
  H   2.60892056650791      0.31707329590107      0.12189024526474
  C   0.87462197653293     -1.39618239018434     -1.05439071233752
  N   1.00569089354370     -1.99782490673745     -2.05427576170641
  C   -1.44166156297456      0.43637588668880     -0.80311309444315
  H   -2.51647058124667      0.53294722153063     -0.64510610597339
  H   -1.02190474282466      1.43974247514746     -0.88323861268373
  H   -1.28007943952308     -0.09547293404018     -1.74234547270259
  C   -1.01722929972292      0.38076210093191      1.62610966817142
  N   -1.18230249562635      0.98568624122920      2.61872783164482
