12

C	0.0	0.0	0.0
C	-0.536861	0.03308	-1.410655
F	1.348338	0.0	0.0
H	-1.636223	0.061607	-1.330196
H	-0.39178	0.7937	0.632131
H	-0.233413	-0.879586	-1.926144
N	-0.377156	-1.294761	0.686824
O	-0.52011	-1.236335	1.903711
O	-0.386224	-2.313468	0.000845
C	-0.022921	1.199852	-2.11498
N	0.397179	2.138693	-2.680776
Cl	-3.437569	0.0	0.0
