12

C	0.0	0.0	0.0
C	-0.29302	0.026688	-1.507761
F	1.35756	0.0	0.0
H	-0.258767	-1.011934	-1.871229
H	-0.415507	0.799199	0.601791
H	0.577968	0.556806	-1.940272
N	-0.355575	-1.299937	0.682556
O	-0.42805	-1.24698	1.905426
O	-0.383911	-2.322076	0.005501
C	-1.446331	0.687601	-2.124875
N	-2.067372	1.23657	-2.959357
Cl	-3.050639	0.0	0.0
