18

C	-0.490098	-0.015675	-1.45141
C	0.0	0.0	0.0
F	0.112659	1.037386	-2.137602
H	1.10135	0.0	0.0
C	-0.061421	-1.270042	-2.10681
N	0.273953	-2.264276	-2.633277
C	-1.994262	0.135257	-1.599284
H	-2.277486	0.043357	-2.649943
H	-2.492733	-0.631284	-1.006156
H	-2.291381	1.123742	-1.246323
N	-0.533168	-1.209117	0.653167
H	0.112935	-1.968821	0.457215
H	-0.476237	-1.061087	1.655105
C	-0.469178	1.244353	0.733769
H	-1.537679	1.198488	0.968022
H	0.091874	1.332045	1.668042
H	-0.260689	2.138341	0.143737
Br	3.621057	0.0	0.0
