18

C	-0.401796	0.013419	-1.475916
C	0.0	0.0	0.0
F	0.037596	-1.167603	-2.06407
H	1.096307	0.0	0.0
C	-1.877468	0.025921	-1.598827
N	-3.048429	0.084832	-1.656139
C	0.22744	1.15861	-2.249865
H	1.299337	1.157641	-2.035239
H	0.065165	0.99933	-3.317875
H	-0.204879	2.119288	-1.96731
N	-0.502718	-1.227004	0.61315
H	0.265402	-1.711057	1.053384
H	-1.195059	-1.016181	1.317175
C	-0.466023	1.254007	0.729869
H	-0.124361	1.195761	1.766212
H	-1.55946	1.337936	0.726345
H	-0.040395	2.162412	0.299964
Br	3.588779	0.0	0.0
