18

C	-0.477819	-0.023747	-1.457263
C	0.0	0.0	0.0
F	0.091658	1.053114	-2.136958
H	1.098867	0.0	0.0
C	-0.009648	-1.260624	-2.116919
N	0.316003	-2.229316	-2.694509
C	-1.984868	0.076224	-1.620367
H	-2.462467	-0.720162	-1.050576
H	-2.250484	-0.011529	-2.676006
H	-2.323714	1.047191	-1.255781
N	-0.513735	-1.223445	0.640837
H	0.236809	-1.906944	0.646147
H	-0.725179	-1.021819	1.612004
C	-0.478652	1.244339	0.725875
H	-0.260924	2.138596	0.139725
H	0.063276	1.32913	1.671363
H	-1.552788	1.204721	0.938783
Br	3.59144	0.0	0.0
