18

C	-0.508359	-0.034569	-1.444027
C	0.0	0.0	0.0
F	0.072924	1.014339	-2.154176
H	1.09874	0.0	0.0
C	-0.091397	-1.294735	-2.094771
N	0.195419	-2.290741	-2.645445
C	-2.017071	0.101388	-1.566358
H	-2.497539	-0.659203	-0.951261
H	-2.320446	-0.01359	-2.609154
H	-2.315592	1.092986	-1.223636
N	-0.52422	-1.201952	0.676688
H	0.11398	-1.965715	0.47099
H	-0.437954	-1.046159	1.675846
C	-0.465536	1.252	0.724176
H	-0.274674	2.138861	0.11767
H	0.111749	1.35773	1.646384
H	-1.529073	1.20195	0.977869
Br	3.616354	0.0	0.0
