18

C	-0.434659	-0.060511	-1.464423
C	0.0	0.0	0.0
F	-1.83658	-0.232435	-1.509951
H	1.100374	0.0	0.0
C	-0.177596	1.215891	-2.161446
N	-0.028162	2.2313	-2.731795
C	0.218163	-1.210509	-2.202571
H	1.304725	-1.081629	-2.173144
H	-0.132641	-1.2457	-3.236359
H	-0.047604	-2.129077	-1.679657
N	-0.417264	-1.251922	0.634549
H	-1.307393	-1.130618	1.101449
H	0.279381	-1.503209	1.324449
C	-0.515209	1.244277	0.712541
H	-1.610675	1.275001	0.69663
H	-0.132459	2.16032	0.25642
H	-0.178202	1.223635	1.752071
Br	3.574885	0.0	0.0
