18

C	-0.374826	-0.068605	-1.490612
C	0.0	0.0	0.0
F	-1.755748	-0.366385	-1.600062
H	1.096714	0.0	0.0
C	-0.201866	1.231654	-2.162233
N	-0.094395	2.270576	-2.698729
C	0.401022	-1.141671	-2.225724
H	1.470951	-0.94444	-2.118822
H	0.117864	-1.164824	-3.280288
H	0.175867	-2.109569	-1.77665
N	-0.419881	-1.212769	0.703177
H	0.301384	-1.91755	0.624861
H	-1.281324	-1.572061	0.310758
C	-0.565998	1.227217	0.692728
H	-1.659315	1.238051	0.629352
H	-0.281259	1.184147	1.744086
H	-0.176216	2.151789	0.262195
Br	3.588291	0.0	0.0
