18

C	-0.441247	-0.009435	-1.473128
C	0.0	0.0	0.0
F	0.180945	1.043595	-2.14352
H	1.096198	0.0	0.0
C	-0.01611	-1.267335	-2.121786
N	0.253033	-2.265774	-2.677478
C	-1.93856	0.170137	-1.693387
H	-2.159587	0.12441	-2.760921
H	-2.240225	1.146397	-1.31368
H	-2.513806	-0.606825	-1.18679
N	-0.406549	-1.19969	0.727215
H	0.234306	-1.954503	0.515683
H	-1.348933	-1.493014	0.498392
C	-0.488236	1.247252	0.719259
H	0.049758	1.318558	1.6642
H	-1.559435	1.197621	0.939874
H	-0.279945	2.145652	0.134884
Br	3.593486	0.0	0.0
