11
Coordinates from ORCA-job run
  C   -0.75010069305425     -0.37316641836099      0.25447355742558
  C   0.44327619738464      0.51667016132435     -0.04992729216047
  Br  -0.18400140848247     -1.95325666891851      1.24247363574774
  H   0.11379907514354      1.42315700131833     -0.56476142362005
  H   -1.18539406834004     -0.73738073565030     -0.67704986055136
  H   1.01202872975288      0.76946115382717      0.84225626925755
  C   -1.74158698957337      0.36756170270285      1.02054602895091
  N   -2.53172115474197      0.99756287207764      1.61948459129667
  N   1.37822241601110     -0.17768836745402     -0.98934007926920
  O   0.86779271405542     -0.77312450644878     -1.93353811160395
  O   2.57768518184452     -0.06179619441776     -0.76461731547342
