11
Coordinates from ORCA-job run
  C   -0.75829371464681     -0.57622050073370      0.29046209267341
  C   0.16607980676473     -0.11136917235607     -0.82226467435524
  Br  0.16130451895428     -1.82622811269341      1.46885389450327
  H   0.49163961996505     -0.95211505459918     -1.43171007557116
  H   -1.56026721384066     -1.15657854039457     -0.17322299648273
  H   -0.33828049247248      0.63263073790150     -1.44529587790636
  C   -1.36866566919258      0.50115066862798      1.05879764059707
  N   -1.93864933807722      1.34542661892639      1.64336953417669
  N   1.41061163010189      0.54441501617673     -0.31146440120932
  O   1.29730592246925      1.27304643572582      0.66758909467385
  O   2.43721492997455      0.32684190341850     -0.94611423109949
