11
Coordinates from ORCA-job run
  C   -0.61213820156565     -0.43492345656203      0.44783569721100
  C   0.25798164352645      0.55171712563304     -0.31313783171747
  Br  0.35671770732393     -1.15591747406052      1.97627082506399
  H   0.64906224154153      1.33991577695019      0.32667105308722
  H   -0.84922478742982     -1.28672695882370     -0.19091310141563
  H   -0.30274422220892      0.97683759646276     -1.14990409578836
  C   -1.83271621271388      0.21921105463881      0.89531905614237
  N   -2.81456766526123      0.77221841369651      1.22724260499115
  N   1.43080010321155     -0.15682717279447     -0.91372424049501
  O   2.51990757940872      0.39905503502198     -0.82912728660067
  O   1.19792181416734     -1.22355994016256     -1.47453268047858
