11
Coordinates from ORCA-job run
  C   -0.87916888682090     -0.34946836180795      0.25665239774588
  C   0.38798634652729     -0.42117852899453     -0.58099872893005
  Br  -1.67319129441414     -2.12973724246260      0.30804112395098
  H   1.14659342576085     -1.05604778251257     -0.12696843181878
  H   -1.61149205469534      0.30694731984284     -0.21077993702074
  H   0.16319742474132     -0.77347064428191     -1.58917568968089
  C   -0.60127405309665      0.11002646280779      1.61019657611275
  N   -0.34949938540909      0.48265072621400      2.69537773241358
  N   0.99189461430205      0.94352921532954     -0.73405026393903
  O   0.22040681682165      1.89975546833413     -0.72043481598975
  O   2.20354704628297      0.98799336753126     -0.90685996284395
