11
Coordinates from ORCA-job run
  C   -0.75806953928990     -0.25168933855208      0.35623426086267
  C   0.49026534051342      0.45485606885168     -0.14549864314754
  Br  -0.27436857758672     -1.81008571895506      1.42043310973476
  H   1.17483344412349      0.71085619932493      0.66036370056660
  H   -1.33446248658894     -0.62856836132995     -0.48963950619271
  H   0.21280774554184      1.34651387426628     -0.71409694889068
  C   -1.56267113772603      0.66411362336675      1.15120816713533
  N   -2.19602156801522      1.43340032028935      1.77337844552728
  N   1.23338828068909     -0.43051957728412     -1.09564519623312
  O   2.45258177451197     -0.47431152103621     -0.97764978235566
  O   0.56071672382700     -1.01456556894158     -1.94008760700693
