11
Coordinates from ORCA-job run
  C   -0.82914332594905     -0.18696482069752      0.20396049394736
  C   0.58184638188630      0.35762660331388      0.05494069704551
  Br  -0.78222961036758     -2.08462189141570      0.64040517116539
  H   1.19843839533425      0.15913596556690      0.92899623423447
  H   -1.35728650257627     -0.10658197590118     -0.74704818657143
  H   0.54810390388122      1.42944316639455     -0.15801063196265
  C   -1.53903674838299      0.54541592834063      1.24206259876589
  N   -2.08903324240932      1.16690355987431      2.07352461354349
  N   1.25536436606509     -0.28036047837058     -1.11870895844749
  O   2.41999908498055     -0.63184973212870     -0.96898771694319
  O   0.59397729753781     -0.36714632497658     -2.14913431477735
