11
Coordinates from ORCA-job run
  C   -0.77021685603085     -0.30789133960369      0.27631297908593
  C   0.47053805650201      0.48918529945744     -0.09053006359448
  Br  -0.28825077243195     -1.85296646016796      1.36032825657372
  H   0.18982463729544      1.37191537028120     -0.67129619043073
  H   -1.23510218913019     -0.70393841172817     -0.62743701085293
  H   1.05438740210949      0.77397924704500      0.78218743340783
  C   -1.70847256799913      0.53593075156278      1.00126470620109
  N   -2.45055114833122      1.24782439954570      1.56913225440636
  N   1.36033516501283     -0.32638099251122     -0.97441312474089
  O   0.81417501168163     -0.93485448734496     -1.88984536755925
  O   2.56233326132194     -0.29380337653611     -0.73670387249664
