11
Coordinates from ORCA-job run
  C   -0.89969786851179     -0.35855160261527      0.14991001152165
  C   0.49350397821503     -0.46937218933726     -0.44946293507896
  Br  -1.64107055007085     -2.15615068194025      0.29751157140997
  H   0.45483392719775     -0.95387132003295     -1.42658301050717
  H   -1.55957131629280      0.19878926084989     -0.51314042716535
  H   1.18127639562093     -1.00463263611054      0.20262555320914
  C   -0.87038686535879      0.27579133249443      1.46037698921360
  N   -0.81770860166809      0.78865594478247      2.51588531553931
  N   1.07522067537529      0.89502398470104     -0.67508239830343
  O   0.28565005290127      1.80710355475003     -0.90901126780101
  O   2.29695017259204      0.97821435245842     -0.65102940203774
