11
Coordinates from ORCA-job run
  C   -0.81439690463309     -0.47529877865835      0.31918164391192
  C   0.25854370269496     -0.30997719958384     -0.74425421372068
  Br  -0.10092498217756     -1.41382362611443      1.87080488617318
  H   -0.13039322825414      0.27041998457085     -1.58559798075330
  H   -1.57996767646741     -1.13948090246915     -0.09035703873789
  H   0.61390375710972     -1.27908681630581     -1.08873820003069
  C   -1.46277036594492      0.76598615330528      0.72208484953211
  N   -2.05803280075897      1.73615351026329      1.01176588074900
  N   1.46213191360915      0.42737192996582     -0.24762427685986
  O   1.26516810664007      1.38234215201224      0.49498962771361
  O   2.54773847818219      0.03539359301409     -0.66225517797740
