17

C	0.0	0.0	0.0
C	-0.257642	-0.036731	-1.564411
Cl	1.739964	0.0	0.0
H	0.460143	-0.797147	-1.883247
N	-0.455022	1.245732	0.726679
O	-0.823653	2.188665	0.047054
O	-0.272393	1.252737	1.937172
N	-0.480104	-1.292251	0.643816
O	-0.366027	-2.267295	-0.096019
O	-0.79301	-1.319047	1.816356
C	0.233289	1.208328	-2.171194
N	0.599732	2.143586	-2.779901
C	-1.572321	-0.425764	-2.239154
H	-1.343737	-0.541476	-3.309122
H	-2.336981	0.319411	-2.065405
H	-1.926252	-1.367117	-1.833749
F	-2.293232	0.0	0.0
