15
Coordinates from ORCA-job run
  C   -0.71495022247870     -0.19330903046074     -0.22981470567926
  C   0.78394877830964     -0.49123878625801     -0.26708848816954
  H   -1.21620823451959     -1.01150377906823     -0.75517054118126
  H   1.15946414773019     -0.39367932392077     -1.28950763070814
  N   -0.98380492694706      1.02059137733227     -1.15189633877880
  O   -1.77748188668098      1.85810621187316     -0.75007182032939
  O   -0.41754926753716      1.00930288384751     -2.23988232560466
  N   -1.21608479507966     -0.07135755096948      1.08035202916079
  H   -2.22041706806791     -0.16980097147723      1.11026270229802
  H   -0.95695201985434      0.81315987359134      1.49663416428126
  C   1.05504977954769     -1.82559305214562      0.24895381655256
  N   1.24936810778140     -2.92336774532935      0.61656718373468
  N   1.56088916049553      0.53582495258416      0.53580793402114
  O   1.04381000660340      1.64550986438006      0.62390387624780
  O   2.65091844069756      0.19735507602094      0.96995014415479
