15
Coordinates from ORCA-job run
  C   -0.46365214601027      0.09788832218757     -0.45933732603469
  C   0.62364472567652      0.10016328019915      0.61669131911104
  H   -0.03159470553766      0.34816003784352     -1.43625013067109
  H   0.17388966359050      0.06958009420550      1.60872541490070
  N   -1.43173855694752      1.22137393454808     -0.15823132490417
  O   -2.45002318974069      1.23464987611060     -0.84027878088846
  O   -1.12882626725011      2.03386922163405      0.70961855066912
  N   -1.20745635915185     -1.13470250714391     -0.40165231501021
  H   -2.11353408585190     -0.98740280194923     -0.83201181162831
  H   -0.72051093677189     -1.84158239195530     -0.93922828521535
  C   1.55671099010052      1.21278443620039      0.48056891505675
  N   2.32572443238409      2.08831345471177      0.33433280024368
  N   1.42195403037377     -1.17880939727978      0.47483131783920
  O   1.77736461683769     -1.71996575875725      1.51188857727520
  O   1.66704778829881     -1.54431980055516     -0.67166692074339
