15
Coordinates from ORCA-job run
  C   -0.50032650840959     -0.33795458137970     -0.50586860163633
  C   0.74003311117663     -0.44238385159921      0.37703273879196
  H   -0.23130358796533     -0.66532078209895     -1.51418445044412
  H   0.94205355890479     -1.50875197617262      0.51579166455533
  N   -0.85779591265475      1.15504377984390     -0.64692557500631
  O   0.07373465711375      1.90896097555173     -0.91688124483370
  O   -2.03182662197151      1.47222786473244     -0.48271104962796
  N   -1.54646992932037     -1.12180544459595      0.03078032871396
  H   -2.28474137487325     -1.23926060871126     -0.65548812372179
  H   -1.94072468285321     -0.69534951203206      0.86383910689418
  C   0.52912910181621      0.20248020324355      1.66609526621500
  N   0.25968952313637      0.67264558926991      2.70341305272508
  N   1.98188710265609      0.09777791673932     -0.31747208122004
  O   2.15305655797200     -0.32500254781688     -1.44918319048102
  O   2.71560500527217      0.82569297502578      0.33176215907576
