15
Coordinates from ORCA-job run
  C   -0.72026307611964     -0.23082894073302     -0.17530136498541
  C   0.78006154484340     -0.52095893403556     -0.21606426002293
  H   -1.22662750676066     -1.12050819220961     -0.56090691307639
  H   1.12167285021866     -0.58019951544852     -1.25320060724664
  N   -1.02709277360512      0.83406321723166     -1.25622745076113
  O   -1.80594068192188      1.72553139520469     -0.95433340762547
  O   -0.50119028375928      0.65931961020108     -2.35085583811525
  N   -1.18628004356080      0.07689544429903      1.11669254884527
  H   -2.18825197257223     -0.02376741773952      1.18978503711070
  H   -0.92369553202049      1.01298989230248      1.39409667806286
  C   1.08295923468461     -1.75709981424609      0.49145782214130
  N   1.28711489998610     -2.78199621960810      1.02641566424878
  N   1.57435601021766      0.62106101073226      0.39124328543484
  O   1.03769514447390      1.72431245239010      0.35820577497445
  O   2.69548218589577      0.36218601165912      0.79999303101502
