15
Coordinates from ORCA-job run
  C   -0.50555184762115     -0.34250899949156     -0.49471312388799
  C   0.75590977149072     -0.43682929343750      0.37141991075997
  H   -0.25578886273141     -0.66305160888725     -1.50816447881074
  H   0.96862166806606     -1.49979447121947      0.50073184845575
  N   -0.85069330762373      1.14759458222037     -0.63119771124154
  O   -2.02012288441778      1.46342838890835     -0.45452647854632
  O   0.08000572486564      1.89038671298783     -0.91347429092079
  N   -1.54190250570116     -1.12932752423602      0.04527869427495
  H   -1.95149245737120     -0.71722057662182      0.87916317324916
  H   -2.28283194518771     -1.26948179755024     -0.62845340221751
  C   0.54331968248953      0.20664660061764      1.66203345915432
  N   0.22932067014967      0.66052129904354      2.69660798009609
  N   1.97529619126431      0.11798854093868     -0.33284998005653
  O   2.74188529686028      0.83564275856236      0.29789268747874
  O   2.11402480546792     -0.26399461183492     -1.48874828778756
