17

C	0.0	0.0	0.0
C	-0.609056	0.092489	-1.399575
Cl	1.796994	0.0	0.0
H	-1.714909	0.142468	-1.120809
C	-0.469881	1.08875	0.961455
H	-0.104638	0.853801	1.963713
H	-1.564005	1.045105	0.907111
H	-0.082538	2.059463	0.655718
C	-0.396909	-1.308284	0.541863
N	-0.593556	-2.342382	1.062385
N	-0.264958	-1.03153	-2.194592
H	0.673532	-0.940022	-2.564442
H	-0.913961	-1.123164	-2.96355
N	-0.188109	1.405207	-2.043876
O	0.594572	1.356429	-2.998049
O	-0.668958	2.446641	-1.60191
F	-2.832905	0.0	0.0
