17

C	0.0	0.0	0.0
C	-0.610393	0.225335	-1.411688
Cl	1.792699	0.0	0.0
H	-1.644172	0.533848	-1.155784
C	-0.457386	1.056443	1.003534
H	-1.551176	0.988287	0.986247
H	-0.105395	2.037092	0.682937
H	-0.044447	0.826285	1.988346
C	-0.418567	-1.331373	0.449463
N	-0.584943	-2.445225	0.784342
N	-0.665343	-0.90442	-2.278969
H	-1.455433	-1.458203	-1.969383
H	0.180655	-1.460411	-2.23794
N	0.13539	1.339872	-2.08064
O	0.969113	1.057397	-2.93905
O	-0.125391	2.486451	-1.708489
F	-2.785641	0.0	0.0
