17

C	0.0	0.0	0.0
C	-0.284448	0.077464	-1.554006
Cl	1.811979	0.0	0.0
H	0.365286	-0.696602	-1.979794
C	-0.326496	1.231496	0.855735
H	-1.404836	1.244024	0.969164
H	0.198544	1.138182	1.81058
H	0.029494	2.130014	0.35085
C	-0.462409	-1.244349	0.596578
N	-0.566138	-2.275929	1.154911
N	0.020357	1.412967	-2.025199
H	0.122874	1.357245	-3.031612
H	0.914273	1.690052	-1.640442
N	-1.545318	-0.274685	-2.509333
O	-2.727746	-0.341041	-2.277797
O	-1.069294	-0.410249	-3.651827
F	-2.299981	0.0	0.0
