17

C	0.0	0.0	0.0
C	-0.568575	0.050665	-1.420322
Cl	1.796819	0.0	0.0
H	-1.674467	0.081235	-1.191392
C	-0.477573	1.135935	0.89832
H	-0.070137	2.086775	0.5578
H	-0.137589	0.945099	1.918395
H	-1.571551	1.096537	0.819448
C	-0.412749	-1.285723	0.576582
N	-0.608896	-2.309366	1.116906
N	-0.144501	-1.065265	-2.186339
H	-0.7052	-1.149461	-3.022328
H	0.827264	-0.966405	-2.452169
N	-0.16346	1.373886	-2.06403
O	-0.788617	2.384037	-1.747241
O	0.754657	1.357333	-2.889966
F	-2.804422	0.0	0.0
