17

C	0.0	0.0	0.0
C	-0.426306	0.27506	-1.487097
Cl	1.794466	0.0	0.0
H	0.466503	0.614584	-2.021924
C	-0.485896	1.104027	0.93119
H	-0.155098	2.07331	0.559026
H	-0.079995	0.929846	1.930696
H	-1.577545	1.02706	0.923785
C	-0.440707	-1.290822	0.532777
N	-0.682589	-2.30987	1.064464
N	-1.483305	1.172785	-1.624142
H	-2.297226	0.769302	-1.047395
H	-1.70889	1.277973	-2.604745
N	-0.642452	-1.103523	-2.203917
O	0.215346	-1.967108	-2.027209
O	-1.58104	-1.190474	-2.988141
F	-2.940892	0.0	0.0
