19

C	-0.493318	-0.106629	-1.423727
C	0.0	0.0	0.0
Br	0.343659	1.213446	-2.605309
H	1.094567	0.0	0.0
N	-0.298149	-1.379393	-2.003068
H	-0.629933	-1.396746	-2.958835
H	-0.786033	-2.080662	-1.462989
N	-2.030426	0.261875	-1.416067
O	-2.393883	1.432325	-1.433036
O	-2.790502	-0.704149	-1.278379
C	-0.38893	-1.22244	0.830101
H	0.117505	-2.118436	0.462868
H	-1.470931	-1.394489	0.875382
H	-0.021944	-1.060275	1.847055
C	-0.417105	1.285672	0.703327
H	0.206656	1.384081	1.596323
H	-1.470575	1.289911	1.006426
H	-0.235453	2.162462	0.080123
H	2.793734	0.0	0.0
