19

C	-0.164837	0.098344	-1.497833
C	0.0	0.0	0.0
Br	-2.030312	0.806759	-2.111941
H	1.099275	0.0	0.0
N	0.829486	0.903306	-2.011638
H	0.948758	0.795516	-3.009336
H	1.719722	0.722148	-1.492096
N	-0.202816	-1.314514	-2.19111
O	0.661451	-1.526319	-3.039261
O	-1.068003	-2.114912	-1.857215
C	-0.558764	-1.20344	0.730913
H	-1.643329	-1.286743	0.618144
H	-0.325702	-1.083154	1.793861
H	-0.104252	-2.137868	0.400727
C	-0.410117	1.303625	0.674646
H	-0.080542	2.163278	0.090182
H	-1.495089	1.36123	0.809
H	0.073796	1.353371	1.655359
H	2.766934	0.0	0.0
