19

C	-0.229082	0.086796	-1.497709
C	0.0	0.0	0.0
Br	-2.054711	0.75205	-2.005174
H	1.098674	0.0	0.0
N	0.741168	0.874014	-2.187821
H	0.532751	1.851031	-2.027973
H	1.647377	0.670694	-1.72649
N	-0.137682	-1.336168	-2.083201
O	0.967504	-1.667886	-2.49003
O	-1.123058	-2.063829	-2.026477
C	-0.555394	-1.214011	0.719873
H	-0.318033	-1.125075	1.784633
H	-0.095826	-2.138802	0.365609
H	-1.641182	-1.298013	0.609936
C	-0.39068	1.289806	0.708769
H	-1.47185	1.362587	0.864016
H	0.11435	1.310964	1.679369
H	-0.058045	2.17195	0.156923
H	2.802651	0.0	0.0
