19

C	-0.218976	0.095907	-1.500481
C	0.0	0.0	0.0
Br	-2.012241	0.834882	-2.024054
H	1.098632	0.0	0.0
N	0.782841	0.845485	-2.187074
H	1.67885	0.624979	-1.712224
H	0.60002	1.830423	-2.045163
N	-0.174659	-1.335402	-2.069323
O	0.934719	-1.72225	-2.419295
O	-1.193246	-2.020106	-2.042499
C	-0.566732	-1.218385	0.702122
H	-1.654315	-1.288106	0.594726
H	-0.12032	-2.143106	0.330499
H	-0.32435	-1.149395	1.767063
C	-0.381641	1.288546	0.714589
H	-0.036439	2.169607	0.168127
H	-1.462526	1.372945	0.863804
H	0.11789	1.299925	1.687905
H	2.809579	0.0	0.0
