12
Coordinates from ORCA-job run
  C   0.97639946787926      0.15985335353327     -0.31281456984643
  C   -0.34087474185400      0.35524051847931     -0.12011879798206
  H   1.60015262368273      0.87593196535423     -0.83055852302742
  N   1.67477497545550     -1.03393347758677      0.09692917001475
  O   2.73757375253868     -1.25159403661358     -0.48606430688157
  O   1.19616171687141     -1.71991431782097      0.99843769051931
  N   -1.21323762815181     -0.66559012718218      0.49578169792887
  O   -1.79020976270889     -0.30652424129562      1.51967072111768
  O   -1.34040444433488     -1.72858912931755     -0.09430105686819
  N   -1.08126927211722      1.42969038452548     -0.52962788709302
  H   -1.86711307909596      1.64152282204768      0.06850225147724
  H   -0.55295360816482      2.24390628587669     -0.80383638935914
