12
Coordinates from ORCA-job run
  C   0.99893745337401      0.28153148436333     -0.00974667289045
  C   -0.34313032053435      0.37040548270074     -0.04837142371825
  H   1.64069147486652      1.14995442120370     -0.07208240295183
  N   1.71531468175556     -0.96896065707524      0.06273456609585
  O   1.14355734254819     -1.95248158018248      0.52947155722039
  O   2.88223439558290     -0.93331798625589     -0.32918957321162
  N   -1.21698918121346     -0.82081212700600     -0.07018468495361
  O   -2.03118872237408     -0.88535537054982      0.84816164569332
  O   -1.10668158033150     -1.58423037401481     -1.01855485942123
  N   -1.08880098140751      1.50986778693526     -0.16987968509071
  H   -0.59933533937057      2.37400859078160      0.00491081780573
  H   -1.99560922289569      1.46039032909962      0.27173071542242
