12
Coordinates from ORCA-job run
  C   0.64404371882419     -0.58884041354362     -0.36234417814246
  C   -0.48226023442173      0.02098168506625      0.03773840950566
  H   0.72306005113198     -1.52276635051097     -0.89900818289715
  N   1.95175555504734     -0.03760305326918     -0.01559499096522
  O   2.84364831791865     -0.20915782664390     -0.84363225978037
  O   2.05336831574089      0.61053042431198      1.02834731496997
  N   -1.72088309959983     -0.73890240816786     -0.38321683949799
  O   -1.78305969939165     -1.10531121746139     -1.55528360130973
  O   -2.60400666479493     -0.83571491277829      0.45815262192885
  N   -0.72720939543654      1.14463739928193      0.79143056511735
  H   -0.01460569419533      1.28041901027685      1.49520724226351
  H   -0.88485117082304      1.98272766343819      0.24820389880758
