12
Coordinates from ORCA-job run
  C   0.92079612895550      0.21532248905829      0.42797867184051
  C   -0.31703315241713      0.38975754350364     -0.07029054217653
  H   1.50381510585206      1.03107799595565      0.83351492676541
  N   1.61389787824710     -1.05013443179546      0.42120432039691
  O   0.95399815549520     -2.08652739685900      0.37023201784349
  O   2.84066967901005     -0.98144865352209      0.50516487611025
  N   -1.07174113524018     -0.70047773937471     -0.72189570981797
  O   -0.59043707118875     -1.19570947046116     -1.73054155034000
  O   -2.16119767514459     -0.95483582070978     -0.21305736667555
  N   -1.01484785701603      1.56283332323149     -0.14523816786071
  H   -2.01742553484765      1.45294845557487     -0.09602832451772
  H   -0.66149452170560      2.32019370539825      0.41895684843192
