12
Coordinates from ORCA-job run
  C   0.98093782806974      0.24416621068724      0.23573216233501
  C   -0.35448488580685      0.34628933104891      0.10577333210722
  H   1.58641804463161      1.04024557637412      0.64741372876267
  N   1.72767048775165     -0.94335835513699     -0.10131657194760
  O   2.82599607813238     -1.05047853472619      0.44544959771062
  O   1.24967613749436     -1.73209243918805     -0.91468203453400
  N   -1.19578486644885     -0.77810246396052     -0.35365145126825
  O   -1.86550126744110     -0.54937320721428     -1.35845430721547
  O   -1.20874200472642     -1.79015272435167      0.33184407034743
  N   -1.13511527425969      1.41346789263556      0.45388134513769
  H   -1.96807020237116      1.51737434987181     -0.10758630759334
  H   -0.64500007502568      2.28001436396004      0.61459643615802
