12
Coordinates from ORCA-job run
  C   0.66022518151850     -0.46412243982942      0.59153153702140
  C   -0.42755220337036      0.02334476472308     -0.05938252912144
  H   0.60122656079265     -1.25435986715550      1.32104096597409
  N   1.97343291834666      0.03746957154141      0.33644110475152
  O   2.11761681988096      0.94756666287801     -0.49442524161094
  O   2.89434232599122     -0.48075432492493      0.96839223373128
  N   -1.73187479575926     -0.61964526111733      0.27036359137242
  O   -2.68248310753821     -0.30881704586916     -0.44578425578901
  O   -1.76754791333501     -1.40553336110626      1.20914855063042
  N   -0.54729900657638      1.03529560370033     -0.93087763732019
  H   -1.40347889650008      1.08329964485600     -1.45954738345711
  H   0.31239211654930      1.40425605230378     -1.30790093618245
