12
Coordinates from ORCA-job run
  C   0.67707382528921     -0.74052595479647      0.01651807780694
  C   -0.42385094309865      0.05738597010375     -0.01586583606544
  H   0.60102080942135     -1.81501424217578      0.03347941200305
  N   1.99516580281403     -0.19966154425828      0.09068308134934
  O   2.13468948155168      1.03334985247480      0.10446210085387
  O   2.92349642376714     -1.00700989730161      0.13950774685103
  N   -1.73720140744315     -0.64487819014769     -0.10190822775118
  O   -2.73098207434816      0.07970093740881     -0.14792333022327
  O   -1.74725577307614     -1.86423213836271      0.00847614432798
  N   -0.54361447625957      1.38984757569299      0.06812809854354
  H   0.29956829891868      1.93124532332034     -0.04281505794068
  H   -1.44710996753641      1.77779230804185     -0.15174220975519
