12
Coordinates from ORCA-job run
  C   0.70001314273353     -0.52087412644376      0.48972309468018
  C   -0.42790652566674      0.06019720830332      0.00525918286604
  H   0.68389446926402     -1.30518894778289      1.22779314058928
  N   1.99779048932737     -0.13321225690108      0.03494206047308
  O   2.09218386908324      0.76400735445462     -0.81681191979615
  O   2.95580988380704     -0.73064718164802      0.52605891952616
  N   -1.71769861765348     -0.46896627162635      0.53475756053859
  O   -2.73571883339343     -0.07211931753645     -0.03027920498565
  O   -1.67792711807251     -1.25465232824699      1.47350782450829
  N   -0.59105736338752      1.08113701841008     -0.84852262759736
  H   -1.50992144864295      1.20413580580293     -1.24265474344055
  H   0.23053805260143      1.37618304321460     -1.35377328736191
