12
Coordinates from ORCA-job run
  C   0.99750440419254      0.27906021987786      0.07513950449913
  C   -0.34566473359594      0.35620526964401      0.09969528562291
  H   1.63130235343230      1.12762754059085      0.29444879888074
  N   1.72288337321338     -0.94081837469825     -0.18450609449108
  O   2.87979124240618     -0.96822413645634      0.23662849239453
  O   1.16658036407215     -1.83680016863977     -0.81685542146965
  N   -1.21235206766518     -0.82500643691544     -0.09146101393639
  O   -1.11957728349127     -1.73102305454783      0.72398128228233
  O   -2.00867595873262     -0.73979108583202     -1.02371422484583
  N   -1.10081911506343      1.45817078769735      0.39148355394898
  H   -1.99761958000843      1.47891172240146     -0.07245023948459
  H   -0.61335299875969      2.34068771687813      0.36861007659893
