12
Coordinates from ORCA-job run
  C   0.73492088853907     -0.67121728591952     -0.09932438140630
  C   -0.42335943697732      0.03730366929627     -0.07886081797026
  H   0.77913131163642     -1.71501727178567     -0.36148314352355
  N   1.98616378242203     -0.07311778710571      0.24397147997319
  O   2.01184283918657      1.12618631230706      0.56086350059689
  O   2.97611352647404     -0.80417934403860      0.20513778007307
  N   -1.66213623985203     -0.72052523036838     -0.41781189070807
  O   -2.72433160886195     -0.12904511728383     -0.23073859320520
  O   -1.54243265187352     -1.86305289535130     -0.84270583058875
  N   -0.65057458242086      1.33946493866940      0.14767895113138
  H   -1.60256260582440      1.60885241388623      0.33791149169372
  H   0.11922477755196      1.86434759769405      0.53436145393389
