12
Coordinates from ORCA-job run
  C   0.95379899451574      0.26201899851549      0.31486484523004
  C   -0.36279297607612      0.35036820881481      0.05111761064867
  H   1.51806683506616      1.08402116735364      0.73411903777943
  N   1.72809296903853     -0.93988943319863      0.12133401571780
  O   2.76821411926877     -1.01039705997101      0.77698382691896
  O   1.33013018576208     -1.77638297357341     -0.68744501732563
  N   -1.15658817122920     -0.80256404174079     -0.42110374458456
  O   -1.23855958648559     -1.77250458660972      0.31839896176809
  O   -1.72381690436159     -0.63637081319936     -1.49871858752062
  N   -1.17239858407791      1.43247340644906      0.25959682029884
  H   -1.94567784635163      1.50048998233772     -0.38641551485593
  H   -0.69846903506924      2.30873714482220      0.41626774592491
