12
Coordinates from ORCA-job run
  C   1.01352355795013      0.22076340714339     -0.03905663587263
  C   -0.32152463077889      0.38675346912873     -0.06386938075455
  H   1.70345537935875      1.04497375517331     -0.15964789775420
  N   1.65610992478269     -1.06443065130948      0.09261013120211
  O   2.81652885927986     -1.12003877715822     -0.31591245968443
  O   1.03478557025041     -1.98540191447498      0.61983635286782
  N   -1.26370311718814     -0.74961198560114     -0.00556627417039
  O   -1.22027822973879     -1.56589301211473     -0.91452041837993
  O   -2.05934355737159     -0.71751706024528      0.93061502363146
  N   -1.00127589178073      1.55986944265683     -0.24110432744946
  H   -1.90055947183631      1.58986735727995      0.21748045419707
  H   -0.45871839292738      2.40166596952161     -0.12286456783287
