12
Coordinates from ORCA-job run
  C   0.97833766463710      0.25453485117672      0.23566182002476
  C   -0.35354425441961      0.35560301120612      0.07261610632541
  H   1.57810945695247      1.06378111306488      0.62967823910073
  N   1.74323967308809     -0.90823109581037     -0.14451563688442
  O   1.17128013193673     -1.99426852592061     -0.21942765123751
  O   2.94435685262108     -0.71288840350500     -0.33353352048554
  N   -1.15801813031369     -0.70721807216646     -0.56375213236881
  O   -2.06338903876116     -1.16114788192439      0.13254550492363
  O   -0.90713071904039     -0.98488513592379     -1.72751908130847
  N   -1.13618429057134      1.44023219402173      0.35620937564738
  H   -2.08382211453026      1.21014124304477      0.61859328543427
  H   -0.71323523159901      2.14334670273640      0.94244369082858
