12
Coordinates from ORCA-job run
  C   0.65225839160790     -0.75356988817353      0.09829375027031
  C   -0.42666488713869      0.06432894661135     -0.01495086897954
  H   0.57460203449464     -1.82768021442892      0.11196112311620
  N   1.97928546117422     -0.23366499092622      0.19864958948295
  O   2.88881091589990     -1.05821973305314      0.29337964552646
  O   2.14592863558610      0.99573534478537      0.18213851929941
  N   -1.75023117112442     -0.60942158126727     -0.14711419408949
  O   -1.79673991946250     -1.82471091328381     -0.00163066911171
  O   -2.70511193858666      0.12243595739371     -0.40370765970690
  N   -0.51918546036052      1.40070434174824      0.01453113078915
  H   0.34613002814682      1.91520148116814     -0.04297876784086
  H   -1.38808209023681      1.80986124942609     -0.28857159875599
