12
Coordinates from ORCA-job run
  C   0.68741932685657     -0.65174897353829      0.32238137913029
  C   -0.42914133663743      0.03206214822966     -0.03845884113287
  H   0.66744386797567     -1.68114295913274      0.63870669161759
  N   1.98073298755137     -0.04521815287450      0.29121391290701
  O   2.93058615736460     -0.75396241778091      0.62513622970780
  O   2.08032322077329      1.13855487718961     -0.06670843460647
  N   -1.70864614910793     -0.73346509169525      0.00105558264568
  O   -2.68879403506591     -0.17076186321058     -0.48452060643605
  O   -1.69682333685464     -1.85326018272682      0.49709203398294
  N   -0.59761251908890      1.31721939979179     -0.38235511894261
  H   -1.46905641799868      1.55967173671986     -0.82581107576834
  H   0.24256823423201      1.84005147902817     -0.57773175310498
