12
Coordinates from ORCA-job run
  C   0.73470339711032     -0.67842686769190      0.03224181229430
  C   -0.43181197160198      0.01579331359426     -0.01275700742853
  H   0.77642580173352     -1.74484700109475      0.17769939458459
  N   2.00011470544295     -0.02724670315207     -0.09225562447791
  O   2.02893733102450      1.20186959173262     -0.25969181016017
  O   2.99900936930474     -0.74346549822582     -0.01977437527714
  N   -1.67768678194385     -0.78169173037100      0.17640364442839
  O   -2.71518556648228     -0.13588301005360      0.31648608117793
  O   -1.58559349378911     -2.00298032002124      0.18771495167391
  N   -0.67110108838992      1.31327453063213     -0.25084499627038
  H   -1.58881760830679      1.65871780503942     -0.02017780701154
  H   0.13000590589792      1.92588588961196     -0.23504426353345
