12
Coordinates from ORCA-job run
  C   0.65831737141687     -0.64975475873789      0.38227344293977
  C   -0.41550389440429      0.01497139514762     -0.11735928156279
  H   0.59070626017071     -1.63833450053981      0.80447364592812
  N   1.96217363954419     -0.06575298163152      0.39446162459350
  O   2.11423087341109      1.07336968621123     -0.07321524307084
  O   2.86635034747095     -0.74465173992853      0.88179315658093
  N   -1.72476992985871     -0.69367188922155     -0.03003368498362
  O   -2.71805898294113     -0.02909273264893     -0.32130125605390
  O   -1.72487471153796     -1.86525325103070      0.32711396652773
  N   -0.50232162098030      1.20276461448026     -0.73287418905736
  H   -1.42175249751355      1.60316235388243     -0.82759786799416
  H   0.31550314522214      1.79124380401738     -0.68673431384740
