12
Coordinates from ORCA-job run
  C   0.70389129205421     -0.69734225615326     -0.14293363001655
  C   -0.42947676040915      0.03119704450737      0.02879684120758
  H   0.69441881909385     -1.73863870405725     -0.41805800821891
  N   1.99915654996940     -0.11604404440844      0.01513476737666
  O   2.08553226494705      1.08159932024618      0.32789267598615
  O   2.96391088771437     -0.85659160604455     -0.17676400788529
  N   -1.71432583655430     -0.68889701758107     -0.20743629893339
  O   -2.72793628754436      0.00782321995087     -0.22140138800394
  O   -1.67422315655424     -1.90114736847324     -0.37737026717511
  N   -0.60514791777911      1.29811440504271      0.43007407326320
  H   -1.51534586368948      1.70337874326300      0.28212261311994
  H   0.22054600875176      1.87654826370769      0.45994262927967
