12
Coordinates from ORCA-job run
  C   0.72752656314091     -0.67619578298704      0.12719094175226
  C   -0.42637274386297      0.01392234499715     -0.06643472034764
  H   0.75417942246136     -1.74223250210025      0.27854621885485
  N   1.99557375917841     -0.01941883419654      0.16605789501695
  O   2.04049348157190      1.20989142091064      0.00362840634018
  O   2.98006978352331     -0.73147555808432      0.36555008016343
  N   -1.68320182391695     -0.78850348040298     -0.04079904502315
  O   -1.58852189361830     -2.00916314792065     -0.00560288280478
  O   -2.73288849273305     -0.14725392626515     -0.04948667912737
  N   -0.63805683700378      1.31070479168545     -0.33049386423554
  H   0.15159519463734      1.92760626123371     -0.21696099019318
  H   -1.58039641337817      1.65211841312999     -0.23119536039601
