12
Coordinates from ORCA-job run
  C   0.88662321084933      0.07772585336369      0.53378840625855
  C   -0.33396976687721      0.37825712960673      0.05360515774228
  H   1.40583275538770      0.71296664212191      1.23859378458762
  N   1.64510861672073     -1.07871774126921      0.12165172068208
  O   2.86149826677364     -1.00380064914294      0.29871565625096
  O   1.04364650791812     -2.04949364709876     -0.33425422185541
  N   -0.99769532162248     -0.43139846464373     -0.98866577876826
  O   -0.44459614944951     -0.51585723440702     -2.07560366508953
  O   -2.09483538279265     -0.88673622174844     -0.67320046358396
  N   -1.08732650318690      1.47920829192118      0.35357270053125
  H   -0.80141352684505      1.99502839224486      1.17155493648979
  H   -2.08387270687570      1.32481764905175      0.29924176675462
