12
Coordinates from ORCA-job run
  C   0.65018912245081     -0.65016930385803      0.39513921067122
  C   -0.42521437484056      0.04033002061610     -0.06480049179282
  H   0.58413044728736     -1.66098150648376      0.76121350889401
  N   1.95904900457210     -0.07773854016269      0.40736642305961
  O   2.86906312005871     -0.79005681508777      0.83222150536331
  O   2.11084712797348      1.08267714004451     -0.00482040652638
  N   -1.72520061186637     -0.69063351747771     -0.06039057505075
  O   -2.66010003563354     -0.13130387159025     -0.63155967173147
  O   -1.77226626909500     -1.78214445356227      0.49324152243185
  N   -0.53806463742339      1.30798984114797     -0.48620243091938
  H   -1.37839491611941      1.55109966705034     -0.98557204735535
  H   0.32496202263583      1.80193133936355     -0.65483654704386
