12
Coordinates from ORCA-job run
  C   0.97027287638371      0.25808806105626      0.15027524628615
  C   -0.36038278394767      0.38294626575591      0.00079890435846
  H   1.56369018541226      1.09317756783734      0.50046429536335
  N   1.72356285393164     -0.97579890698820      0.05771212543193
  O   2.94738907001625     -0.83381231012677      0.03159274668641
  O   1.11496376448417     -2.04023340991657     -0.02367700680481
  N   -1.16305868992890     -0.68846321932676     -0.65240099755721
  O   -2.12277982043420     -1.11049199065004     -0.01383862000584
  O   -0.77633827192408     -1.08306326435628     -1.74771343426779
  N   -1.09724623217560      1.42137941132295      0.43726767125842
  H   -1.96398133243821      1.65743437380970     -0.00606992482888
  H   -0.83609161937936      1.91883742158246      1.26558899407980
