12
Coordinates from ORCA-job run
  C   1.00088374016136      0.21359658932916     -0.17557133244998
  C   -0.33410246872321      0.36689411628949     -0.10719908797690
  H   1.65928050536461      1.00361277416455     -0.51053011570503
  N   1.68125397667335     -1.01830253284899      0.14369674345979
  O   2.79636207280381     -1.15230967018117     -0.36129676882786
  O   1.13629169677421     -1.81561193220409      0.90472695496218
  N   -1.24271893444261     -0.74460274930945      0.24496627942616
  O   -1.97310454996642     -0.53308864916873      1.21052982673955
  O   -1.24065676925128     -1.72758255522909     -0.48155109008756
  N   -1.05171638465926      1.48315108926416     -0.43669760073400
  H   -0.52063520894964      2.33678842278372     -0.51522346327841
  H   -1.91113767578492      1.58845509711044      0.08314965447207
