12
Coordinates from ORCA-job run
  C   0.72800149784752     -0.54258701597655      0.38093090776737
  C   -0.44484986144873     -0.02028247406064     -0.03929695999337
  H   0.80380039228527     -1.36048301036445      1.08135971132010
  N   1.99257512065792      0.00396448085410     -0.02203170635972
  O   2.00230369324646      0.92887254593755     -0.84596703230400
  O   2.99218806553076     -0.46854359107279      0.51514647054992
  N   -1.66186934358085     -0.63766972688885      0.51871584350129
  O   -2.13318034479003     -0.08996223456838      1.51255005276692
  O   -2.06226084816375     -1.66068976236880     -0.02762531020066
  N   -0.71705501903741      0.93707721920432     -0.95331315472334
  H   0.08396745260125      1.46753445437252     -1.26747960740825
  H   -1.58462080514841      1.44176911493197     -0.85298921491626
