12
Coordinates from ORCA-job run
  C   0.69632603555853     -0.70800622625296      0.00199353912359
  C   -0.43715964566445      0.03443262530724     -0.07912641332353
  H   0.65211916168849     -1.75790728366653      0.24792893263945
  N   2.01459244253588     -0.14089977121828     -0.03608102611447
  O   2.94923980375769     -0.94227256530668     -0.03085416399831
  O   2.12803241038990      1.08802136816083     -0.09051331759113
  N   -1.69131470239351     -0.66009913561040      0.33026108431291
  O   -1.74153638677813     -1.87522240467978      0.18923669032958
  O   -2.56265330394543      0.05783060777900      0.81251415238398
  N   -0.58693356144979      1.36942469477291     -0.24482670350960
  H   0.11892440520387      1.83775783653540     -0.78857242889089
  H   -1.53863665890304      1.69594025417924     -0.31196034536159
