12
Coordinates from ORCA-job run
  C   0.98695170553192      0.29868404425816     -0.11816278242764
  C   -0.34861065055075      0.36590617092177      0.03235572901779
  H   1.60752363169643      1.18160965661570     -0.19024867599045
  N   1.71437401224880     -0.93949505084434     -0.25655497556084
  O   2.81702487329964     -0.84718674638425     -0.79730276554029
  O   1.21780320566712     -1.97128373676175      0.19153274583613
  N   -1.21081142178197     -0.83384954224721      0.02250261770941
  O   -1.89163677779654     -0.99307871209883      1.03325079424886
  O   -1.22761848499273     -1.50841881672179     -0.99678075770967
  N   -1.11020146715209      1.49863195629847      0.11307568517143
  H   -0.60584831875857      2.35212890201924      0.29783517116613
  H   -1.94795030741125      1.39535187494483      0.66749721407913
