12
Coordinates from ORCA-job run
  C   0.98727736343490      0.31237294454761      0.07289140223399
  C   -0.35771079220313      0.35275480219790      0.06841945034009
  H   1.59409759841041      1.19216856786202      0.23910217579275
  N   1.75034501179613     -0.90181332782282     -0.08506356930950
  O   2.90191613060595     -0.86365925845980      0.34969475487366
  O   1.22980985196426     -1.85745790709685     -0.65785257294185
  N   -1.18741254444669     -0.86355861446238     -0.05152567313116
  O   -1.08769342194517     -1.70395937974154      0.83063266496020
  O   -1.96125217978467     -0.87288279677151     -1.00629823599160
  N   -1.14790597855803      1.45101656029336      0.26539114710782
  H   -0.68408122778690      2.34300813863129      0.18676955265405
  H   -2.03638981148707      1.41301027082273     -0.21316109658845
