12
Coordinates from ORCA-job run
  C   1.00890116150004      0.23238593104564     -0.07854906619662
  C   -0.32822597048862      0.38217357614239     -0.05888913295183
  H   1.68322086556112      1.05581750959013     -0.27113975398509
  N   1.67648747194701     -1.01419864054004      0.20838118941223
  O   2.84998467622385     -0.91509137536523      0.56854031241071
  O   1.06075909533189     -2.06623498723637      0.04652328865829
  N   -1.24403234950775     -0.71661642773492      0.31076925115001
  O   -2.07439365848740     -1.01156212106002     -0.54595377956730
  O   -1.14684605280512     -1.17693027632054      1.43903672933597
  N   -1.02970809455549      1.53768114705200     -0.26440330772143
  H   -0.51218578014173      2.29410233201433     -0.68506416025845
  H   -1.94496136457780      1.39947333241263     -0.66825157028649
