12
Coordinates from ORCA-job run
  C   0.71236451790499     -0.68822529288492     -0.13188814132745
  C   -0.39896720445037      0.07926148837725     -0.05504179377781
  H   0.73915281874990     -1.71672977301985     -0.45229176748735
  N   1.99445071362527     -0.17722305962121      0.27923771170345
  O   2.93373839553052     -0.97483982285562      0.24463213987687
  O   2.07704479683878      1.00630775111255      0.62459558285604
  N   -1.65240221003616     -0.61877542026839     -0.50014582925905
  O   -1.53238943684032     -1.59412452626795     -1.22960913346990
  O   -2.69928448560289     -0.21867379195669      0.00690340092666
  N   -0.61496420177236      1.30314408305148      0.48834245810011
  H   -1.59190879320035      1.56555789043917      0.48457604394607
  H   0.03416508925300      2.03332047389419      0.23968932791237
