17

C	-0.407553	0.001317	-1.459203
C	0.0	0.0	0.0
Br	0.074552	-1.841454	-2.227808
H	1.09075	0.0	0.0
N	-1.912181	0.024222	-1.72848
O	-2.607679	-0.744007	-1.079665
O	-2.315592	0.795509	-2.591172
N	0.220923	1.061499	-2.074615
H	0.014307	1.168347	-3.05548
H	1.218451	1.040087	-1.855319
N	-0.432526	-1.028252	0.87943
H	0.331389	-1.674197	1.013017
H	-1.265362	-1.497749	0.560458
N	-0.474506	1.323018	0.564241
O	0.339411	2.035226	1.137136
O	-1.67674	1.576454	0.453961
H	2.701263	0.0	0.0
