17

C	-0.200616	-0.13188	-1.511256
C	0.0	0.0	0.0
Br	-2.013407	-1.03919	-2.015042
H	1.093765	0.0	0.0
N	-0.38445	1.24924	-2.245047
O	-1.368803	1.922525	-1.981213
O	0.494388	1.542223	-3.050219
N	0.843595	-0.873539	-1.984811
H	0.955625	-0.836848	-2.987866
H	1.725255	-0.659697	-1.450424
N	-0.399573	-1.105838	0.791584
H	-1.228672	-1.558288	0.432406
H	0.372979	-1.758238	0.823999
N	-0.52127	1.283824	0.537181
O	-1.527304	1.269424	1.244195
O	0.128664	2.290446	0.241568
H	2.599526	0.0	0.0
