17

C	-0.610576	0.011826	-1.401887
C	0.0	0.0	0.0
Br	0.423144	1.007666	-2.742782
H	1.08737	0.0	0.0
N	-0.521211	-1.4719	-1.895049
O	-1.59593	-2.05422	-2.048658
O	0.582467	-1.963838	-2.054319
N	-1.928472	0.493864	-1.409604
H	-2.418053	0.264456	-2.262884
H	-2.44986	0.192203	-0.596057
N	-0.347338	-1.125714	0.795401
H	-1.207416	-1.602509	0.569231
H	0.446648	-1.755249	0.817764
N	-0.462984	1.269152	0.647303
O	0.103678	2.300058	0.291652
O	-1.377835	1.215414	1.475794
H	2.598447	0.0	0.0
