19

C	0.0	0.0	0.0
C	-0.436589	0.253867	-1.469632
F	1.388486	0.0	0.0
H	-1.483434	0.568974	-1.42413
N	-0.45213	0.991868	0.928532
H	-1.457838	0.850922	1.035462
H	-0.33118	1.91318	0.521218
C	-0.449846	-1.365943	0.477343
H	-1.533179	-1.460457	0.383745
H	0.055736	-2.152449	-0.084132
H	-0.169143	-1.444391	1.529583
C	-0.251198	-0.917855	-2.409456
H	-0.981561	-1.685435	-2.152554
H	0.758636	-1.323451	-2.342225
H	-0.430009	-0.609844	-3.441172
N	0.344961	1.432521	-1.965354
O	0.032493	2.543192	-1.527136
O	1.272592	1.239934	-2.750847
Br	-3.803369	0.0	0.0
