19

C	0.0	0.0	0.0
C	-0.375189	-0.181941	-1.483062
F	1.416171	0.0	0.0
H	-0.17484	0.765212	-1.988331
N	-0.505173	1.258535	0.402702
H	-0.007064	2.018708	-0.039612
H	-0.511923	1.372146	1.40597
C	-0.483425	-1.09031	0.924662
H	-1.573489	-1.067413	0.984403
H	-0.14945	-2.062597	0.567503
H	-0.061163	-0.915742	1.918382
C	-1.78889	-0.657142	-1.727178
H	-2.517724	-0.040309	-1.195553
H	-2.015252	-0.622915	-2.795694
H	-1.916449	-1.681073	-1.377611
N	0.598696	-1.125408	-2.12722
O	0.571507	-2.305575	-1.781135
O	1.36061	-0.663601	-2.976494
Br	-4.900335	0.0	0.0
