19

C	0.0	0.0	0.0
C	-0.437678	-0.085589	-1.469905
F	1.412203	0.0	0.0
H	-1.520443	0.070601	-1.484974
N	-0.458114	1.21061	0.600247
H	-0.87782	1.012032	1.498147
H	-1.180162	1.645008	0.040102
C	-0.408143	-1.234662	0.778942
H	-0.099406	-1.085989	1.818408
H	0.100551	-2.124327	0.405691
H	-1.492105	-1.35083	0.734912
C	-0.041511	-1.371086	-2.164155
H	1.009545	-1.600683	-1.991295
H	-0.205157	-1.284567	-3.239937
H	-0.668272	-2.181993	-1.792016
N	0.16841	1.081475	-2.193842
O	-0.443964	2.149674	-2.152486
O	1.240778	0.914034	-2.773835
Br	-3.81237	0.0	0.0
