19

C	0.0	0.0	0.0
C	-0.191191	0.028711	-1.54424
F	1.426883	0.0	0.0
H	0.496411	-0.726743	-1.929042
N	-0.508139	1.163913	0.603713
H	0.038979	1.988143	0.411388
H	-0.707386	1.059582	1.586597
C	-0.519361	-1.238567	0.678447
H	-1.613203	-1.22293	0.661659
H	-0.163029	-1.244265	1.713127
H	-0.162711	-2.134528	0.173196
C	0.121796	1.389607	-2.132223
H	-0.642157	2.106963	-1.838253
H	0.138566	1.341679	-3.221756
H	1.104154	1.7142	-1.783991
N	-1.522212	-0.455462	-2.052585
O	-2.267555	0.34948	-2.597362
O	-1.713069	-1.667642	-1.962136
Br	-4.380141	0.0	0.0
