19

C	0.0	0.0	0.0
C	-0.504377	-0.0129	-1.451171
F	1.422271	0.0	0.0
H	-1.518324	0.402343	-1.415126
N	-0.448448	1.176694	0.652491
H	-0.021968	1.253442	1.565658
H	-0.26262	2.002783	0.101441
C	-0.456681	-1.213022	0.77587
H	-0.001443	-2.125326	0.388085
H	-1.547646	-1.261104	0.733458
H	-0.148947	-1.090229	1.818256
C	-0.503971	-1.368252	-2.121041
H	-1.277962	-1.976381	-1.652669
H	0.467608	-1.858279	-2.042017
H	-0.752142	-1.261911	-3.177662
N	0.341187	0.952934	-2.233882
O	0.193195	2.153574	-1.997235
O	1.146556	0.50812	-3.048588
Br	-3.98822	0.0	0.0
