19

C	0.0	0.0	0.0
C	-0.377637	-0.084926	-1.49068
F	1.416109	0.0	0.0
H	-0.164979	0.889213	-1.936897
N	-0.502564	1.231885	0.482573
H	-0.495767	1.282575	1.490937
H	-0.005468	2.016599	0.083499
C	-0.484544	-1.144686	0.854963
H	-0.066107	-1.029988	1.859112
H	-1.574718	-1.127329	0.912936
H	-0.147967	-2.093464	0.441558
C	-1.797082	-0.528083	-1.762907
H	-2.519271	0.056785	-1.188449
H	-2.024669	-0.418212	-2.826033
H	-1.93487	-1.572481	-1.483624
N	0.586096	-0.997763	-2.194325
O	1.349865	-0.491105	-3.017243
O	0.549969	-2.196705	-1.919449
Br	-4.910254	0.0	0.0
