19

C	0.0	0.0	0.0
C	-0.229048	0.234349	-1.532479
F	1.402895	0.0	0.0
H	0.591479	-0.325522	-1.987866
N	-0.490847	1.10688	0.758293
H	-1.504495	1.131481	0.60058
H	-0.365005	0.898405	1.74436
C	-0.41351	-1.360313	0.520496
H	-0.03703	-1.446572	1.545941
H	0.005254	-2.164812	-0.083591
H	-1.501854	-1.424074	0.521187
C	-0.143035	1.69611	-1.915411
H	-0.07994	1.797615	-3.000258
H	-1.019078	2.239329	-1.564736
H	0.745367	2.124874	-1.450515
N	-1.420055	-0.419097	-2.189568
O	-2.175741	0.281465	-2.852493
O	-1.470874	-1.645701	-2.120694
Br	-3.83863	0.0	0.0
