19

C	0.0	0.0	0.0
C	-0.277547	0.112029	-1.529049
F	1.399669	0.0	0.0
H	-0.017395	1.134684	-1.814897
N	-0.48444	1.130956	0.72374
H	-0.370297	1.98414	0.189593
H	-1.475309	1.006305	0.91815
C	-0.499358	-1.269458	0.645288
H	-1.592151	-1.292197	0.62471
H	-0.104372	-2.137944	0.121485
H	-0.158901	-1.276617	1.682481
C	-1.654852	-0.270309	-2.010343
H	-1.739441	-0.062836	-3.081992
H	-1.839661	-1.331131	-1.840456
H	-2.438009	0.271082	-1.477115
N	0.729162	-0.707113	-2.290246
O	0.677366	-1.930375	-2.183842
O	1.533501	-0.102418	-2.998918
Br	-4.446378	0.0	0.0
