11

C	0.0	0.0	0.0
C	-0.468724	0.058055	-1.43588
Br	1.968676	0.0	0.0
H	-0.188811	1.019996	-1.871438
H	-0.223243	-0.98654	0.419979
H	-1.563118	-0.028723	-1.389499
H	-0.040906	-0.753854	-2.028971
N	-0.561723	1.092262	0.732043
H	-1.586616	0.956925	0.568255
H	-0.413519	0.93346	1.724624
H	-3.14244	0.0	0.0
