11

C	0.0	0.0	0.0
C	-0.437944	0.008791	-1.455332
Br	1.970302	0.0	0.0
H	-1.534776	-0.037391	-1.424816
H	-0.272282	-0.948746	0.463283
H	-0.027696	-0.836791	-2.01524
H	-0.116704	0.939187	-1.936757
N	-0.545559	1.050538	0.803445
H	-0.436175	1.924949	0.293674
H	-1.566303	0.833736	0.781061
H	-3.160026	0.0	0.0
