13
Coordinates from ORCA-job run
  C   0.73747132987812     -0.37108999881769     -0.38348434399001
  C   -0.70663073032161     -0.14502560126724      0.08345159313025
  Cl  1.73242052413796     -1.03087986646081      0.92930968694509
  H   -1.23759459435893      0.23110766912599     -0.81046077079389
  H   0.73434481617869     -1.13461956905611     -1.16957248290087
  N   1.27961968730369      0.91421023432600     -0.79077783680586
  H   0.93603488405855      1.14183918094792     -1.71804224263568
  H   2.28990029506124      0.86676946835233     -0.83636661152838
  N   -0.73139627317207      0.76062120491773      1.21356092869914
  H   -1.67574743049228      1.07440840104876      1.39524801627086
  H   -0.15090663536304      1.55799154724474      0.97951181892410
  C   -1.33882542266918     -1.42404441543314      0.43056038564607
  N   -1.86869045024115     -2.44128825492848      0.67806185903917
