13
Coordinates from ORCA-job run
  C   0.79336188801501     -0.41028127783685     -0.40010089787002
  C   -0.68673641109321     -0.16613322304614     -0.06821627843037
  Cl  1.66982389571979     -0.84843064604545      1.16196722144560
  H   -1.18662301310795     -0.10797240453413     -1.03754742570186
  H   0.88306240775265     -1.30066660313598     -1.01914925908709
  N   1.28727851547913      0.69814605704521     -1.07870278302000
  H   1.06710045517457      1.60158633511499     -0.70100112422002
  H   2.09378529032882      0.57020036558379     -1.65747887662850
  N   -0.83624099475848      1.10347546479634      0.61039380888689
  H   -0.38176626082104      1.09842892858227      1.51819238375119
  H   -1.81533776892960      1.33547069123989      0.72814736478269
  C   -1.22940193268047     -1.32731199945082      0.68176313717154
  N   -1.66030607107922     -2.24651168831310      1.26173272891997
