13
Coordinates from ORCA-job run
  C   0.90387137000206     -0.28695599059155     -0.26791565920993
  C   -0.61190086836324     -0.33843745572247     -0.06975577608733
  Cl  1.66399749263164      0.04780755851774      1.38410815692591
  H   -1.02603628987267     -0.56508466492178     -1.05768634711408
  H   1.29113673799998     -1.27061095761911     -0.53231455434564
  N   1.20466744753881      0.66339146236181     -1.26089251593846
  H   0.78276770272334      1.55490022767256     -1.03195874870165
  H   2.19875417833683      0.76397268036504     -1.41119547075258
  N   -1.09446783144842      0.97574469099250      0.32551090876951
  H   -2.09941327243823      1.02750588348020      0.21827556377387
  H   -0.87010393656684      1.14596585393045      1.29886438670240
  C   -0.99609885995710     -1.43411851519950      0.83870435752196
  N   -1.34817387058617     -2.28608077326587      1.56625569845604
