13

C	-0.373682	-0.092968	-1.450499
C	0.0	0.0	0.0
F	-1.744771	-0.375901	-1.611419
H	1.091358	0.0	0.0
H	-0.235997	0.876656	-1.936883
H	-0.372346	-0.851008	0.565968
N	0.390705	-1.16931	-2.012521
H	0.451248	-1.063247	-3.017041
H	1.336413	-1.115012	-1.627612
N	-0.480386	1.214465	0.654359
O	-0.788253	1.139015	1.847474
O	-0.477635	2.269808	0.012784
H	2.721804	0.0	0.0
