13

C	-0.415873	0.087749	-1.452112
C	0.0	0.0	0.0
F	-0.21681	-1.192764	-2.028483
H	1.089084	0.0	0.0
H	-1.481231	0.283082	-1.599807
H	-0.373989	0.868289	0.545799
N	0.387897	1.088963	-2.044259
H	1.366301	0.923914	-1.798959
H	0.273926	1.096035	-3.0488
N	-0.613849	-1.18825	0.637706
O	-1.839915	-1.3004	0.526342
O	0.098076	-1.970945	1.257731
H	2.92267	0.0	0.0
