13

C	-0.487412	0.067142	-1.43636
C	0.0	0.0	0.0
F	-0.300497	1.391276	-1.823792
H	1.087864	0.0	0.0
H	0.142617	-0.555045	-2.073722
H	-0.367387	0.838875	0.590387
N	-1.868159	-0.267023	-1.688187
H	-2.440137	0.122098	-0.945573
H	-1.948074	-1.27327	-1.632108
N	-0.400799	-1.225149	0.650411
O	-0.4451	-2.258118	-0.043859
O	-0.565765	-1.220347	1.87886
H	2.624986	0.0	0.0
