13

C	-0.519967	0.052647	-1.424031
C	0.0	0.0	0.0
F	-0.461729	1.397356	-1.857265
H	1.08483	0.0	0.0
H	0.178864	-0.488279	-2.066158
H	-0.371055	-0.909417	0.475397
N	-1.834477	-0.474589	-1.565815
H	-2.444301	-0.012792	-0.902395
H	-2.170606	-0.306641	-2.505734
N	-0.587743	1.127665	0.76295
O	0.128293	2.056166	1.116177
O	-1.807882	1.067687	0.989538
H	2.907779	0.0	0.0
