13

C	-0.329418	-0.062855	-1.46757
C	0.0	0.0	0.0
F	-1.701946	-0.259383	-1.660127
H	1.090475	0.0	0.0
H	-0.066262	0.881489	-1.944254
H	-0.378599	-0.864922	0.544768
N	0.380548	-1.135499	-2.121499
H	0.182475	-1.990894	-1.611375
H	1.372721	-0.946712	-1.957747
N	-0.497051	1.198036	0.672356
O	-0.44188	2.269919	0.059954
O	-0.880414	1.091711	1.842332
H	2.728479	0.0	0.0
