13

C	-0.407733	0.116891	-1.459095
C	0.0	0.0	0.0
F	-0.26008	-1.190792	-2.003336
H	1.088949	0.0	0.0
H	-1.470794	0.342347	-1.601912
H	-0.438102	-0.891238	0.444244
N	0.414388	1.074657	-2.080303
H	0.319939	1.057009	-3.086212
H	1.385403	0.930407	-1.799391
N	-0.546226	1.15751	0.743186
O	-1.706329	1.052002	1.167728
O	0.154326	2.156258	0.884208
H	2.886787	0.0	0.0
