13

C	-0.490932	0.092877	-1.433832
C	0.0	0.0	0.0
F	-0.295096	1.421159	-1.803798
H	1.087882	0.0	0.0
H	0.131241	-0.525222	-2.083506
H	-0.36821	0.826072	0.608153
N	-1.874749	-0.228576	-1.684453
H	-1.960884	-1.235621	-1.664725
H	-2.44275	0.14101	-0.929692
N	-0.40234	-1.240346	0.622859
O	-0.448645	-2.257114	-0.093915
O	-0.560598	-1.263207	1.85183
H	2.632586	0.0	0.0
