13

C	-0.501692	0.076546	-1.430302
C	0.0	0.0	0.0
F	-0.259855	1.388068	-1.838635
H	1.08793	0.0	0.0
H	0.087628	-0.577751	-2.07451
H	-0.368011	0.835159	0.596224
N	-1.899551	-0.205716	-1.639636
H	-2.007028	-1.204167	-1.74138
H	-2.429545	0.075873	-0.823922
N	-0.416829	-1.231649	0.635084
O	-0.438464	-2.259701	-0.06569
O	-0.620275	-1.233575	1.857117
H	2.641719	0.0	0.0
