13

C	-0.376554	-0.000226	-1.46488
C	0.0	0.0	0.0
F	-1.768346	-0.057911	-1.607451
H	1.088962	0.0	0.0
H	-0.056546	0.972895	-1.852908
H	-0.365445	0.883609	0.521525
N	0.211476	-1.020122	-2.286919
H	0.028607	-1.90553	-1.828151
H	1.218671	-0.878217	-2.220754
N	-0.468998	-1.150391	0.766112
O	-0.4902	-2.264845	0.225836
O	-0.750881	-0.96905	1.955448
H	2.718472	0.0	0.0
