15
Coordinates from ORCA-job run
  C   -0.47771495876116     -0.08771874692932      0.20654951692901
  C   1.03551146530314     -0.19387595349988      0.29288883027847
  F   -0.92700062025624      0.53125302718171      1.34182851086772
  H   1.39550729258488     -0.70012023325301     -0.60305471193828
  H   1.27247593761088     -0.82847378006192      1.15986562096294
  C   -1.01904409108753      0.62307910282614     -1.00447280070331
  H   -2.10612827458602      0.68973819908593     -0.92994510282331
  H   -0.74854925547460      0.08314521900909     -1.91100744295147
  H   -0.58925379631325      1.62293042138028     -1.03250963163016
  N   -1.02959830567682     -1.50426011524681      0.23142565967412
  O   -1.77330201029634     -1.82701281468438      1.14734472918007
  O   -0.66234220382687     -2.21893678261127     -0.69834934139308
  N   1.58936602673471      1.15026757415425      0.35426615008197
  H   2.58140720903188      1.12702580445191      0.16154185482462
  H   1.45966558501336      1.53295907819727      1.28162815864068
