15
Coordinates from ORCA-job run
  C   -0.43055892866780     -0.07741175198495      0.29574614904592
  C   1.06155344776613     -0.25262640033919      0.06858375486341
  F   -0.60921121022584      0.50210373934599      1.52320329477682
  H   1.20718959746629     -0.73028346743264     -0.90059932225208
  H   1.43371059067933     -0.93797406365756      0.84467462099433
  C   -1.16665821184049      0.71655901587831     -0.74940885472634
  H   -1.11155477808242      0.21313487323370     -1.71380384171541
  H   -2.21195978707265      0.82430271139922     -0.45362633406061
  H   -0.70059575366012      1.69772509015539     -0.82239689231184
  N   -1.03936024502913     -1.46833615424043      0.37476976685694
  O   -0.90804709148123     -2.14832194988629     -0.64041931802189
  O   -1.59582900497799     -1.80641040650715      1.41017877968249
  N   1.68606031725777      1.06148103919403      0.06856169677729
  H   2.61599610826745      1.00495258311317     -0.32370916919181
  H   1.76726494960072      1.40310514172838      1.01724566928277
