15
Coordinates from ORCA-job run
  C   -0.44609934643081      0.07132059006113      0.20168221723903
  C   1.00090560344118      0.40922534784126     -0.08404741602037
  F   -0.67891477801887      0.25919300837121      1.53892466521775
  H   1.18852282314180      0.22933740842449     -1.14316908188030
  H   1.12143106645503      1.48536071987567      0.11189204511514
  C   -1.46998987286673      0.83663506281329     -0.59637729786124
  H   -1.33827258052501      0.65319488673990     -1.66166019018699
  H   -1.36165009300579      1.90274746332032     -0.39085693514913
  H   -2.47181717874272      0.52379724987907     -0.29642064421369
  N   -0.62759263669490     -1.41291040885479     -0.07322680912604
  O   -0.97079013401009     -2.13879858072891      0.84606858908106
  O   -0.41706327041608     -1.74641026071253     -1.23523133025568
  N   1.85011734195635     -0.46573240658990      0.70615961578990
  H   1.81338933461903     -0.20101915803124      1.68152642660260
  H   2.80982372109763     -0.40494092240898      0.39573614564795
