15
Coordinates from ORCA-job run
  C   -0.54060430983178      0.07272514708002      0.36842650916291
  C   0.88083211002721      0.42080791004344      0.78549472820074
  F   -1.38115285939779      0.38033677014307      1.41820627060587
  H   0.89117797410341      1.50172993474586      0.95424166465118
  H   1.07161086537891     -0.05890880766273      1.74538143910363
  C   -1.03782969920688      0.74685494379046     -0.87933607156084
  H   -0.47120187466003      0.42031167532944     -1.75183204613786
  H   -0.92733954007119      1.82611916152594     -0.75978539348031
  H   -2.08649556461567      0.50642045368036     -1.04026192054319
  N   -0.67837102032382     -1.44609582916592      0.21812136027435
  O   -1.60603895400025     -1.86007851445863     -0.47091899180920
  O   0.11639338876860     -2.14845319166350      0.84040985910454
  N   1.93616956353138      0.06786136197603     -0.13816580750891
  H   2.00688104774637     -0.93353643090670     -0.24744448739947
  H   1.82396887255155      0.50490541554285     -1.04153711266342
