15
Coordinates from ORCA-job run
  C   -0.54322393851713      0.06765702706131      0.42728679334263
  C   0.93847988688447      0.35255420643453      0.62599808186333
  F   -1.20250325803474      0.49573937944599      1.54764121622004
  H   0.97748039645402      1.38808502579036      0.97485777033535
  H   1.29256117783549     -0.28252185145833      1.45128344077551
  C   -1.16664334329974      0.67298384572569     -0.80118588429376
  H   -0.68096400094488      0.29516066882129     -1.69803214577879
  H   -2.23350180937808      0.44184974119529     -0.81201883984210
  H   -1.03351832356933      1.75525938361449     -0.76405539803545
  N   -0.77017740698257     -1.43856934769017      0.36575900319354
  O   0.03609419916288     -2.07352194241833     -0.31265568694957
  O   -1.75103350210614     -1.89537549111874      0.93443266228080
  N   1.69582794097448      0.25013540893616     -0.60995192822736
  H   1.84375982404746     -0.72400778786432     -0.83581018911549
  H   2.59736215747378      0.69357173352477     -0.49554889576872
