15
Coordinates from ORCA-job run
  C   -0.58548034858850      0.07169208029708      0.34000623664210
  C   0.84773385131763      0.39344941159611      0.71057799545248
  F   -1.39070877421478      0.42784738671142      1.39969917371781
  H   0.86478707537489      1.47169193732016      0.89149122380755
  H   1.07217708042203     -0.10590863966421      1.66006372749467
  C   -1.08643545948450      0.71435258218706     -0.92140299009647
  H   -0.47906528220746      0.39396730393156     -1.76612483626170
  H   -1.00136734761658      1.79749458693182     -0.81660354497257
  H   -2.13037749466783      0.44747995288756     -1.07781680581461
  N   -0.77064559770943     -1.44308260767711      0.22653780091310
  O   -1.89656497296975     -1.82897603867838     -0.06562163297743
  O   0.19611001615529     -2.16745246432725      0.46133823147335
  N   1.74905120907683      0.07022799996856     -0.38468287904833
  H   2.03649076878148     -0.89585291602658     -0.31026397502685
  H   2.57329527633067      0.65306942454222     -0.34719772530309
