14

C	-0.251063	-0.036697	-1.484374
C	0.0	0.0	0.0
Br	-2.192352	-0.145712	-1.94341
H	1.095694	0.0	0.0
H	0.035705	0.930046	-1.900109
N	0.439866	-1.183043	-1.997501
H	0.522859	-1.110275	-3.004412
H	1.382755	-1.152395	-1.58906
C	-0.488416	-1.151677	0.720891
N	-0.837111	-2.102893	1.317079
N	-0.400814	1.252661	0.635169
O	-0.681765	1.231945	1.836764
O	-0.308157	2.280968	-0.046521
H	2.464167	0.0	0.0
