14

C	-0.350084	0.066526	-1.455611
C	0.0	0.0	0.0
Br	-2.369973	0.594806	-1.690963
H	1.093737	0.0	0.0
H	0.136476	0.924329	-1.911818
N	-0.047923	-1.12697	-2.11038
H	-0.214992	-1.07616	-3.103939
H	-0.519561	-1.927343	-1.709838
C	-0.507479	-1.179295	0.653044
N	-0.831813	-2.2031	1.134671
N	-0.304788	1.213764	0.728309
O	-0.140372	2.27377	0.111221
O	-0.53364	1.128573	1.942349
H	2.371129	0.0	0.0
