14

C	-0.470629	-0.02103	-1.445323
C	0.0	0.0	0.0
Br	0.40578	1.279833	-2.624551
H	1.090724	0.0	0.0
H	-0.111466	-0.973396	-1.853325
N	-1.8984	0.19097	-1.531237
H	-2.363061	-0.453798	-0.89898
H	-2.217675	0.011274	-2.476886
C	-0.46452	-1.220033	0.630818
N	-0.770793	-2.274457	1.054569
N	-0.452313	1.167183	0.755998
O	-0.145548	2.267391	0.294531
O	-1.016839	0.991174	1.846547
H	2.446338	0.0	0.0
