14

C	-0.338452	0.004246	-1.462339
C	0.0	0.0	0.0
Br	-2.377105	0.487981	-1.729897
H	1.094729	0.0	0.0
H	0.12776	0.858797	-1.94577
N	-0.015325	-1.200586	-2.073547
H	-0.440529	-2.005112	-1.633614
H	-0.186159	-1.198639	-3.066891
C	-0.51408	-1.160608	0.68466
N	-0.873027	-2.180328	1.149763
N	-0.349933	1.23911	0.665044
O	-0.76406	1.196231	1.832995
O	-0.077834	2.274329	0.045224
H	2.391222	0.0	0.0
