14

C	-0.291678	0.103486	-1.497909
C	0.0	0.0	0.0
Br	-0.083823	-1.851209	-2.269202
H	1.091981	0.0	0.0
H	-1.338028	0.262801	-1.758152
N	0.58222	1.009513	-2.061075
H	0.552214	1.04371	-3.069065
H	1.528496	0.886876	-1.684127
C	-0.593475	-1.127991	0.681761
N	-1.013224	-2.046935	1.283857
N	-0.402954	1.260421	0.68501
O	0.25781	2.265573	0.423687
O	-1.334664	1.220176	1.500278
H	2.545309	0.0	0.0
