14

C	-0.324124	0.086985	-1.486993
C	0.0	0.0	0.0
Br	-0.021376	-1.806322	-2.272305
H	1.092039	0.0	0.0
H	-1.381935	0.218403	-1.711763
N	0.492649	1.075772	-2.026954
H	1.455952	0.956046	-1.69654
H	0.438454	1.138048	-3.032253
C	-0.588058	-1.111461	0.715569
N	-0.993933	-2.014356	1.350577
N	-0.476697	1.279726	0.624837
O	0.321272	2.208465	0.696901
O	-1.652319	1.316826	1.007541
H	2.618255	0.0	0.0
