16

C	0.0	0.0	0.0
C	-0.32288	0.079521	-1.504017
F	1.407515	0.0	0.0
H	-0.176815	-0.953364	-1.879336
H	-0.306282	0.922091	0.500239
N	-0.543706	-1.112165	0.69914
H	-1.51125	-0.884135	0.933503
H	-0.579475	-1.915972	0.082381
N	0.603046	1.024653	-2.14665
H	0.322503	1.12741	-3.114995
H	1.542761	0.650472	-2.125192
C	-1.737063	0.533879	-1.80427
H	-1.990932	0.309966	-2.847837
H	-2.520748	0.114252	-1.154628
H	-1.784429	1.618229	-1.671833
H	-4.012603	0.0	0.0
