16

C	0.0	0.0	0.0
C	-0.447798	0.013065	-1.457053
F	1.407507	0.0	0.0
H	-1.543997	0.036057	-1.408935
H	-0.274941	0.947953	0.483906
N	-0.526121	-1.155175	0.656836
H	-0.34476	-1.069874	1.653549
H	-1.552151	-1.016733	0.54226
N	-0.026606	-1.196616	-2.176804
H	0.961609	-1.327269	-1.973345
H	-0.492459	-1.975065	-1.719808
C	0.065271	1.245722	-2.182975
H	-0.297626	2.15813	-1.699498
H	1.159989	1.270543	-2.190126
H	-0.287328	1.231188	-3.216455
H	-3.128239	0.0	0.0
