14

C	-0.525173	-0.006484	-1.428553
C	0.0	0.0	0.0
Cl	-2.452805	-0.226324	-1.248494
H	1.092902	0.0	0.0
H	-0.354974	-0.902436	0.505718
N	-0.197576	1.163745	-2.087814
H	-0.628257	1.280894	-2.991265
H	-0.318421	1.950634	-1.461472
C	-0.160551	-1.199704	-2.187779
N	0.117085	-2.152668	-2.814984
N	-0.415315	1.249935	0.633302
H	-1.267914	1.127578	1.161889
H	0.324387	1.550441	1.254066
Br	3.563832	0.0	0.0
