14

C	-0.560017	0.028525	-1.420549
C	0.0	0.0	0.0
Cl	-0.0873	-1.431275	-2.332511
H	1.092507	0.0	0.0
H	-0.314547	0.952841	0.460391
N	-2.016326	0.061437	-1.369837
H	-2.385033	0.063528	-2.315222
H	-2.290778	0.935379	-0.930236
C	-0.03064	1.191511	-2.159796
N	0.27153	2.174608	-2.729473
N	-0.46413	-1.177906	0.705927
H	-1.300368	-0.996363	1.238706
H	0.268975	-1.493729	1.324422
Br	3.604524	0.0	0.0
