14

C	-0.284575	0.111754	-1.492998
C	0.0	0.0	0.0
Cl	-2.03096	0.482391	-1.839792
H	1.104545	0.0	0.0
H	-0.399757	-0.933319	0.400278
N	0.518669	1.18976	-2.01291
H	1.483517	1.041903	-1.706076
H	0.48734	1.211328	-3.02468
C	-0.041486	-1.186808	-2.15105
N	0.171253	-2.209936	-2.689365
N	-0.553554	1.147225	0.724572
H	-0.278159	1.974783	0.20409
H	-0.046296	1.197671	1.602068
Br	3.568668	0.0	0.0
