14

C	-0.336029	-0.0413	-1.488985
C	0.0	0.0	0.0
Cl	-0.09517	1.681868	-2.155521
H	1.102142	0.0	0.0
H	-0.405307	0.900672	0.458953
N	0.508918	-0.996245	-2.098673
H	0.413721	-1.017375	-3.105339
H	1.478559	-0.822087	-1.830333
C	-1.745959	-0.344723	-1.76769
N	-2.871372	-0.564115	-2.020877
N	-0.569212	-1.189546	0.64049
H	-0.400635	-1.108007	1.636881
H	-0.024243	-1.985021	0.325446
Br	3.601439	0.0	0.0
