18
Coordinates from ORCA-job run
  C   -0.75429614792067     -0.23142693938291     -0.09190010118105
  C   0.70292771634142      0.24528011615314     -0.10896393111185
  H   -0.79384647491951     -1.29223722697342     -0.35347714240722
  H   0.68821308601164      1.32515618421410      0.07426914774514
  C   -1.66808993631011      0.59335497123787     -0.97577247978087
  H   -1.67519308876650      1.63143228301582     -0.64063743717846
  H   -2.68988925356040      0.20789691089301     -0.94850231088589
  H   -1.29260376858726      0.54963387840029     -1.99702006533934
  N   -1.24013993771715     -0.17509314173573      1.32138899948551
  O   -1.33685482639899      0.94095363160395      1.83001687736232
  O   -1.47603652018104     -1.23927540660339      1.89203170613185
  N   1.19394870285207      0.03566938447424     -1.47166969226544
  H   2.02066041371782      0.59954230398023     -1.62738350101829
  H   1.47055398796342     -0.93443516008440     -1.58337448748602
  C   1.54552787448098     -0.43390134255703      0.96902864256297
  H   1.21259897348528     -0.17889413966803      1.97756547982109
  H   2.58814119583580     -0.12101294779692      0.87274629364168
  H   1.50337800367321     -1.52264335917081      0.86165400190385
