18
Coordinates from ORCA-job run
  C   -0.74607696191640      0.09943684881947     -0.37123020585924
  C   0.75137691232510     -0.23573226637295     -0.31804788544248
  H   -0.93517727626409      0.74017089507704     -1.23436382871777
  H   0.95141406662412     -0.88851526642611     -1.18583712442118
  C   -1.31712894127538      0.70199701477035      0.89909326947729
  H   -0.80320914674319      1.63701489157579      1.12590466846176
  H   -2.38021191881900      0.91730913479014      0.76783562208006
  H   -1.18123240675602      0.02617654573087      1.73999725231366
  N   -1.50394074831553     -1.15537877734825     -0.69344357787942
  O   -1.45979874786911     -2.06840491761584      0.13263384152025
  O   -2.10963652306584     -1.20058021745343     -1.76222242833319
  N   1.09552128273857     -0.85528295856116      0.95620713847565
  H   0.58895805555720     -1.72666691106882      1.06135805916196
  H   2.08616510422063     -1.06801276678866      0.96673626615768
  C   1.57598230461886      1.03355614678868     -0.49098381058099
  H   2.64120744634635      0.78731726373656     -0.50896729000166
  H   1.33616970115256      1.53991228199807     -1.42893321603884
  H   1.40761779744119      1.71668305834824      0.34326324962645
