18
Coordinates from ORCA-job run
  C   -0.66518533279005     -0.28444367865042      0.00789942701876
  C   0.76073876169592      0.29134533493257     -0.10600742070939
  H   -0.61961486767875     -1.37688510915787      0.00753208262387
  H   0.66739030364922      1.38238716533301     -0.06752532090637
  C   -1.62745586841365      0.23200373902362     -1.04592862418934
  H   -1.64407881626363      1.32286017118179     -1.04475206853270
  H   -2.64025493101278     -0.13139907794757     -0.85859832252385
  H   -1.32582321928780     -0.12312413322962     -2.03237618327848
  N   -1.19652371707302      0.07236335230765      1.35876745229981
  O   -1.40355085444853      1.26675022456037      1.57161474008221
  O   -1.35455881368464     -0.83493484252965      2.17445403219306
  N   1.41157325380988     -0.04581879606644     -1.36471494822408
  H   1.47413663972081     -1.05160463870675     -1.47669657922679
  H   0.91141745083880      0.33428635451407     -2.15767530576162
  C   1.64098926896450     -0.17342403088805      1.04560271351456
  H   1.69790223217030     -1.26656088430154      1.07260865685433
  H   2.64795754672279      0.21964473834816      0.90252478347691
  H   1.26694096308062      0.16755411127668      2.01227088528912
