18
Coordinates from ORCA-job run
  C   -0.73153910339252     -0.27786211064947      0.00742815281037
  C   0.71936292805903      0.20860079117450     -0.07652402125464
  H   -0.74268120973311     -1.36892162499420     -0.00176666877496
  H   0.70444526572901      1.30083711142045      0.05304050090653
  C   -1.62815633193444      0.29522664892820     -1.07346898968031
  H   -1.30934082431060     -0.09298393329120     -2.04146953245982
  H   -2.66679908544334     -0.00309062588215     -0.91494062571652
  H   -1.57770989637936      1.38554703142396     -1.07758723429288
  N   -1.26833934422244      0.11315039674664      1.34646226752386
  O   -1.39739469399640      1.31786874648134      1.56360910501860
  O   -1.51640189192589     -0.78403434230459      2.15135109256470
  N   1.23046762252490     -0.20524408239578     -1.38496113396301
  H   2.24176889825759     -0.25107973739867     -1.35572383996860
  H   0.98475883137382      0.47827551905378     -2.09069474931267
  C   1.57222860612802     -0.41158245198456      1.01931207187346
  H   2.59757631629853     -0.03636706666827      0.95755995016264
  H   1.59358712226402     -1.49865834871741      0.90595721020068
  H   1.19416679070319     -0.17268192094258      2.01441644436257
