16
Coordinates from ORCA-job run
  C   -0.58722914540847     -0.00431333846960     -0.21991672528598
  C   0.82685700045676      0.53901663410447     -0.18203213413567
  F   -0.80436516525646     -0.62461313531324     -1.41910431760436
  H   0.96199095107525      1.07310840904267      0.76074911976718
  H   0.89504921447337      1.27099564607840     -0.99301993966326
  C   -1.68295435857971      1.00421654716728      0.02056056421396
  H   -1.57053481472592      1.46567511464118      1.00015318998923
  H   -1.63157457825087      1.77095565437973     -0.75415981101482
  H   -2.65508044007372      0.51092085339517     -0.03955461490081
  N   -0.68950300966238     -1.08394815880019      0.85085644492048
  O   -0.88332840353583     -2.23942432863662      0.50051164213309
  O   -0.54080631913566     -0.68383571666191      2.00264303996391
  C   1.88543631449875     -0.54604518280864     -0.35044073917695
  H   1.90761476798327     -1.21585348696817      0.51175615071775
  H   2.87508162299965     -0.09569242318826     -0.44423812160266
  H   1.69534636314197     -1.14216308796226     -1.24376374832111
