16
Coordinates from ORCA-job run
  C   -0.58383648134730     -0.01093187621199     -0.22900261929521
  C   0.82047639172133      0.55422486647952     -0.16193720664464
  F   -0.77207919237455     -0.61882414768426     -1.43943413005085
  H   0.93282433584378      1.07780325595508      0.78969175186693
  H   0.88901419486663      1.29798173034397     -0.96210979140245
  C   -1.69921782409413      0.97688556572185      0.00699969859667
  H   -1.61089788860583      1.42522877372367      0.99511997778929
  H   -2.66226332777477      0.46957476627029     -0.07738084427326
  H   -1.64630506405651      1.75599996326993     -0.75515149554495
  N   -0.68561094103144     -1.10610782742822      0.82596417257979
  O   -0.56091925950590     -0.71917974503889      1.98503050859524
  O   -0.85606322378690     -2.25967746300849      0.45772237265601
  C   1.89920558796710     -0.51105812933862     -0.32841982751340
  H   1.73624974191763     -1.09386724280721     -1.23574709650519
  H   2.88299743693249     -0.04328280439748     -0.39446320967562
  H   1.91542551332835     -1.19576968584914      0.52211773882163
