13

C	-0.458493	-0.011238	-1.458754
C	0.0	0.0	0.0
Br	0.095698	1.640008	-2.326654
H	1.094933	0.0	0.0
H	0.059247	-0.821054	-1.971835
C	-1.903463	-0.161948	-1.593181
N	-3.070111	-0.27563	-1.681867
N	-0.38577	-1.306279	0.643376
O	-0.48797	-2.275293	-0.105835
O	-0.497968	-1.322478	1.861968
C	-0.548522	1.102151	0.771491
N	-0.979782	2.01867	1.366997
Cl	3.118254	0.0	0.0
