13

C	-0.495055	0.137235	-1.438853
C	0.0	0.0	0.0
Br	0.094325	1.841024	-2.168976
H	1.108685	0.0	0.0
H	-0.022446	-0.638195	-2.041816
C	-1.947674	0.047798	-1.531977
N	-3.11966	-0.012842	-1.57229
N	-0.378049	-1.35993	0.526947
O	-0.549925	-2.244929	-0.309602
O	-0.417865	-1.500727	1.740405
C	-0.524192	1.019815	0.892611
N	-0.943561	1.8535	1.604928
Cl	3.108803	0.0	0.0
