13

C	-0.448084	0.289464	-1.42284
C	0.0	0.0	0.0
Br	-2.406397	0.353977	-1.577971
H	1.108914	0.0	0.0
H	-0.108934	1.301688	-1.655945
C	0.074887	-0.613619	-2.439602
N	0.45659	-1.274098	-3.332689
N	-0.438477	-1.346043	0.492601
O	-0.603601	-1.473139	1.700553
O	-0.54136	-2.232679	-0.349284
C	-0.453151	1.03158	0.918636
N	-0.774358	1.902228	1.639685
Cl	3.077544	0.0	0.0
