13

C	-0.432389	0.179388	-1.446816
C	0.0	0.0	0.0
Br	-2.386355	0.102637	-1.651112
H	1.108367	0.0	0.0
H	-0.15812	1.198326	-1.731196
C	0.182005	-0.735625	-2.400673
N	0.650362	-1.384089	-3.261633
N	-0.407102	-1.32346	0.569546
O	-0.465511	-2.265012	-0.214538
O	-0.58166	-1.379628	1.782022
C	-0.502591	1.077579	0.834157
N	-0.908698	1.988753	1.454744
Cl	3.080804	0.0	0.0
