13

C	-0.437382	-0.374088	-1.415742
C	0.0	0.0	0.0
Br	0.130407	1.013919	-2.656589
H	1.10949	0.0	0.0
H	0.094004	-1.279706	-1.703571
C	-1.878678	-0.563013	-1.538999
N	-3.041781	-0.692401	-1.640777
N	-0.384884	-1.107302	0.943861
O	-0.528076	-0.820659	2.125576
O	-0.461328	-2.235591	0.460592
C	-0.551169	1.258465	0.465191
N	-0.991691	2.292759	0.805436
Cl	3.10649	0.0	0.0
