13

C	-0.418418	-0.063729	-1.472692
C	0.0	0.0	0.0
Br	0.085697	1.591698	-2.362107
H	1.109377	0.0	0.0
H	0.159252	-0.85452	-1.949699
C	-1.846193	-0.296209	-1.659903
N	-2.996358	-0.486057	-1.806458
N	-0.375685	-1.294419	0.666361
O	-0.385865	-2.292036	-0.052283
O	-0.57508	-1.277075	1.874226
C	-0.577135	1.115983	0.724186
N	-1.051854	2.040031	1.270937
Cl	3.108234	0.0	0.0
