13

C	-0.545026	-0.198609	-1.413765
C	0.0	0.0	0.0
Br	0.217408	-1.801711	-2.216424
H	1.105967	0.0	0.0
H	-1.62221	-0.36786	-1.379502
C	-0.252863	0.954365	-2.257681
N	-0.086313	1.879217	-2.962098
N	-0.488923	-1.122277	0.892272
O	-1.546183	-1.671732	0.583956
O	0.18923	-1.365647	1.879833
C	-0.51864	1.235386	0.571479
N	-0.949221	2.232567	1.017986
Cl	3.150251	0.0	0.0
