13

C	-0.538775	-0.222435	-1.414987
C	0.0	0.0	0.0
Br	0.185726	-1.87134	-2.157936
H	1.10216	0.0	0.0
H	-1.619863	-0.361337	-1.382671
C	-0.212461	0.895611	-2.28841
N	-0.02278	1.802933	-3.010346
N	-0.506532	-1.111761	0.894951
O	0.224015	-1.460958	1.809963
O	-1.63334	-1.547832	0.658082
C	-0.530186	1.24356	0.544684
N	-0.981193	2.243048	0.968585
Cl	3.155078	0.0	0.0
