13
Coordinates from ORCA-job run
  C   -0.60197506655890      0.18256983582496      0.17726238984950
  C   0.85327342036229      0.14849047138609     -0.26101066458920
  Cl  -0.82618431157328      1.20471529860622      1.60025214225788
  H   0.95571178959295     -0.40672490046168     -1.19640401470101
  H   1.22986859144909      1.15929878852400     -0.39859244697274
  C   -1.17835016269817     -1.13803289548303      0.37684471414397
  N   -1.64297686868048     -2.21209859343070      0.48814729430657
  N   -1.39562938681025      0.86954611001079     -0.97044273832301
  O   -2.54617945815348      0.50059460171029     -1.13728810878400
  O   -0.79985652329475      1.75359740423472     -1.56951152760117
  N   1.75357502450614     -0.52377743753901      0.73198036417351
  O   2.94753248125047     -0.41769328011369      0.48126191234984
  O   1.25219047060838     -1.12148540326895      1.67750068388988
