12

C	0.0	0.0	0.0
C	-0.430037	-0.225118	-1.437593
F	1.389294	0.0	0.0
H	-0.151319	0.670903	-2.018018
H	-0.368373	-0.812123	0.62025
H	-1.521034	-0.30931	-1.35168
C	-0.457924	1.291194	0.531375
N	-0.570118	2.382555	0.951581
N	0.203739	-1.456498	-1.923539
H	-0.260919	-1.741161	-2.776639
H	1.173099	-1.272206	-2.149298
F	-2.571232	0.0	0.0
