12

C	0.0	0.0	0.0
C	-0.388439	-0.11095	-1.477041
F	1.388631	0.0	0.0
H	-1.468556	0.020434	-1.50112
H	-0.37708	-0.847246	0.56409
H	0.137161	0.691718	-2.008557
C	-0.452103	1.255744	0.613552
N	-0.54785	2.318506	1.104517
N	0.003404	-1.393794	-2.061444
H	-0.597788	-2.103601	-1.657278
H	0.953181	-1.604234	-1.77156
F	-2.501111	0.0	0.0
