12

C	0.0	0.0	0.0
C	-0.409254	0.093525	-1.471286
F	1.388813	0.0	0.0
H	0.151057	-0.688819	-2.000429
H	-0.364598	-0.924301	0.440714
H	-1.482451	-0.098831	-1.465092
C	-0.49087	1.135134	0.791259
N	-0.644043	2.09564	1.450862
N	-0.112747	1.386256	-2.089164
H	0.819863	1.679676	-1.814319
H	-0.759143	2.063168	-1.69484
F	-2.526858	0.0	0.0
