17

C	-0.41999	0.049887	-1.469838
C	0.0	0.0	0.0
Cl	0.042234	-1.720924	-2.120313
H	1.086077	0.0	0.0
N	-1.79673	0.287553	-1.66105
H	-2.335524	-0.464448	-1.251539
H	-2.015424	0.37714	-2.644643
N	0.391674	0.99996	-2.107612
H	1.368303	0.896306	-1.831589
H	0.310184	0.939038	-3.111925
N	-0.546822	-1.138015	0.786069
O	0.099383	-1.452208	1.780445
O	-1.618917	-1.635068	0.44129
N	-0.471041	1.244832	0.703096
O	-1.467088	1.154312	1.419551
O	0.183004	2.254624	0.496621
Br	3.373229	0.0	0.0
