17

C	-0.479789	0.001685	-1.455458
C	0.0	0.0	0.0
Cl	0.196359	-1.49345	-2.275181
H	1.087382	0.0	0.0
N	-1.903474	-0.131351	-1.564755
H	-2.328886	0.707321	-1.189977
H	-2.16828	-0.269352	-2.531553
N	0.087871	1.187742	-2.014025
H	-0.129796	1.243526	-3.001116
H	1.100501	1.175016	-1.896874
N	-0.527296	-1.151792	0.794855
O	-1.477987	-0.937061	1.544432
O	0.030182	-2.227721	0.627787
N	-0.445037	1.23367	0.734889
O	0.283902	1.574647	1.662182
O	-1.496868	1.785789	0.419989
Br	3.369266	0.0	0.0
