12

C	-0.461338	-0.009794	-1.450879
C	-0.007824	0.004129	0.019544
F	-0.016715	1.134373	-2.066428
H	1.088795	0.005654	0.033996
H	-1.555425	-0.011282	-1.509589
C	0.037426	-1.194851	-2.165144
N	0.342871	-2.151273	-2.772561
C	-0.513195	-1.188345	0.695703
N	-0.938132	-2.152845	1.214289
C	-0.520554	1.210851	0.665986
N	-0.948587	2.179489	1.17343
Cl	3.114589	-0.043029	-0.146709
