12

C	-0.215272	-0.023672	-1.417289
C	-0.025779	0.080336	0.102328
F	-1.53485	-0.343792	-1.70516
H	1.060041	0.176363	0.23036
H	0.447974	-0.809412	-1.780383
C	0.101478	1.248795	-2.077521
N	0.275372	2.268772	-2.631373
C	-0.460607	-1.165715	0.736598
N	-0.811742	-2.161436	1.249082
C	-0.75812	1.212634	0.670894
N	-1.338561	2.125098	1.128545
Cl	2.902022	-0.536043	-0.790833
