12

C	-0.243945	0.151668	-1.398752
C	-0.027825	-0.161569	0.091782
F	0.070215	-0.979774	-2.11952
H	1.057552	-0.251721	0.17943
H	0.467496	0.942056	-1.656069
C	-1.635287	0.523558	-1.697369
N	-2.740423	0.828654	-1.950782
C	-0.724235	-1.387528	0.484926
N	-1.273698	-2.375787	0.801252
C	-0.463913	0.96267	0.919793
N	-0.849035	1.852232	1.582006
Cl	2.780614	0.99126	-0.679357
