12

C	-0.252948	-0.11062	-1.396434
C	-0.03448	-0.116359	0.12621
F	0.025248	-1.374318	-1.869677
H	1.053258	-0.214862	0.226634
H	0.477175	0.589749	-1.812686
C	-1.636003	0.230314	-1.763488
N	-2.734419	0.506485	-2.073058
C	-0.758143	-1.21644	0.764677
N	-1.329539	-2.104223	1.278518
C	-0.434915	1.165467	0.705581
N	-0.790669	2.18333	1.169933
Cl	2.803988	0.758361	-0.86174
