18

C	0.0	0.0	0.0
C	-0.305847	-0.385725	-1.478252
F	1.439092	0.0	0.0
H	0.481479	-1.094217	-1.757524
N	-0.535777	1.288541	0.279677
H	-0.307793	1.513679	1.242638
H	-1.570695	1.031088	0.240047
C	-0.361997	-1.057262	1.026056
H	0.056692	-0.726891	1.983767
H	0.062449	-2.028718	0.771165
H	-1.448667	-1.09721	1.067728
N	-0.299	0.764192	-2.320945
H	-0.57633	1.554401	-1.74746
H	-0.988439	0.626915	-3.049181
N	-1.547592	-1.267818	-1.719284
O	-1.54141	-2.368933	-1.181803
O	-2.339679	-0.923661	-2.58719
F	-2.741947	0.0	0.0
