18

C	0.0	0.0	0.0
C	-0.447547	0.026935	-1.477058
F	1.417063	0.0	0.0
H	-1.544029	0.108123	-1.401579
N	-0.516884	1.064439	0.791707
H	-0.371849	1.946525	0.313
H	-1.540011	0.863728	0.732386
C	-0.438578	-1.315456	0.615278
H	-0.124707	-1.295868	1.661615
H	0.018764	-2.157269	0.097709
H	-1.528195	-1.336618	0.540999
N	-0.000619	-1.11317	-2.204628
H	-0.356297	-1.08494	-3.151055
H	1.010782	-1.100885	-2.246472
N	0.076597	1.317462	-2.109303
O	-0.481654	2.376835	-1.819102
O	1.044055	1.240253	-2.870724
F	-2.872954	0.0	0.0
