18

C	0.0	0.0	0.0
C	-0.295598	-0.020903	-1.536344
F	1.3928	0.0	0.0
H	0.50268	0.573458	-1.990707
N	-0.511793	1.240479	0.513746
H	-0.348926	1.232427	1.517554
H	-1.53063	1.142788	0.390817
C	-0.494568	-1.213786	0.756936
H	-0.209214	-1.098551	1.808387
H	-1.58518	-1.202619	0.665804
H	-0.069248	-2.146133	0.382892
N	-1.569959	0.371551	-1.926265
H	-1.754738	0.186081	-2.900221
H	-2.339661	0.095858	-1.258386
N	0.100552	-1.44712	-2.032557
O	-0.779405	-2.303329	-2.111716
O	1.279306	-1.62829	-2.353094
F	-3.133789	0.0	0.0
