18

C	0.0	0.0	0.0
C	-0.300532	0.055866	-1.550907
F	1.386458	0.0	0.0
H	0.585072	0.499501	-2.016855
N	-0.530605	1.131173	0.690671
H	-1.54593	0.937788	0.699515
H	-0.415835	1.949994	0.101253
C	-0.495201	-1.262331	0.66835
H	-0.007677	-2.142577	0.247528
H	-0.247022	-1.190906	1.729604
H	-1.580348	-1.290902	0.538251
N	-1.485552	0.729228	-1.881424
H	-1.711104	0.604784	-2.859163
H	-2.269534	0.416067	-1.246838
N	-0.214682	-1.390181	-2.095742
O	0.913278	-1.875834	-2.214687
O	-1.257785	-1.975131	-2.379373
F	-3.048449	0.0	0.0
