18

C	0.0	0.0	0.0
C	-0.486957	0.015723	-1.454932
F	1.419905	0.0	0.0
H	-1.582281	0.027852	-1.372529
N	-0.505587	1.175219	0.63555
H	-0.298776	1.106804	1.628041
H	-1.533886	1.032276	0.523869
C	-0.422599	-1.296676	0.671259
H	-1.516563	-1.290649	0.640715
H	-0.063995	-1.279955	1.705808
H	0.002506	-2.174884	0.177618
N	0.005248	-1.047684	-2.293926
H	0.962394	-1.259478	-2.038789
H	-0.568967	-1.865538	-2.143877
N	-0.058875	1.307202	-2.091761
O	1.115182	1.389464	-2.45305
O	-0.896369	2.195505	-2.226021
F	-2.87185	0.0	0.0
