18

C	0.0	0.0	0.0
C	-0.253263	0.026553	-1.540047
F	1.403735	0.0	0.0
H	0.38037	0.843518	-1.886328
N	-0.541958	1.231725	0.504414
H	-0.369307	1.246391	1.505858
H	-1.561459	1.071203	0.400069
C	-0.466542	-1.22142	0.759727
H	-0.045061	-2.144791	0.365057
H	-0.154789	-1.105887	1.804615
H	-1.558021	-1.226003	0.699092
N	-1.566179	0.091039	-2.060278
H	-1.719116	1.019337	-2.428627
H	-2.280167	-0.071604	-1.305901
N	0.454063	-1.195358	-2.138509
O	1.511941	-1.00707	-2.74456
O	-0.083022	-2.291877	-2.008707
F	-3.061617	0.0	0.0
