18

C	0.0	0.0	0.0
C	-0.25151	-0.121298	-1.532138
F	1.409156	0.0	0.0
H	0.211094	0.776388	-1.949426
N	-0.548048	1.267291	0.394236
H	-1.567074	1.09885	0.291748
H	-0.388389	1.367589	1.393915
C	-0.46621	-1.158916	0.852864
H	-1.558095	-1.148778	0.81391
H	-0.129534	-0.980829	1.880814
H	-0.065306	-2.107508	0.500916
N	-1.555245	-0.391677	-1.991886
H	-2.271605	-0.331092	-1.220101
H	-1.79988	0.253733	-2.72814
N	0.700057	-1.211223	-2.077017
O	1.581084	-0.841148	-2.856702
O	0.503164	-2.382031	-1.76683
F	-3.080808	0.0	0.0
