18

C	0.0	0.0	0.0
C	-0.505096	-0.014725	-1.450681
F	1.391835	0.0	0.0
H	-1.59883	0.025759	-1.35554
N	-0.505127	1.193424	0.611997
H	-1.53251	1.051827	0.512147
H	-0.292786	1.145564	1.604798
C	-0.439437	-1.276885	0.702104
H	-0.089623	-1.234939	1.739242
H	-1.533293	-1.264847	0.662877
H	-0.014804	-2.17041	0.23575
N	-0.055045	-1.116788	-2.26353
H	0.902082	-1.344754	-2.021676
H	-0.646039	-1.913878	-2.0724
N	-0.047283	1.24221	-2.130351
O	1.120462	1.269164	-2.523566
O	-0.853731	2.157863	-2.26743
F	-2.88843	0.0	0.0
