14

C	-0.373971	-0.253354	-1.4699
C	0.0	0.0	0.0
Br	-0.558464	1.550175	-2.48154
H	1.094342	0.0	0.0
H	-1.38656	-0.641479	-1.571059
N	0.578487	-1.102951	-2.021809
H	0.43578	-1.311135	-2.998424
H	1.5323	-0.812718	-1.820101
N	-0.432853	-1.169614	0.776682
H	-1.198084	-0.931021	1.39351
H	0.349462	-1.483871	1.336709
C	-0.531166	1.237096	0.568938
N	-1.024765	2.146761	1.125888
Cl	3.327188	0.0	0.0
