14

C	-0.296341	0.078414	-1.485366
C	0.0	0.0	0.0
Br	-2.256043	0.198675	-1.825302
H	1.105139	0.0	0.0
H	-0.046753	-0.897553	-1.910051
N	0.363544	1.216202	-2.047416
H	0.3966	1.144297	-3.056379
H	1.318628	1.231319	-1.688998
N	-0.464268	-1.252409	0.57393
H	-1.421322	-1.158949	0.893869
H	0.122325	-1.476508	1.36883
C	-0.468792	1.193978	0.716906
N	-0.882197	2.084175	1.363093
Cl	3.298032	0.0	0.0
