14

C	-0.323624	-0.122488	-1.501645
C	0.0	0.0	0.0
Br	-0.202399	1.70119	-2.409531
H	1.097507	0.0	0.0
H	-1.369465	-0.381531	-1.68244
N	0.552873	-1.08045	-2.044112
H	0.44355	-1.193872	-3.041723
H	1.520945	-0.85756	-1.810819
N	-0.416631	-1.189741	0.740345
H	-1.362707	-1.450522	0.479498
H	0.20265	-1.943419	0.470279
C	-0.577868	1.182429	0.632507
N	-1.102739	2.085352	1.169181
Cl	3.329347	0.0	0.0
