14

C	-0.551052	0.007566	-1.424012
C	0.0	0.0	0.0
Br	0.221007	-1.614755	-2.379459
H	1.097747	0.0	0.0
H	-0.130339	0.829268	-2.00114
N	-1.958432	0.020243	-1.411117
H	-2.285158	-0.706535	-0.784436
H	-2.356031	-0.092686	-2.332636
N	-0.557192	-1.163063	0.721482
H	0.042079	-1.947607	0.482075
H	-0.426279	-1.004715	1.714666
C	-0.455203	1.230418	0.65764
N	-0.798538	2.217477	1.193216
Cl	3.350873	0.0	0.0
