14

C	-0.551064	0.007377	-1.424012
C	0.0	0.0	0.0
Br	0.221082	-1.615039	-2.379254
H	1.097709	0.0	0.0
H	-0.130391	0.829027	-2.001246
N	-1.958439	0.019975	-1.411116
H	-2.285126	-0.706753	-0.784352
H	-2.356038	-0.093066	-2.332624
N	-0.557176	-1.162977	0.721635
H	0.042156	-1.947526	0.482407
H	-0.42637	-1.004464	1.714811
C	-0.455213	1.230519	0.657447
N	-0.798798	2.217815	1.192426
Cl	3.350892	0.0	0.0
