14

C	-0.294977	0.125992	-1.482451
C	0.0	0.0	0.0
Br	-2.256003	0.262664	-1.819078
H	1.105175	0.0	0.0
H	-0.049197	-0.836946	-1.938232
N	0.368035	1.279005	-2.007276
H	1.322496	1.282143	-1.646869
H	0.40291	1.24052	-3.017992
N	-0.467385	-1.268487	0.533642
H	0.109368	-1.512008	1.329374
H	-1.428251	-1.186397	0.843599
C	-0.467318	1.172724	0.75309
N	-0.88092	2.041949	1.427343
Cl	3.29998	0.0	0.0
