14

C	-0.443185	-0.084195	-1.470768
C	0.0	0.0	0.0
Br	-0.150267	1.62912	-2.365994
H	1.094755	0.0	0.0
H	-1.521618	-0.260107	-1.525953
N	0.253566	-1.120814	-2.189622
H	0.082347	-1.971672	-1.658894
H	1.251838	-0.930686	-2.106946
N	-0.406702	-1.264489	0.631439
H	-1.289692	-1.157527	1.116345
H	0.301408	-1.52339	1.308329
C	-0.535094	1.162084	0.713125
N	-1.028528	2.02142	1.345912
Cl	3.315253	0.0	0.0
