14

C	-0.242568	0.055938	-1.506756
C	0.0	0.0	0.0
Br	-2.194541	0.106366	-1.931136
H	1.099889	0.0	0.0
H	0.051358	-0.914791	-1.922077
N	0.407687	1.197166	-2.063825
H	1.333398	1.271242	-1.64209
H	0.515358	1.097305	-3.064381
N	-0.468991	-1.192779	0.67795
H	-1.379401	-1.46235	0.324798
H	0.194092	-1.938696	0.513445
C	-0.499662	1.206249	0.663401
N	-0.897247	2.168727	1.205499
Cl	3.292686	0.0	0.0
