17

C	-0.529117	-0.005757	-1.437571
C	0.0	0.0	0.0
Br	0.299229	1.422798	-2.467537
H	1.088602	0.0	0.0
N	-0.061895	-1.309149	-2.107521
O	-0.538362	-1.543708	-3.215793
O	0.733821	-2.013667	-1.503886
C	-2.035128	0.063404	-1.581621
H	-2.312267	0.035105	-2.633574
H	-2.484174	-0.787732	-1.061672
H	-2.406893	0.98096	-1.127818
C	-0.557759	-1.122579	0.732422
N	-1.010019	-2.041235	1.311304
N	-0.465722	1.262106	0.670333
O	0.273909	2.239816	0.593114
O	-1.555774	1.247307	1.255295
F	2.457133	0.0	0.0
