17

C	-0.523263	0.003815	-1.440022
C	0.0	0.0	0.0
Br	0.276436	1.470694	-2.438628
H	1.088639	0.0	0.0
N	-0.0231	-1.278085	-2.129288
O	-0.468811	-1.490454	-3.252485
O	0.760025	-1.991922	-1.522502
C	-2.030331	0.043489	-1.592934
H	-2.425269	0.94239	-1.121246
H	-2.299971	0.030364	-2.647207
H	-2.461716	-0.828997	-1.093493
C	-0.556443	-1.129437	0.721197
N	-1.008329	-2.052261	1.293785
N	-0.471393	1.25538	0.680577
O	0.281815	2.220844	0.651669
O	-1.579987	1.24369	1.22998
F	2.459992	0.0	0.0
