17

C	-0.450236	-0.015911	-1.460289
C	0.0	0.0	0.0
Br	0.599469	-1.3513	-2.390232
H	1.091062	0.0	0.0
N	-1.928031	-0.428961	-1.515759
O	-2.655109	0.299015	-0.826843
O	-2.321923	-1.207191	-2.37792
C	-0.304418	1.318816	-2.16918
H	-0.944959	2.064516	-1.694903
H	-0.591266	1.209444	-3.217779
H	0.733511	1.64484	-2.101622
C	-0.506474	-1.140885	0.736795
N	-0.863687	-2.107162	1.303699
N	-0.424446	1.307088	0.646131
O	-1.275986	1.267507	1.574147
O	0.366297	2.241497	0.487435
F	2.489091	0.0	0.0
