13

C	0.0	0.0	0.0
C	-0.477245	0.18367	-1.446586
Br	1.958302	0.0	0.0
H	-1.576673	0.200475	-1.403661
H	-0.11909	1.139396	-1.83692
C	-0.34697	1.205666	0.782444
N	-0.563415	2.166165	1.4253
N	-0.497412	-1.23576	0.514826
H	-0.232455	-1.33802	1.488607
H	-1.523672	-1.164392	0.461711
C	-0.018795	-0.897406	-2.312459
N	0.331045	-1.740386	-3.050625
Cl	-3.46943	0.0	0.0
