13

C	0.0	0.0	0.0
C	-0.469866	-0.354887	-1.427982
Br	1.966833	0.0	0.0
H	-0.078657	0.357569	-2.158432
H	-1.568636	-0.286516	-1.385642
C	-0.361961	1.399836	0.27267
N	-0.588661	2.528924	0.502596
N	-0.49041	-0.840333	1.047078
H	-1.51128	-0.711531	1.048293
H	-0.289798	-1.808448	0.813859
C	-0.072843	-1.708715	-1.793884
N	0.230504	-2.805444	-2.08447
Cl	-3.466678	0.0	0.0
