13

C	0.0	0.0	0.0
C	-0.481515	0.231187	-1.437033
Br	2.016043	0.0	0.0
H	-1.583491	0.25651	-1.355009
H	-0.186997	-0.630254	-2.046257
C	-0.361844	1.119924	0.870381
N	-0.619496	2.035506	1.55778
N	-0.51803	-1.204494	0.482347
H	-0.147835	-2.024187	0.027708
H	-0.541554	-1.289081	1.485086
C	0.042387	1.45152	-2.040059
N	0.456916	2.431131	-2.537566
Cl	-3.634363	0.0	0.0
