13

C	0.0	0.0	0.0
C	-0.476707	0.085073	-1.463474
Br	1.962854	0.0	0.0
H	-0.151067	-0.824848	-1.977593
H	-1.576482	0.091038	-1.402253
C	-0.365982	1.222217	0.732207
N	-0.565983	2.220948	1.317541
N	-0.488665	-1.146599	0.706176
H	-1.512278	-1.037999	0.734389
H	-0.26814	-1.980351	0.169603
C	-0.000853	1.250236	-2.197533
N	0.367708	2.179052	-2.814549
Cl	-3.457854	0.0	0.0
