13

C	0.0	0.0	0.0
C	-0.511662	-0.348336	-1.399683
Br	1.959912	0.0	0.0
H	-0.239969	-1.386471	-1.601028
H	-1.608617	-0.269932	-1.332614
C	-0.333795	1.398352	0.347105
N	-0.535905	2.501818	0.700269
N	-0.508133	-0.981341	0.912447
H	-0.268075	-0.715153	1.861594
H	-1.533643	-0.928911	0.82298
C	-0.016558	0.520847	-2.457149
N	0.353304	1.19788	-3.342081
Cl	-3.49557	0.0	0.0
