13

C	0.0	0.0	0.0
C	-0.511851	-0.053017	-1.442565
Br	1.942314	0.0	0.0
H	-0.222138	-1.022605	-1.855742
H	-1.609824	-0.006328	-1.365292
C	-0.341546	1.29738	0.625851
N	-0.540876	2.31504	1.18006
N	-0.511792	-1.150351	0.686826
H	-0.271617	-1.089432	1.671002
H	-1.537699	-1.079089	0.612761
C	-0.017842	1.021048	-2.292651
N	0.361315	1.865732	-3.014941
Cl	-3.498839	0.0	0.0
