13

C	0.0	0.0	0.0
C	-0.458937	-0.212032	-1.449898
Br	2.027481	0.0	0.0
H	-1.557766	-0.14759	-1.408731
H	-0.062574	0.563255	-2.110458
C	-0.32084	1.357788	0.460537
N	-0.492683	2.444595	0.872596
N	-0.482021	-0.933401	0.96515
H	-1.494309	-0.7544	1.026905
H	-0.351731	-1.877586	0.618877
C	-0.057076	-1.529834	-1.9339
N	0.255563	-2.600557	-2.299919
Cl	-3.431465	0.0	0.0
