13

C	0.0	0.0	0.0
C	-0.473172	-0.073548	-1.469614
Br	1.959222	0.0	0.0
H	-0.080172	0.765512	-2.049387
H	-1.571609	-0.00938	-1.416521
C	-0.365369	1.322013	0.532599
N	-0.555968	2.410628	0.930079
N	-0.490296	-1.027967	0.865536
H	-0.285955	-1.932598	0.452199
H	-1.511358	-0.905431	0.887921
C	-0.079077	-1.333258	-2.086051
N	0.23153	-2.358667	-2.566699
Cl	-3.466319	0.0	0.0
