13

C	0.0	0.0	0.0
C	-0.217002	0.422152	-1.496969
Br	1.966821	0.0	0.0
H	0.337668	-0.316544	-2.084313
H	0.300686	1.374505	-1.640988
C	-0.389663	1.079239	0.914726
N	-0.589752	1.983705	1.637322
N	-0.514055	-1.2494	0.433196
H	-1.535577	-1.107319	0.504069
H	-0.342294	-1.945052	-0.285628
C	-1.520812	0.552927	-2.158354
N	-2.274836	0.731654	-3.044267
Cl	-3.349819	0.0	0.0
