14
Coordinates from ORCA-job run
  C   -0.45703897659855     -0.17534973489268     -0.02808681274834
  C   0.62808282064403      0.36076533877088     -0.62106349638362
  H   0.61404430259996      0.48093090279945     -1.69909168213975
  N   -0.58828224003888     -0.27396779441564      1.36585977037580
  H   0.29135636759529     -0.25310758594818      1.86121438021847
  H   -1.14718880369854     -1.06191139551692      1.65966480989494
  C   -1.67615803853259     -0.60659590766968     -0.78720373517699
  H   -1.54751596564711     -0.44664236753022     -1.85772405146244
  H   -2.55344153161440     -0.04615661811962     -0.45083001237859
  H   -1.88447139212343     -1.67034362231271     -0.62480887690594
  C   1.83520313628548      0.82954061459851      0.14272288045461
  H   1.58794672780334      1.63501499131589      0.84365798534645
  H   2.60459079370841      1.20890628683307     -0.53085868547777
  H   2.29287279961699      0.02091689208785      0.72654752638318
