14
Coordinates from ORCA-job run
  C   -0.36056379715596     -0.31267058859327      0.40253647868181
  C   0.82251245306216      0.33139401181571      0.46072758738609
  H   1.31176671727899      0.37737448180472      1.43499080760401
  N   -0.89014976307021     -1.00226785524442      1.51376695967114
  H   -1.88911446815768     -0.87806105541856      1.60771740161522
  H   -0.42601080651114     -0.76189620809364      2.37903116786060
  C   -1.20347647872221     -0.49274007695581     -0.82660056575904
  H   -0.80282847693198      0.02756173756924     -1.69356524340332
  H   -1.29472019213316     -1.55637707897430     -1.06268443527086
  H   -2.21602329191615     -0.11274721088241     -0.64929303770397
  C   1.57746099124744      0.96611532281746     -0.66932677692572
  H   2.57333240846491      0.52294185292063     -0.77143030357446
  H   1.07309547613176      0.85418418779262     -1.62903478437047
  H   1.72371922841322      2.03718847944202     -0.49583525581103
