14
Coordinates from ORCA-job run
  C   -0.45272656598573     -0.18872063904914     -0.00943467480518
  C   0.57160459226493      0.42431212617387     -0.63510383415711
  H   0.47758848366734      0.61879833311415     -1.69819457126257
  N   -0.48247000393216     -0.38834312574338      1.37953782950845
  H   0.42846891201286     -0.36990419012180      1.81474573227029
  H   -0.99511700616593     -1.21394872569464      1.65358766347942
  C   -1.70855279037871     -0.60979179518712     -0.71237114546855
  H   -1.66270389375523     -0.36769546479775     -1.77420526663022
  H   -2.57689349779723     -0.10822184736285     -0.27500780671571
  H   -1.86976998683047     -1.68959120952679     -0.61593809452483
  C   1.81472650414514      0.88135979858760      0.07615235085846
  H   1.59328237687381      1.62883849751536      0.84653242524939
  H   2.52349692916322      1.33145391645731     -0.62005393849209
  H   2.33606594671817      0.05145432563518      0.56975333069025
