14
Coordinates from ORCA-job run
  C   -0.32175707712631     -0.38397839853306      0.37311293291836
  C   0.92980630481425      0.11662227450328      0.34592668350856
  H   1.58832288878065     -0.15728380588730      1.17181092282827
  N   -0.73107476590153     -1.31682630942164      1.34930491241171
  H   -1.67020497094307     -1.14476916464244      1.68192034907089
  H   -0.08963808029648     -1.37176170586302      2.12875032501243
  C   -1.38919735097476     -0.13551351226924     -0.65292302521004
  H   -1.66624537911218     -1.07635641851482     -1.13615680891970
  H   -1.08204554262571      0.57543271360352     -1.41659262364633
  H   -2.29144386253899      0.26052673389943     -0.17329016444598
  C   1.54783203360409      0.98476612697524     -0.70966495910498
  H   1.87155661944342      1.94427290982137     -0.29349635201748
  H   0.86652315186193      1.19655838473958     -1.53366504240657
  H   2.43656603101469      0.50831017158911     -1.13603714999914
