14
Coordinates from ORCA-job run
  C   -0.47173782370885     -0.13175068984351     -0.02426915104118
  C   0.69574551029447      0.15277764763919     -0.63458440216082
  H   0.74921153046051      0.03988477843749     -1.71218975771860
  N   -0.68442428057965      0.08629897415034      1.34585173529274
  H   -1.34053612224563     -0.56223938331403      1.75634535715777
  H   0.16561739577437      0.12964203675557      1.88915848388715
  C   -1.69140686799812     -0.59504274667449     -0.76351977139221
  H   -1.49248286896040     -0.68202646740863     -1.83171261522402
  H   -2.51654863839360      0.10789311105208     -0.61563491168746
  H   -2.02414873669304     -1.57347006899883     -0.39847317434121
  C   1.90687268741994      0.65624447192337      0.10033213042219
  H   2.74733380362049      0.80112600083707     -0.57958465119130
  H   2.24052209104551     -0.04569095508577      0.87497295843315
  H   1.71598231996401      1.61635329053016      0.59330776956379
