14
Coordinates from ORCA-job run
  C   -0.31798651732660     -0.38192268862345      0.37778534444065
  C   0.97585422764596     -0.04095108143087      0.21189825180291
  H   1.70469980334534     -0.54427555549058      0.84919825478608
  N   -0.73345194136462     -1.25396651770160      1.40630105486836
  H   -1.45270568458502     -1.89697922832143      1.10404637994599
  H   0.03594566338421     -1.76133351272343      1.82168565650072
  C   -1.47999205539709      0.18075206655824     -0.38831736376561
  H   -2.05521527861521     -0.62826713745660     -0.85263226677116
  H   -2.15386405585486      0.70714188019348      0.29304589005120
  H   -1.17410001692690      0.86336933988119     -1.17791514999776
  C   1.54084553303884      0.98360481568647     -0.72676446406189
  H   0.77274608378838      1.48661766379289     -1.31418128263436
  H   2.08943118857285      1.75604880599271     -0.17805705942250
  H   2.24879305029474      0.53016114964298     -1.42809324574263
