14
Coordinates from ORCA-job run
  C   -0.29038950366516     -0.44086421935582      0.33370762536957
  C   0.96934158742489      0.03043723366971      0.23944682112582
  H   1.71102321107401     -0.40886129351783      0.90855693294772
  N   -0.61770763383544     -1.53350525135285      1.16409172121590
  H   -1.50082096954949     -1.40961411430267      1.64037803594414
  H   0.11130451280093     -1.74832562774672      1.83065461261569
  C   -1.46318121730279      0.01880117289708     -0.48294776348950
  H   -2.28235221281619      0.33446984943238      0.17299112863045
  H   -1.83781260375933     -0.80761321633012     -1.09301074292546
  H   -1.22120812619745      0.85555147579502     -1.13433431497782
  C   1.49157087368363      1.06992079257798     -0.70732072162889
  H   2.29885991024083      0.66473738948878     -1.32598726879047
  H   0.72464575989606      1.44895508198248     -1.38274863837681
  H   1.90672641200549      1.92591072676258     -0.16547742766035
