11

C	-0.459427	0.013046	-1.461826
C	0.0	0.0	0.0
Br	0.090039	-1.640137	-2.340683
H	1.092618	0.0	0.0
H	0.054746	0.815096	-1.995118
H	-0.35936	-0.900601	0.503275
C	-1.903165	0.158749	-1.617212
N	-3.066664	0.279853	-1.730628
C	-0.497417	1.186422	0.689719
N	-0.896833	2.149971	1.229359
Br	3.452571	0.0	0.0
