11

C	-0.558011	-0.017793	-1.426422
C	0.0	0.0	0.0
Br	-0.008499	1.596851	-2.379628
H	1.092669	0.0	0.0
H	-1.649415	0.016869	-1.412012
H	-0.324983	0.92381	0.487313
C	-0.158145	-1.195223	-2.187706
N	0.087366	-2.158005	-2.813447
C	-0.530016	-1.139464	0.743385
N	-0.997297	-2.052195	1.316483
Br	3.456415	0.0	0.0
