11

C	-0.469318	0.011658	-1.458242
C	0.0	0.0	0.0
Br	0.13614	-1.610112	-2.360065
H	1.092751	0.0	0.0
H	0.006621	0.840184	-1.987803
H	-0.354363	-0.90305	0.502826
C	-1.920924	0.102399	-1.594037
N	-3.090765	0.180996	-1.682006
C	-0.502649	1.182507	0.691939
N	-0.906378	2.143393	1.233035
Br	3.463559	0.0	0.0
