19

C	-0.528965	-0.013142	-1.437586
C	0.0	0.0	0.0
Cl	0.025858	1.532943	-2.178834
H	1.088083	0.0	0.0
C	0.177707	-1.137165	-2.190238
H	-0.038975	-1.035107	-3.255888
H	1.25611	-1.083729	-2.026582
H	-0.184094	-2.109699	-1.850745
C	-2.040108	-0.107485	-1.584269
H	-2.538092	0.737665	-1.11669
H	-2.405352	-1.031571	-1.128348
H	-2.287018	-0.12669	-2.648252
N	-0.472823	-1.229493	0.721894
O	0.198076	-2.245473	0.579252
O	-1.516938	-1.142615	1.370502
N	-0.439929	1.138056	0.873648
O	-1.366858	1.864164	0.521666
O	0.182059	1.231469	1.927781
Br	3.410434	0.0	0.0
