19

C	-0.391641	0.037945	-1.474261
C	0.0	0.0	0.0
Cl	-2.181992	-0.047422	-1.702585
H	1.090015	0.0	0.0
C	0.148035	1.317679	-2.103787
H	1.220977	1.377303	-1.893178
H	-0.355114	2.199411	-1.715319
H	-0.002194	1.270197	-3.184505
C	0.230439	-1.166311	-2.175362
H	-0.203749	-2.106173	-1.838908
H	1.304957	-1.178802	-1.970322
H	0.059736	-1.067087	-3.249403
N	-0.501876	-1.22364	0.69609
O	-1.542592	-1.124555	1.343419
O	0.151324	-2.249669	0.536152
N	-0.43507	1.149681	0.855438
O	0.04108	1.144034	1.986526
O	-1.205386	1.994906	0.4071
Br	3.378213	0.0	0.0
