19

C	-0.393281	0.030543	-1.472858
C	0.0	0.0	0.0
Cl	-2.182466	-0.113477	-1.696625
H	1.089993	0.0	0.0
C	0.101937	1.331087	-2.09434
H	-0.046125	1.284936	-3.174858
H	1.172197	1.424907	-1.885041
H	-0.429714	2.193319	-1.700032
C	0.264477	-1.146589	-2.186119
H	1.339727	-1.12477	-1.986429
H	-0.135683	-2.102243	-1.853607
H	0.084357	-1.045025	-3.25825
N	-0.494171	-1.221305	0.708829
O	0.134033	-2.256566	0.512132
O	-1.499456	-1.108372	1.406509
N	-0.439567	1.153314	0.847741
O	-1.27559	1.948359	0.421954
O	0.09234	1.196501	1.951359
Br	3.390138	0.0	0.0
