19

C	-0.385763	0.050538	-1.475154
C	0.0	0.0	0.0
Cl	-2.173947	0.004905	-1.71562
H	1.089986	0.0	0.0
C	0.188821	1.316687	-2.099634
H	0.04359	1.27568	-3.181341
H	1.260679	1.349603	-1.882639
H	-0.293707	2.209114	-1.711223
C	0.212706	-1.166357	-2.173732
H	-0.244135	-2.095835	-1.839785
H	0.04975	-1.064596	-3.248622
H	1.285199	-1.202841	-1.963949
N	-0.506631	-1.228195	0.68465
O	0.157935	-2.249117	0.541686
O	-1.562588	-1.136693	1.305098
N	-0.432733	1.143763	0.864825
O	-1.176223	2.010746	0.413081
O	0.019163	1.112651	2.004843
Br	3.375574	0.0	0.0
