19

C	-0.512834	-0.021277	-1.445365
C	0.0	0.0	0.0
Cl	0.020502	1.532696	-2.186366
H	1.088029	0.0	0.0
C	0.22286	-1.13021	-2.193048
H	1.2985	-1.054451	-2.018616
H	-0.120735	-2.11123	-1.859781
H	0.015606	-1.029159	-3.260719
C	-2.02045	-0.145543	-1.600413
H	-2.26431	-0.155343	-2.665166
H	-2.366369	-1.084509	-1.159645
H	-2.538296	0.682122	-1.122204
N	-0.47757	-1.231274	0.715511
O	-1.520518	-1.143644	1.364882
O	0.187083	-2.249681	0.563735
N	-0.453793	1.13603	0.867705
O	0.129862	1.20942	1.944377
O	-1.354784	1.879619	0.488804
Br	3.399567	0.0	0.0
