16

C	-0.644444	0.013479	-1.365658
C	0.0	0.0	0.0
Br	-0.005345	1.427923	-2.544741
H	1.092897	0.0	0.0
H	-1.726534	0.124882	-1.311316
N	-0.450549	-1.291408	-2.089681
O	0.666148	-1.785194	-2.101075
O	-1.454603	-1.758862	-2.632076
N	-0.43722	-1.265338	0.612012
H	-1.002394	-1.085575	1.433747
H	0.406069	-1.749682	0.906962
C	-0.439544	1.211842	0.80548
H	0.04915	1.165093	1.781919
H	-1.528518	1.234701	0.950755
H	-0.128687	2.142986	0.328225
H	2.877845	0.0	0.0
