16

C	-0.411319	-0.019926	-1.457805
C	0.0	0.0	0.0
Br	-0.175472	-1.722967	-2.330869
H	1.096578	0.0	0.0
H	0.165549	0.711129	-2.021901
N	-1.847715	0.398671	-1.61134
O	-2.72365	-0.32411	-1.143759
O	-2.044776	1.50561	-2.121437
N	-0.448961	-1.159346	0.73986
H	0.28838	-1.418611	1.382229
H	-1.301218	-0.972406	1.253853
C	-0.404007	1.336213	0.621452
H	0.098028	1.417203	1.589277
H	-0.077747	2.181513	0.009046
H	-1.487971	1.414252	0.775964
H	2.814111	0.0	0.0
