16

C	-0.417834	0.067536	-1.457103
C	0.0	0.0	0.0
Br	-0.10054	-1.55754	-2.442717
H	1.09456	0.0	0.0
H	0.12146	0.86346	-1.968767
N	-1.871752	0.432022	-1.571719
O	-2.112582	1.600293	-1.892299
O	-2.719713	-0.396601	-1.248144
N	-0.442728	-1.212732	0.660411
H	0.323374	-1.540014	1.23825
H	-1.252814	-1.046444	1.244286
C	-0.416625	1.284451	0.711642
H	-0.104927	2.174031	0.157335
H	-1.500891	1.339863	0.872617
H	0.086276	1.305185	1.682071
H	2.811017	0.0	0.0
