16

C	-0.438689	0.058926	-1.432981
C	0.0	0.0	0.0
Br	-2.393647	0.225905	-1.695764
H	1.106244	0.0	0.0
H	-0.159968	-0.856016	-1.945531
N	0.201427	1.170862	-2.213544
O	0.900583	0.823836	-3.164137
O	0.006516	2.32904	-1.859444
N	-0.356826	-1.334793	0.492408
H	-1.098168	-1.271306	1.17909
H	0.470497	-1.700801	0.954298
C	-0.460794	1.123822	0.906578
H	-1.542277	1.084436	1.082498
H	0.059924	1.009189	1.862089
H	-0.20818	2.102201	0.499026
H	2.758528	0.0	0.0
