16

C	-0.651482	-0.027033	-1.366135
C	0.0	0.0	0.0
Br	0.093807	1.262301	-2.621476
H	1.094149	0.0	0.0
H	-1.721441	0.174643	-1.322836
N	-0.562255	-1.390978	-1.992027
O	0.542961	-1.88567	-2.147723
O	-1.637507	-1.911761	-2.294009
N	-0.414665	-1.239423	0.671223
H	-1.012592	-1.038503	1.462546
H	0.433461	-1.678371	1.016183
C	-0.431727	1.246029	0.757467
H	-0.185756	2.156179	0.20636
H	0.117322	1.276151	1.702398
H	-1.510351	1.241618	0.968248
H	2.851784	0.0	0.0
