16

C	-0.427974	-0.043949	-1.438865
C	0.0	0.0	0.0
Br	-2.383403	0.066279	-1.720509
H	1.099706	0.0	0.0
H	-0.131261	-0.988185	-1.88382
N	0.186584	1.019752	-2.302843
O	0.032995	2.195754	-1.989731
O	0.81126	0.620038	-3.284076
N	-0.370833	-1.299305	0.571361
H	0.445162	-1.636556	1.074767
H	-1.130881	-1.189426	1.23178
C	-0.468158	1.182816	0.824167
H	-0.171284	2.129875	0.374715
H	0.007403	1.10855	1.806625
H	-1.557189	1.180497	0.953545
H	2.776765	0.0	0.0
