11
Coordinates from ORCA-job run
  C   -0.86819899665651     -0.36507781325908     -0.36803548189897
  C   0.63547945206278     -0.00597709180629     -0.45159879825007
  Br  -1.85556851206758      0.66126397056617     -1.68987812462566
  H   0.95769087594304     -0.16306998021485     -1.48776512136341
  H   -0.99235437596470     -1.41697766754193     -0.63490448345314
  C   -1.39690341909605     -0.12554493399264      0.96653848242369
  N   -1.80584598317762      0.06263945005894      2.05206991697980
  C   1.40005294853471     -0.90543760135057      0.42052091041081
  N   1.99015024666200     -1.65740166760723      1.10292650079639
  C   0.87287540169928      1.39589980367563     -0.09594899328123
  N   1.06262236206063      2.51968353147186      0.18607519226180
