11
Coordinates from ORCA-job run
  C   -0.82433991181635     -0.43294071507813     -0.21504186464205
  C   0.61483793520271     -0.11381747084058      0.25818487610184
  Br  -1.11765695988306      0.19003772850139     -2.02878361058089
  H   0.70419976088644     -0.47811185787586      1.29093326445622
  H   -0.95282537537823     -1.51780072335229     -0.23475879281977
  C   -1.79362786809910      0.16276991871103      0.69368710766692
  N   -2.55494710751768      0.63342866354060      1.45516494450976
  C   0.87411025784549      1.32878013382412      0.26142939735836
  N   1.07658540907499      2.48502013457716      0.28668476438310
  C   1.59781755639184     -0.82730764092211     -0.56270082486515
  N   2.37584630329293     -1.43005817108531     -1.20279926156833
