11
Coordinates from ORCA-job run
  C   -0.81734420040224     -0.45296701381627     -0.20016157348860
  C   0.61396337098376     -0.09445993395038      0.26951440320937
  Br  -1.09689653732148      0.07074388855251     -2.04711868172421
  H   0.69793952933676     -0.40423952882131      1.32039973521399
  H   -0.93559288072685     -1.53854344022460     -0.16376383621604
  C   -1.80138937308994      0.18152188277752      0.66544610257590
  N   -2.57569683003301      0.68898917203775      1.38914782440867
  C   0.85679485558974      1.34936868800846      0.20150486650047
  N   1.04583003468369      2.50766311854732      0.17208100703262
  C   1.61196443119445     -0.83865042497709     -0.50457870015244
  N   2.40142759978512     -1.46742640813391     -1.10447114735974
