11
Coordinates from ORCA-job run
  C   -0.81539372434525     -0.27902121723156     -0.35396552438084
  C   0.47844102440736      0.45419083379100      0.08364983127155
  Br  -1.92124855322956      0.91667097540128     -1.41362096693857
  H   0.19169354845935      1.33651255386363      0.66837928851757
  H   -0.56020781529621     -1.12521495744235     -0.99569199667482
  C   -1.55483279047554     -0.73874647707095      0.81265431047849
  N   -2.13849609899518     -1.10484726053799      1.76470363893281
  C   1.25051634770265      0.89089774559822     -1.08359890392310
  N   1.86887564034992      1.23866460560162     -2.01905230998284
  C   1.28768548476810     -0.43337007753149      0.92724453368759
  N   1.91296693665435     -1.15573672444141      1.61029809901218
