11
Coordinates from ORCA-job run
  C   -0.80125846727146     -0.44163306502519      0.17743450910874
  C   0.52724217782398      0.12469546483553     -0.38598586252861
  Br  -1.58435926807447     -1.67453176584296     -1.10399389027152
  H   0.30914483465407      0.63382645329869     -1.33242516410234
  H   -0.60162479120769     -1.01476913841614      1.08551989779534
  C   -1.73253151744496      0.64067838525405      0.46128031355145
  N   -2.47425036701795      1.52365807648482      0.68760996146813
  C   1.48740005825203     -0.95431702869759     -0.63731615477614
  N   2.25839960920844     -1.81990003121479     -0.82352697647125
  C   1.09056791324858      1.09758375824581      0.55782209653833
  N   1.52126981782946      1.88570889107777      1.31458126968786
