11
Coordinates from ORCA-job run
  C   -0.84536428922777     -0.43571385936697     -0.08983503988045
  C   0.63446249157124     -0.09754616492666      0.21674007601175
  Br  -1.28650255994525     -0.02795652926244     -1.93430198744618
  H   0.80922466720747     -0.33709981787132      1.27472423699066
  H   -0.99121128889671     -1.51147233026003      0.03371471024161
  C   -1.72175905276524      0.28945255430206      0.81923704590253
  N   -2.40573596530014      0.86790960513949      1.57989764380985
  C   0.91135411142930      1.32863714218581      0.02240253105144
  N   1.12723051716709      2.47493089703478     -0.11069828475654
  C   1.53111375836289     -0.92824292961601     -0.59246802410957
  N   2.23918761039712     -1.62389856735871     -1.21941290781511
