11
Coordinates from ORCA-job run
  C   -0.86135186953109     -0.42453165321648     -0.31238183351151
  C   0.61040069088381      0.02330595656828     -0.48463822064118
  Br  -1.97958170172870      0.51009861979357     -1.59777009520668
  H   0.88634163305553     -0.13935929149200     -1.53327100631674
  H   -0.93370986795851     -1.48757412844788     -0.55291726214530
  C   -1.33365871797999     -0.18983393862832      1.04390542533341
  N   -1.69901628213878     -0.00679334068487      2.14581737239793
  C   1.47349143975844     -0.80744880508268      0.36336216529326
  N   2.13915983629318     -1.50862114989059      1.03011041567951
  C   0.78039612475909      1.44521276221387     -0.17288910815788
  N   0.91752871458702      2.58554496886710      0.07067214727517
