11
Coordinates from ORCA-job run
  C   -0.79964599681014     -0.43725108559226      0.19541037521107
  C   0.52719445907089      0.11099494818993     -0.38933589975168
  Br  -1.56069805239210     -1.74798204138812     -1.02015907927169
  H   0.31094366614432      0.56374516590462     -1.36440500409243
  H   -0.60105943543399     -0.95626772153611      1.13570313045794
  C   -1.74373161348568      0.64967912868599      0.41160304084657
  N   -2.49617068308444      1.53631659753436      0.58107491204981
  C   1.50071268032503     -0.96939598997608     -0.57499030507411
  N   2.28154067041372     -1.83420124342507     -0.71913825955504
  C   1.07404473640226      1.13849704299870      0.50495912183065
  N   1.50586956885013      1.94786519860399      1.23827796734891
