11
Coordinates from ORCA-job run
  C   -0.80530337683389     -0.46705400085654     -0.22142076853017
  C   0.61846575880749     -0.09226143685678      0.25790361196566
  Br  -1.12075462310280      0.16064082909347     -2.02984410927198
  H   0.72283038840395     -0.46509690668661      1.28619026052113
  H   -0.88863518910400     -1.55606817350548     -0.25215631402160
  C   -1.79975086932226      0.08033683280276      0.69056321038306
  N   -2.58126355175636      0.51850369573221      1.45065631047206
  C   0.81431173930594      1.36022030118559      0.28006302250713
  N   0.96629506312027      2.52361579883622      0.32271731863429
  C   1.63262765195536     -0.75156307944024     -0.57039396306005
  N   2.44017700852632     -1.31127386030462     -1.21327857959952
