11
Coordinates from ORCA-job run
  C   -0.82984194920597     -0.47437732793923     -0.00415622547175
  C   0.65473299617358     -0.06542589856407      0.15932272563246
  Br  -1.45697758496091     -0.12335810628676     -1.80597473438412
  H   0.93563128431880     -0.27700953136024      1.20027631222664
  H   -0.91390584045669     -1.55285398915305      0.14964997921213
  C   -1.65183014689618      0.22968964965868      0.97011198752714
  N   -2.28724787709746      0.79621478009200      1.78027197427959
  C   0.84861432787027      1.36714584096996     -0.08217459416079
  N   1.00143524141235      2.51825839705015     -0.25544633334307
  C   1.51069185778455     -0.87171925498272     -0.71612403913601
  N   2.18969769105763     -1.54656455948474     -1.39575705238222
