11
Coordinates from ORCA-job run
  C   -0.84033919378246     -0.45289252412585     -0.03418219647333
  C   0.65806750586767     -0.09761016272063      0.12895814842548
  Br  -1.51194265371947      0.12617061111310     -1.75940675313010
  H   0.96501725755110     -0.44091062079919      1.12649325446356
  H   -0.94603654053704     -1.54013758096920     -0.00841652758210
  C   -1.61655887100895      0.14394907762133      1.04360071532798
  N   -2.21923121056373      0.61640640966094      1.93500775882881
  C   0.87915385045992      1.34952943407932      0.05745974576783
  N   1.05589294257850      2.50954378702763      0.02047607013897
  C   1.46720043004568     -0.80720593006440     -0.86632707270246
  N   2.10877648310877     -1.40684250082305     -1.64566314306463
