11
Coordinates from ORCA-job run
  C   -0.88161950997144     -0.41211430992511     -0.27521611658944
  C   0.59535561419900     -0.00588687777133     -0.49935289282727
  Br  -2.01283176518954      0.51662418012781     -1.55327900627086
  H   0.83798138712707     -0.20276678693300     -1.55042716958529
  H   -0.98616619431321     -1.47884438725085     -0.48561830299718
  C   -1.30814478888380     -0.12912047597083      1.08700827355078
  N   -1.62282370222478      0.10943136089093      2.19393251991654
  C   1.46129732637519     -0.83660322227418      0.34555732329716
  N   2.12935501187538     -1.54437490496591      1.00284367096590
  C   0.80872229988074      1.41913240040471     -0.23210264289229
  N   0.97987432112539      2.56352302366780     -0.03334565656803
