11
Coordinates from ORCA-job run
  C   -0.86868041305738     -0.39359993490802     -0.33305786739714
  C   0.62647936744381     -0.01534394747683     -0.46605335736434
  Br  -1.90275913315069      0.56174389016022     -1.67221266350936
  H   0.92796186866262     -0.21365118584187     -1.50144928749102
  H   -0.98113938383674     -1.45736187370457     -0.55423734922001
  C   -1.37277781013933     -0.10936766077089      1.00235939441721
  N   -1.76712355169658      0.11040818096279      2.08744271571299
  C   1.42371508153743     -0.86317466254050      0.42821001625034
  N   2.03389874020367     -1.56577452530313      1.14471074595246
  C   0.85033542159756      1.40435626765499     -0.17901787325068
  N   1.03108981243570      2.54276545176780      0.04430552589960
