11
Coordinates from ORCA-job run
  C   -0.84717977734311     -0.41067097986311     -0.16370094458116
  C   0.63423361971344     -0.13818973165978      0.19544441459584
  Br  -1.29234628094578      0.32769279140630     -1.90146647168232
  H   0.80979958194904     -0.56862901135508      1.19100501912701
  H   -0.99566322749255     -1.49063688923173     -0.23770987641418
  C   -1.72020294662859      0.13813400844668      0.86441897567728
  N   -2.40644715551712      0.56504020119075      1.71745880544928
  C   0.91645529053908      1.29839408701750      0.26483264815013
  N   1.14145601983410      2.44834941727301      0.33696700541733
  C   1.52694552802783     -0.80723470804232     -0.75557525725706
  N   2.23294934786365     -1.36224918518222     -1.51167431848216
