11
Coordinates from ORCA-job run
  C   -0.84191007052907     -0.45090052546674     -0.01107957708037
  C   0.65333573076872     -0.08430641499392      0.15586591207862
  Br  -1.46415554188460     -0.04546361785543     -1.80310111014381
  H   0.93185181221304     -0.32281485546574      1.19166332089197
  H   -0.95344788542351     -1.52990725954606      0.12002947635585
  C   -1.64289226545134      0.25276456540749      0.98060950499912
  N   -2.26359487495709      0.81437629563317      1.80542838197352
  C   0.88453338582605      1.34693640113010     -0.05944751735342
  N   1.06863120688840      2.49626869187758     -0.21258951554321
  C   1.48517021731508     -0.89627762318498     -0.73748707508794
  N   2.14347828523435     -1.57867565753548     -1.42989180109031
