11
Coordinates from ORCA-job run
  C   -0.81318450380982     -0.44431536676253      0.09498901307597
  C   0.54287576534133      0.16149986410922     -0.34905532933680
  Br  -1.56966914025768     -1.49286999534644     -1.35516905484087
  H   0.36640311032801      0.78771144962592     -1.23182372913054
  H   -0.65460611624949     -1.12923696099475      0.93089016723342
  C   -1.73735577281077      0.61207655521148      0.48154323102951
  N   -2.47675583630379      1.46927850113912      0.79704658665618
  C   1.49493733997474     -0.89608050901230     -0.70193393020301
  N   2.25641338765729     -1.74454977852260     -0.98230192482623
  C   1.08693578354670      0.99886286422914      0.72671027304379
  N   1.50300598258346      1.67762337632371      1.59010469729857
