11
Coordinates from ORCA-job run
  C   -0.87698713083397     -0.37040410954355     -0.33939582576588
  C   0.61824065496188      0.00542076386612     -0.47970289710329
  Br  -1.92751071824604      0.65964366404055     -1.60870507749614
  H   0.89958806833359     -0.13971998982553     -1.52938023377568
  H   -1.00082386574876     -1.42060666685679     -0.61319332520906
  C   -1.35586389888509     -0.15333648224603      1.01751339999673
  N   -1.73151661248524      0.00979698735903      2.11907758457055
  C   1.42505673750221     -0.89220588935043      0.35547107086734
  N   2.04242493077088     -1.63057018754394      1.02851566889155
  C   0.85666346568870      1.40625856181395     -0.12071299982954
  N   1.05072836894184      2.52672334828657      0.17151263485347
