11
Coordinates from ORCA-job run
  C   -0.83743702121476     -0.42075687942186     -0.18753969321454
  C   0.64214726921251     -0.13284024497091      0.16645272693379
  Br  -1.34590117778478      0.46138790628228     -1.83847813651077
  H   0.85421138901390     -0.64855633087858      1.11324832599078
  H   -0.95247229670934     -1.49356817954003     -0.35997852488494
  C   -1.70360039700491     -0.00101906870774      0.90519845526312
  N   -2.37840859516643      0.32427707239291      1.81067158736239
  C   0.87936913842423      1.29963855602221      0.36690163328509
  N   1.06584136996544      2.44388124521512      0.55189473177059
  C   1.53417035562096     -0.68052261076975     -0.85989447617576
  N   2.24107996564320     -1.15292146562366     -1.66947662981976
