11
Coordinates from ORCA-job run
  C   -0.87436342285739     -0.40323294334639     -0.30662940093048
  C   0.60835210537635      0.00151379425173     -0.49084312692043
  Br  -1.97356943694799      0.55355694642509     -1.59200111347847
  H   0.87269479465199     -0.17691447118791     -1.53989160151842
  H   -0.97826944017125     -1.46546518280723     -0.53906694067038
  C   -1.33192381455506     -0.14618729792276      1.05072413196653
  N   -1.68868923463171      0.05123958653298      2.15291492343479
  C   1.45264757906586     -0.84531822923179      0.36012206385844
  N   2.10055457559589     -1.54485120929584      1.04577224864709
  C   0.82058236582761      1.42027629278890     -0.19087897116904
  N   0.99298392864564      2.55638271379326      0.04977778678038
