17
Coordinates from ORCA-job run
  C   0.79558470100355     -0.44409408042939     -0.11377050498805
  C   -0.60176545184912      0.06427211314305     -0.49719648026719
  Br  1.35842098575702     -1.78361586676584     -1.43903033450414
  H   -0.52664529707837      0.54656930058484     -1.47354732409629
  C   0.82526259550400     -1.07289036962916      1.20374644226364
  N   0.91740012892644     -1.49670147691584      2.29650822039890
  C   1.80920187499322      0.70155210112145     -0.15050539035695
  H   1.79417713762812      1.18066166136652     -1.13137771808866
  H   1.57591494856252      1.43689230237014      0.62211809323908
  H   2.81074218566697      0.31392554907415      0.03581558116954
  C   -1.22301091606403      0.98140320002887      0.54515541773909
  H   -1.29424005909694      0.47496793835503      1.50887934241390
  H   -0.63860941069691      1.89477638537390      0.65810479810497
  H   -2.22733355026662      1.26428740429973      0.22229859726092
  N   -1.54892327102759     -1.07981457102385     -0.71345041633521
  O   -2.12545143160350     -1.12470230535778     -1.79670888286034
  O   -1.69972517035877     -1.85748928559585      0.22396055890680
