17
Coordinates from ORCA-job run
  C   0.79072296551429     -0.17847926109160      0.28769194860532
  C   -0.64628867629305      0.28142331166505     -0.05168726855382
  Br  0.85124206910969     -2.07813291514706      0.78460777162398
  H   -0.57412556229304      1.35507139513816     -0.24754000154516
  C   1.20209356354803      0.58010067385074      1.46726464316384
  N   1.52469156356482      1.23321613707030      2.39029612318867
  C   1.77820200976683      0.05275906397192     -0.85456959079498
  H   2.78815541862389     -0.18617827822868     -0.52082320266023
  H   1.53120634426330     -0.58100295464114     -1.70617749117968
  H   1.73901581582699      1.09867605659664     -1.16964948981321
  C   -1.69771105519672     -0.01352431446125      0.99515791954876
  H   -2.65228435982321      0.41693767616689      0.68593962642361
  H   -1.40883901237588      0.43784830815720      1.94628031204239
  H   -1.82545920835791     -1.08573951660764      1.12728428298185
  N   -1.04300030778115     -0.30110925051674     -1.37839567270132
  O   -0.80073410321019      0.38425792799540     -2.37204107758793
  O   -1.55688746488668     -1.41612405991819     -1.38163883274210
