17
Coordinates from ORCA-job run
  C   0.80356015980955     -0.43318779392211     -0.10165071253480
  C   -0.59629802895511      0.05286743181217     -0.50512429862478
  Br  1.40225772758531     -1.77032789269671     -1.41302524423236
  H   -0.51559049305251      0.53130766047431     -1.48293971890593
  C   0.82552916284043     -1.05484412512325      1.21944538860425
  N   0.90968506586508     -1.47119641673619      2.31571055088068
  C   1.80051207844558      0.72714574828927     -0.13112515144217
  H   1.54589326135177      1.46327725737590      0.63395265045817
  H   2.80508093599549      0.35558524422803      0.07100368195348
  H   1.79177828819502      1.20040596319183     -1.11492011923716
  C   -1.24388497356818      0.96623368438153      0.52431351557718
  H   -1.31868261670364      0.46468947611496      1.49033420235453
  H   -0.67531933600204      1.88940770764574      0.63827820621900
  H   -2.24872533454252      1.23126753293127      0.18814955631265
  N   -1.52374294712119     -1.10599680979715     -0.72729950587769
  O   -2.08600949982123     -1.16465528302637     -1.81738002602787
  O   -1.67504345032182     -1.88097938514323      0.21227702452281
