17
Coordinates from ORCA-job run
  C   0.81823951813469     -0.20422698780700     -0.46549736931131
  C   -0.72151005383146     -0.04818217349616     -0.48337456600642
  Br  1.48799894016472      0.75693904374374     -2.05291038660980
  H   -1.08295504697274     -0.36407427228259     -1.46235774837878
  C   1.16713301639098     -1.61008972339216     -0.65908683822297
  N   1.43621198692798     -2.74865167755804     -0.77825672731010
  C   1.51821932984747      0.35515424483766      0.76764424185753
  H   2.59242616012447      0.18737179615737      0.68470669791111
  H   1.14198154951224     -0.14558036604607      1.66079290831418
  H   1.33962275908256      1.42699414782044      0.85170300987838
  C   -1.23018537474303      1.32883378595818     -0.10808388927049
  H   -0.99079747021772      1.56286829148244      0.92810841506916
  H   -2.31561851964957      1.35624073076158     -0.22443323221708
  H   -0.79641841940542      2.08331288759687     -0.76473625715860
  N   -1.30999555347947     -1.06119311934347      0.46757717583666
  O   -1.17025682687577     -0.85287844202274      1.67175218510474
  O   -1.88609599500994     -2.02283816641003     -0.03454761948621
