17
Coordinates from ORCA-job run
  C   0.79911708187476     -0.43833715146506     -0.10896883454128
  C   -0.59827283808755      0.06383454051402     -0.50133848617655
  Br  1.37965758863066     -1.77131746872953     -1.43310628495329
  H   -0.51838126787575      0.55137629158006     -1.47469398289612
  C   0.82206619843629     -1.07048520521844      1.20713082859362
  N   0.90226258515422     -1.50061192426958      2.29847290111019
  C   1.80662445228863      0.71298100468982     -0.13541795805037
  H   2.80876751565822      0.33074262598359      0.05871379760460
  H   1.79709343751775      1.19345741319487     -1.11568758328556
  H   1.56279457261757      1.44593792192812      0.63623276871670
  C   -1.23344416856105      0.97101895619946      0.54127284890199
  H   -0.65422298944242      1.88610694323737      0.66661519163712
  H   -1.31189513973537      0.45725175963771      1.50054808680120
  H   -2.23588403955318      1.25189627504382      0.21082385754862
  N   -1.53614859961914     -1.08525923966005     -0.73130585231354
  O   -2.09861018336420     -1.13210755189883     -1.82189527445169
  O   -1.69152420593942     -1.86748519076734      0.20160397575435
