18

C	0.0	0.0	0.0
C	-0.380638	0.720777	-1.335277
F	1.393712	0.0	0.0
H	0.594201	0.891007	-1.803104
C	-0.457414	0.721767	1.254537
H	-1.548831	0.744317	1.273066
H	-0.042258	1.730961	1.272985
H	-0.08239	0.172993	2.121195
C	-0.394744	-1.417739	0.112878
N	-0.521926	-2.542644	0.42565
C	-1.126583	2.032767	-1.216342
H	-0.54986	2.728876	-0.604293
H	-1.243642	2.470159	-2.206905
H	-2.111665	1.859992	-0.783284
N	-1.037244	-0.183386	-2.357515
O	-1.900077	0.293092	-3.083384
O	-0.55219	-1.307678	-2.474145
Cl	-3.589478	0.0	0.0
