18

C	0.0	0.0	0.0
C	-0.490477	0.037092	-1.453721
F	1.388253	0.0	0.0
H	-1.584153	-0.015355	-1.411796
C	-0.474893	1.17609	0.826884
H	-1.564532	1.228403	0.783379
H	-0.141624	1.04244	1.857391
H	-0.027769	2.088198	0.427667
C	-0.392217	-1.286321	0.608834
N	-0.558654	-2.330207	1.119104
C	0.160421	-1.022755	-2.31922
H	-0.112187	-2.012057	-1.949251
H	-0.187345	-0.931328	-3.350139
H	1.243435	-0.912535	-2.301081
N	-0.152353	1.392813	-2.006236
O	1.00913	1.587369	-2.371302
O	-1.048626	2.232903	-2.044052
Cl	-3.634057	0.0	0.0
