18

C	0.0	0.0	0.0
C	-0.410244	-0.006551	-1.484097
F	1.390698	0.0	0.0
H	-0.265514	1.005612	-1.868037
C	-0.561663	1.203132	0.720746
H	-0.213842	2.115326	0.230705
H	-0.223544	1.200957	1.758464
H	-1.655576	1.161998	0.701089
C	-0.39426	-1.243041	0.692035
N	-0.654623	-2.207958	1.307734
C	-1.789339	-0.547067	-1.782959
H	-2.582145	-0.056896	-1.20943
H	-1.833599	-1.607207	-1.533142
H	-2.00261	-0.41958	-2.847332
N	0.597172	-0.824227	-2.244463
O	0.71918	-2.003905	-1.92859
O	1.20921	-0.262586	-3.152515
Cl	-4.579018	0.0	0.0
