15

C	0.0	0.0	0.0
C	-0.526944	0.125968	-1.414507
F	1.389092	0.0	0.0
H	-0.322731	1.120779	-1.80583
H	-1.608879	-0.07134	-1.391203
C	-0.488674	1.168032	0.833178
H	-0.107044	1.067572	1.851204
H	-0.108445	2.096756	0.400623
H	-1.581324	1.164775	0.838889
C	-0.376515	-1.274236	0.649825
N	-0.591107	-2.253238	1.260434
N	0.137158	-0.820906	-2.349056
O	0.20588	-2.001061	-2.017634
O	0.563253	-0.357153	-3.408405
Cl	-3.647512	0.0	0.0
