15

C	0.0	0.0	0.0
C	-0.156112	-0.018995	-1.535534
F	1.392192	0.0	0.0
H	0.321797	-0.933152	-1.88372
H	0.411213	0.848145	-1.875965
C	-0.452731	1.234782	0.733624
H	-1.542426	1.2656	0.7609
H	-0.039483	1.192343	1.744584
H	-0.046212	2.112536	0.225396
C	-0.397818	-1.247842	0.669582
N	-0.53319	-2.247288	1.272462
N	-1.451016	0.069502	-2.254555
O	-1.857191	1.201311	-2.499518
O	-1.92708	-0.982537	-2.66252
Cl	-3.473836	0.0	0.0
