15

C	0.0	0.0	0.0
C	-0.519558	-0.041419	-1.432396
F	1.385762	0.0	0.0
H	-0.241764	-0.977019	-1.913362
H	-1.607628	0.099201	-1.397442
C	-0.475536	1.182478	0.817266
H	-0.116666	2.104121	0.361137
H	-0.069687	1.092311	1.826601
H	-1.566264	1.17608	0.844906
C	-0.392227	-1.271365	0.64656
N	-0.558938	-2.298448	1.190098
N	0.108956	1.031709	-2.245849
O	0.939142	0.68906	-3.088033
O	-0.236203	2.19176	-2.031898
Cl	-3.631647	0.0	0.0
