15

C	0.0	0.0	0.0
C	-0.520138	-0.033475	-1.431209
F	1.385933	0.0	0.0
H	-1.612321	0.065007	-1.395638
H	-0.196634	-0.945241	-1.930249
C	-0.483048	1.177952	0.819477
H	-0.026203	1.12119	1.809304
H	-1.570973	1.130125	0.892783
H	-0.187906	2.107643	0.334669
C	-0.391678	-1.273635	0.642219
N	-0.562347	-2.300994	1.18441
N	0.069081	1.089175	-2.20674
O	1.020603	0.826056	-2.943746
O	-0.424272	2.207092	-2.060415
Cl	-3.643639	0.0	0.0
