15

C	0.0	0.0	0.0
C	-0.531422	-0.038246	-1.416432
F	1.389406	0.0	0.0
H	-0.321152	0.900402	-1.926101
H	-1.616921	-0.214375	-1.366873
C	-0.482594	1.26216	0.68979
H	-0.083193	1.288543	1.705239
H	-1.574772	1.257606	0.713926
H	-0.11464	2.130949	0.137812
C	-0.383201	-1.182871	0.800158
N	-0.557376	-2.076706	1.540811
N	0.105018	-1.097479	-2.24381
O	0.271083	-2.204032	-1.738792
O	0.402594	-0.79487	-3.400141
Cl	-3.636501	0.0	0.0
