16

C	-0.409206	-0.079369	-1.45154
C	0.0	0.0	0.0
Br	-0.093869	1.618067	-2.357632
H	1.09887	0.0	0.0
H	-0.303886	-0.956246	0.450684
C	0.352441	-1.178187	-2.16112
H	0.126784	-1.195282	-3.226539
H	0.079575	-2.143457	-1.71922
H	1.418429	-1.002847	-1.977726
N	-1.90956	-0.344871	-1.612659
O	-2.3356	-0.567002	-2.742208
O	-2.600302	-0.355092	-0.594762
N	-0.499745	1.161693	0.711529
H	-1.281791	0.916627	1.297699
H	0.254381	1.518626	1.28411
H	2.936598	0.0	0.0
