16

C	-0.437956	-0.055724	-1.446818
C	0.0	0.0	0.0
Br	-0.21524	1.709463	-2.27164
H	1.096939	0.0	0.0
H	-0.382023	0.90094	0.485198
C	0.326923	-1.089493	-2.231596
H	0.054997	-1.087335	-3.286091
H	1.39058	-0.871269	-2.090738
H	0.109049	-2.065219	-1.795182
N	-1.942088	-0.317144	-1.523444
O	-2.644147	0.176255	-0.644398
O	-2.36626	-0.995288	-2.456845
N	-0.428535	-1.247083	0.639684
H	0.358419	-1.598864	1.172808
H	-1.202977	-1.079107	1.267063
H	2.926125	0.0	0.0
