16

C	-0.601389	-0.047296	-1.391019
C	0.0	0.0	0.0
Br	0.09886	-1.618531	-2.325527
H	1.097216	0.0	0.0
H	-0.327961	-0.919904	0.497061
C	-2.114698	-0.0816	-1.421485
H	-2.459538	-0.962014	-0.87605
H	-2.478704	0.815175	-0.916517
H	-2.484209	-0.1203	-2.444965
N	-0.163285	1.162947	-2.211566
O	0.633678	1.942083	-1.704486
O	-0.664244	1.288219	-3.329031
N	-0.530728	1.17905	0.711487
H	0.231327	1.849057	0.738495
H	-0.714443	0.915071	1.671433
H	2.966742	0.0	0.0
