16

C	-0.404629	-0.147382	-1.448746
C	0.0	0.0	0.0
Br	-0.111882	1.512334	-2.431222
H	1.094539	0.0	0.0
H	-0.304681	-0.936404	0.491262
C	0.375045	-1.265202	-2.106272
H	0.114928	-2.213255	-1.622673
H	1.437187	-1.066348	-1.926129
H	0.154454	-1.333822	-3.170513
N	-1.901598	-0.436669	-1.59944
O	-2.603804	-0.360588	-0.591812
O	-2.314702	-0.759942	-2.71012
N	-0.500948	1.191631	0.657789
H	0.245422	1.562606	1.232295
H	-1.298485	0.97709	1.237558
H	2.939564	0.0	0.0
