16

C	-0.63376	0.030776	-1.374197
C	0.0	0.0	0.0
Br	0.134819	-1.4024	-2.466958
H	1.09392	0.0	0.0
H	-0.317061	-0.946328	0.453752
C	-2.140323	-0.110346	-1.360377
H	-2.549689	-0.085912	-2.36791
H	-2.399234	-1.059559	-0.886017
H	-2.546904	0.7126	-0.768478
N	-0.288671	1.329766	-2.091407
O	-0.947983	1.606103	-3.095828
O	0.615475	2.014546	-1.629162
N	-0.51993	1.144008	0.774069
H	-0.765192	0.828432	1.7025
H	0.259716	1.784047	0.878499
H	2.965902	0.0	0.0
