13

C	-0.569329	-0.060906	-1.399596
C	0.0	0.0	0.0
Br	0.136968	1.507321	-2.459577
H	1.091008	0.0	0.0
H	-0.177159	-0.928104	-1.926526
H	-0.339291	0.935541	0.476074
N	-1.992364	-0.082772	-1.386331
H	-2.342259	0.788627	-1.005056
H	-2.364667	-0.188119	-2.321505
N	-0.427723	-1.219468	0.688104
H	0.192439	-1.383834	1.470689
H	-1.378254	-1.129298	1.021143
Cl	3.591006	0.0	0.0
