13

C	-0.541344	0.025937	-1.413346
C	0.0	0.0	0.0
Br	-0.252986	1.742315	-2.298479
H	1.093104	0.0	0.0
H	0.032245	-0.679118	-2.025435
H	-0.285674	-1.000882	0.383557
N	-1.980879	-0.223384	-1.405403
H	-2.335105	-0.200467	-2.354995
H	-2.121255	-1.164144	-1.047453
N	-0.507803	1.092111	0.811001
H	0.098768	1.218482	1.609967
H	-1.448562	0.900908	1.127041
Cl	3.581465	0.0	0.0
