13

C	-0.58559	-0.009875	-1.393241
C	0.0	0.0	0.0
Br	-0.012405	1.704297	-2.360598
H	1.096307	0.0	0.0
H	-0.124147	-0.770696	-2.020045
H	-0.330445	-0.943634	0.451287
N	-1.991573	-0.138061	-1.340505
H	-2.424279	0.01111	-2.240109
H	-2.334487	0.537301	-0.667272
N	-0.602242	1.101297	0.771607
H	-0.080387	1.941165	0.544105
H	-0.425337	0.921571	1.753213
Cl	3.591086	0.0	0.0
