13

C	-0.440065	0.050985	-1.453012
C	0.0	0.0	0.0
Br	-0.274447	-1.739939	-2.280202
H	1.102206	0.0	0.0
H	-1.503856	0.273689	-1.54339
H	-0.311551	0.968998	0.416025
N	0.331224	0.973109	-2.24906
H	1.313709	0.835763	-2.025279
H	0.085451	1.913782	-1.963659
N	-0.653154	-1.050715	0.781968
H	-0.257124	-1.935321	0.483212
H	-0.357914	-0.931105	1.74507
Cl	3.548638	0.0	0.0
