13

C	-0.586597	-0.020437	-1.394469
C	0.0	0.0	0.0
Br	0.006593	1.670676	-2.377
H	1.095885	0.0	0.0
H	-0.1349	-0.794623	-2.012713
H	-0.333557	-0.938466	0.458877
N	-1.996206	-0.132999	-1.339447
H	-2.426349	0.025379	-2.240459
H	-2.33083	0.547401	-0.665025
N	-0.597438	1.110978	0.760145
H	-0.067291	1.945422	0.531032
H	-0.429687	0.936969	1.744096
Cl	3.591464	0.0	0.0
