15

C	-0.508501	0.015175	-1.426837
C	0.0	0.0	0.0
F	-0.090938	-1.120561	-2.10152
H	1.093375	0.0	0.0
H	-0.31391	0.937418	0.476449
N	-1.953347	0.002545	-1.470838
H	-2.275493	0.19932	-2.411443
H	-2.316127	0.714737	-0.849972
C	0.036978	1.172501	-2.189244
N	0.331344	2.126168	-2.808585
C	-0.505732	-1.210609	0.777125
H	-0.03417	-1.222258	1.762134
H	-1.590854	-1.213472	0.900617
H	-0.216247	-2.126952	0.261293
Br	3.656992	0.0	0.0
