15

C	-0.329587	-0.02742	-1.484971
C	0.0	0.0	0.0
F	-0.170128	1.285392	-2.002651
H	1.09604	0.0	0.0
H	-0.322087	-0.955291	0.424922
N	0.505597	-0.960809	-2.13521
H	1.468526	-0.833778	-1.824523
H	0.443326	-0.874279	-3.141432
C	-1.756113	-0.343056	-1.751889
N	-2.890044	-0.587207	-1.932265
C	-0.591232	1.178693	0.750818
H	-0.21504	2.117175	0.344646
H	-0.299578	1.126029	1.802011
H	-1.685066	1.188834	0.699449
Br	3.623994	0.0	0.0
