15

C	-0.471512	0.155603	-1.442213
C	0.0	0.0	0.0
F	-1.625259	1.001253	-1.445504
H	1.09298	0.0	0.0
H	-0.301416	0.938607	0.477056
N	0.551221	0.676255	-2.252991
H	0.224636	1.20143	-3.047533
H	1.325161	1.089554	-1.75174
C	-0.990202	-1.10557	-2.039813
N	-1.391101	-2.102797	-2.512294
C	-0.56985	-1.186066	0.760629
H	-0.235267	-1.144078	1.799347
H	-1.663962	-1.189926	0.750303
H	-0.217242	-2.128804	0.338589
Br	3.630469	0.0	0.0
