15

C	-0.369571	0.114448	-1.466354
C	0.0	0.0	0.0
F	-1.708538	0.53346	-1.596774
H	1.095349	0.0	0.0
H	-0.320423	0.947728	0.444134
N	0.468431	1.084166	-2.089152
H	0.47247	0.989433	-3.096283
H	1.420233	1.005483	-1.734294
C	-0.352085	-1.208136	-2.151823
N	-0.328616	-2.249162	-2.695448
C	-0.601146	-1.189513	0.726239
H	-0.357689	-1.133898	1.789492
H	-1.69018	-1.212371	0.623266
H	-0.195936	-2.129143	0.345367
Br	3.594647	0.0	0.0
