15

C	-0.537343	-0.013293	-1.41648
C	0.0	0.0	0.0
F	-1.967385	-0.142054	-1.326028
H	1.092674	0.0	0.0
H	-0.339783	-0.926239	0.471317
N	-0.183921	1.129286	-2.162934
H	-0.378382	1.977107	-1.650451
H	-0.644221	1.142296	-3.062904
C	-0.133562	-1.222819	-2.163652
N	0.118443	-2.192283	-2.773984
C	-0.494951	1.205326	0.797602
H	-0.2276	1.070371	1.847202
H	-0.000664	2.125077	0.47414
H	-1.57815	1.329524	0.727904
Br	3.666581	0.0	0.0
