15

C	-0.536881	0.029591	-1.418265
C	0.0	0.0	0.0
F	-1.971789	0.047626	-1.332898
H	1.092698	0.0	0.0
H	-0.342099	-0.934926	0.451724
N	-0.061775	1.118976	-2.172227
H	-0.575619	1.236944	-3.03418
H	-0.038761	1.971769	-1.635471
C	-0.261848	-1.226834	-2.151161
N	-0.104271	-2.227175	-2.743856
C	-0.489484	1.1852	0.831875
H	-0.022199	2.121434	0.515149
H	-1.574965	1.295412	0.793815
H	-0.18788	1.033967	1.870297
Br	3.66083	0.0	0.0
