19

C	-0.538938	-0.034076	-1.444483
C	0.0	0.0	0.0
Br	-0.188945	1.690289	-2.340902
H	1.090949	0.0	0.0
C	0.260112	-1.095841	-2.189389
H	1.329746	-0.886278	-2.112017
H	0.061377	-2.065766	-1.726637
H	-0.037978	-1.124776	-3.240455
C	-2.038042	-0.282454	-1.523731
H	-2.349744	-0.317427	-2.569896
H	-2.604003	0.4992	-1.015286
H	-2.26301	-1.247102	-1.060264
N	-0.42905	-1.186729	0.691856
H	-1.324454	-1.026579	1.134602
H	0.262399	-1.411972	1.394969
N	-0.483744	1.242877	0.72469
O	-1.617167	1.18791	1.220638
O	0.249117	2.221174	0.772987
Cl	3.365342	0.0	0.0
