19

C	-0.556217	0.060529	-1.437427
C	0.0	0.0	0.0
Br	0.032711	-1.612367	-2.301484
H	1.090011	0.0	0.0
C	-2.076748	0.067901	-1.462768
H	-2.456673	0.979615	-0.990506
H	-2.473186	-0.798149	-0.930472
H	-2.435545	0.035633	-2.493703
C	0.053793	1.196347	-2.249235
H	-0.209674	1.078377	-3.302595
H	-0.327979	2.159729	-1.901499
H	1.140704	1.193605	-2.141359
N	-0.490031	-1.109741	0.752328
H	0.226041	-1.393029	1.408643
H	-1.326531	-0.851941	1.259286
N	-0.402434	1.322869	0.670749
O	-1.384775	1.310754	1.421305
O	0.252588	2.32553	0.411578
Cl	3.345495	0.0	0.0
