19

C	-0.385826	0.00509	-1.481711
C	0.0	0.0	0.0
Br	-2.376218	-0.009498	-1.643784
H	1.094073	0.0	0.0
C	0.141076	1.209693	-2.242799
H	1.218288	1.273377	-2.062034
H	-0.319352	2.141958	-1.923157
H	-0.045815	1.070565	-3.310156
C	0.146019	-1.281045	-2.095351
H	1.232453	-1.284281	-1.957769
H	-0.088872	-1.312664	-3.161667
H	-0.270699	-2.152486	-1.59552
N	-0.474599	-1.142401	0.700181
H	-1.4394	-1.009979	0.978674
H	0.094721	-1.281536	1.525311
N	-0.434405	1.299622	0.671576
O	0.174197	2.325762	0.381866
O	-1.371839	1.245059	1.472173
Cl	3.328736	0.0	0.0
