16

C	-0.502745	-0.052348	-1.451188
C	0.0	0.0	0.0
Cl	0.266577	-1.354092	-2.35589
H	1.095247	0.0	0.0
C	-1.95697	-0.19005	-1.52986
N	-3.124706	-0.328743	-1.550485
N	-0.128778	1.297082	-2.097097
O	-1.046162	2.108996	-2.189872
O	1.042609	1.466897	-2.380475
C	-0.466387	-1.204294	0.679054
N	-0.852912	-2.149913	1.25927
C	-0.469568	1.257616	0.734996
H	-1.556131	1.371365	0.712447
H	-0.13613	1.191588	1.771788
H	0.001587	2.139065	0.29844
Br	3.435191	0.0	0.0
