16

C	-0.424956	0.004309	-1.475791
C	0.0	0.0	0.0
Cl	0.373904	1.305021	-2.350104
H	1.096071	0.0	0.0
C	-0.151583	-1.263928	-2.141639
N	0.070806	-2.285426	-2.680092
N	-1.957478	0.222947	-1.501483
O	-2.378549	1.367345	-1.597524
O	-2.622002	-0.795551	-1.334191
C	-0.468508	-1.217704	0.656331
N	-0.823469	-2.174003	1.241092
C	-0.464937	1.239857	0.764856
H	-1.547213	1.258787	0.913347
H	0.028726	1.228473	1.737592
H	-0.153688	2.142954	0.240028
Br	3.327057	0.0	0.0
