14

C	0.0	0.0	0.0
C	-0.284814	0.096609	-1.544191
Br	1.961299	0.0	0.0
H	-1.376565	0.129831	-1.596961
C	-0.559613	1.15133	0.707554
N	-0.588393	2.165557	1.320317
C	-0.517584	-1.251411	0.550529
N	-0.563665	-2.314641	1.067388
N	0.174836	-1.089684	-2.240307
H	-0.278851	-1.137625	-3.143331
H	1.176984	-1.060844	-2.37784
C	0.235195	1.359522	-2.099019
N	0.59103	2.325785	-2.667917
H	-2.110155	0.0	0.0
