14

C	0.0	0.0	0.0
C	-0.343258	0.013715	-1.52343
Br	1.951249	0.0	0.0
H	-1.43868	0.123348	-1.484374
C	-0.414051	1.206608	0.707487
N	-0.601792	2.144018	1.395279
C	-0.56568	-1.177019	0.655436
N	-0.648701	-2.133468	1.346409
N	0.044959	-1.257081	-2.115141
H	-0.766217	-1.726775	-2.500086
H	0.765176	-1.153449	-2.818365
C	0.227205	1.164934	-2.218572
N	0.665173	2.038111	-2.870328
H	-2.252818	0.0	0.0
