14

C	0.0	0.0	0.0
C	-0.296122	-0.030367	-1.5391
Br	1.961646	0.0	0.0
H	-1.390521	-0.048999	-1.563617
C	-0.470369	1.222075	0.649475
N	-0.633115	2.159229	1.349256
C	-0.513259	-1.200875	0.656021
N	-0.64292	-2.301978	1.061162
N	0.215357	-1.2349	-2.159565
H	-0.313348	-1.42671	-2.999745
H	1.192363	-1.135728	-2.39941
C	0.161784	1.217439	-2.172029
N	0.530648	2.157935	-2.774483
H	-2.170308	0.0	0.0
