14

C	0.0	0.0	0.0
C	-0.374867	0.001391	-1.518308
Br	1.954143	0.0	0.0
H	0.324118	-0.675311	-2.022789
C	-0.585305	1.13947	0.697234
N	-0.630402	2.162149	1.299015
C	-0.435707	-1.249583	0.630309
N	-0.556708	-2.299822	1.15383
N	-0.182241	1.345148	-2.040015
H	-0.903246	1.937982	-1.635099
H	-0.347303	1.316364	-3.0402
C	-1.758804	-0.506681	-1.707107
N	-2.579754	-0.970848	-2.435837
H	-2.057075	0.0	0.0
