14

C	0.0	0.0	0.0
C	-0.20927	0.109799	-1.583147
Br	1.957006	0.0	0.0
H	0.552026	0.83234	-1.871656
C	-0.496222	1.2142	0.640687
N	-0.599461	2.314571	1.057312
C	-0.441665	-1.216964	0.647751
N	-0.512894	-2.24684	1.228823
N	-1.477522	0.602648	-2.101469
H	-1.451348	0.521639	-3.115417
H	-2.217361	0.01167	-1.735356
C	0.164347	-1.199436	-2.165581
N	0.377038	-2.218041	-2.716022
H	-1.976156	0.0	0.0
