14

C	0.0	0.0	0.0
C	-0.287891	0.062984	-1.547543
Br	1.961254	0.0	0.0
H	-1.379715	0.088649	-1.597462
C	-0.511921	1.192103	0.675039
N	-0.551562	2.227687	1.246379
C	-0.559232	-1.222945	0.572702
N	-0.595807	-2.289824	1.086558
N	0.177739	-1.136488	-2.216615
H	-0.296833	-1.219854	-3.107749
H	1.177293	-1.097632	-2.375786
C	0.22094	1.31651	-2.13002
N	0.542012	2.28238	-2.719845
H	-2.113172	0.0	0.0
