14

C	0.0	0.0	0.0
C	-0.284535	0.052998	-1.545467
Br	1.961374	0.0	0.0
H	-1.376318	0.085256	-1.601123
C	-0.559094	1.169768	0.677074
N	-0.581426	2.192306	1.275744
C	-0.511312	-1.2363	0.589359
N	-0.568244	-2.284574	1.134499
N	0.175702	-1.149906	-2.211087
H	1.179732	-1.128794	-2.339058
H	-0.268334	-1.211811	-3.118479
C	0.231347	1.304006	-2.132963
N	0.545368	2.260774	-2.74141
H	-2.108884	0.0	0.0
