15

C	0.0	0.0	0.0
C	-0.366612	-0.148445	-1.511193
Cl	1.755353	0.0	0.0
H	0.361907	-0.886379	-1.868748
N	-0.460382	1.245938	0.742689
O	-0.626391	2.277097	0.111382
O	-0.501649	1.136504	1.95902
C	-0.448938	-1.176794	0.739462
N	-0.547772	-2.209505	1.293062
N	-0.094184	1.074827	-2.257557
H	-0.220841	0.846605	-3.237586
H	-0.802063	1.753547	-2.004465
C	-1.689247	-0.734087	-1.82081
N	-2.448856	-1.26222	-2.556667
F	-2.318709	0.0	0.0
