15

C	0.0	0.0	0.0
C	-0.295899	-0.183699	-1.5839
Cl	1.762359	0.0	0.0
H	0.566126	0.297495	-2.053115
N	-0.423626	1.372512	0.473081
O	-0.659756	1.513053	1.661806
O	-0.374483	2.264186	-0.367568
C	-0.50325	-1.030898	0.889444
N	-0.659104	-1.932451	1.628358
N	-1.471068	0.31128	-2.228612
H	-1.371913	1.31872	-2.262845
H	-2.218742	0.123179	-1.52523
C	-0.141708	-1.627857	-1.836194
N	0.011374	-2.762784	-2.095016
F	-2.416818	0.0	0.0
