15

C	0.0	0.0	0.0
C	-0.29074	-0.06965	-1.596067
Cl	1.762166	0.0	0.0
H	0.541879	0.497297	-2.019316
N	-0.436469	1.329936	0.566949
O	-0.395983	2.277362	-0.211085
O	-0.677369	1.385245	1.761821
C	-0.509447	-1.096507	0.803359
N	-0.650615	-2.059427	1.464209
N	-1.493519	0.403549	-2.204755
H	-1.440656	1.416175	-2.19056
H	-2.229173	0.15516	-1.504917
C	-0.060398	-1.478393	-1.958519
N	0.142327	-2.583761	-2.300433
F	-2.441423	0.0	0.0
