15

C	0.0	0.0	0.0
C	-0.27948	-0.268611	-1.577343
Cl	1.76231	0.0	0.0
H	0.556882	0.241178	-2.062335
N	-0.429376	1.396261	0.390169
O	-0.393362	2.235448	-0.504245
O	-0.656285	1.608171	1.570126
C	-0.512549	-0.981576	0.936523
N	-0.663139	-1.845718	1.720723
N	-1.47872	0.12884	-2.24749
H	-2.216803	-0.044695	-1.530385
H	-1.428991	1.137149	-2.334212
C	-0.045571	-1.712968	-1.760814
N	0.16276	-2.853773	-1.947542
F	-2.417929	0.0	0.0
