17

C	-0.471348	-0.058431	-1.46779
C	0.0	0.0	0.0
F	-1.841379	-0.45123	-1.437938
H	1.090639	0.0	0.0
N	-0.321237	1.230186	-2.028162
H	-0.505952	1.216533	-3.021374
H	-0.90821	1.914931	-1.570923
C	0.286067	-1.085343	-2.276731
H	1.35763	-0.919142	-2.157051
H	0.03952	-2.088594	-1.937983
H	-0.001449	-0.988302	-3.328259
N	-0.466613	-1.229608	0.723855
O	0.095549	-2.277841	0.424929
O	-1.374419	-1.117405	1.545327
C	-0.530997	1.176222	0.676159
N	-0.927624	2.170133	1.159911
Cl	3.227352	0.0	0.0
