17

C	-0.386014	-0.03772	-1.495007
C	0.0	0.0	0.0
F	-0.05898	1.267349	-1.950108
H	1.092033	0.0	0.0
N	0.407062	-1.030033	-2.104105
H	0.306117	-1.004144	-3.110487
H	1.386157	-0.92235	-1.842179
C	-1.861046	-0.211566	-1.780293
H	-2.020564	-0.125309	-2.858664
H	-2.210414	-1.186856	-1.44488
H	-2.434896	0.570808	-1.282021
N	-0.483657	-1.253034	0.668715
O	0.268455	-2.218543	0.657783
O	-1.619869	-1.233214	1.149307
C	-0.560246	1.157804	0.675725
N	-1.01447	2.09903	1.210791
Cl	3.24208	0.0	0.0
