17

C	-0.516819	0.01675	-1.47041
C	0.0	0.0	0.0
F	-0.169815	-1.238229	-1.957458
H	1.090947	0.0	0.0
N	-1.932759	0.148982	-1.645495
H	-2.209272	1.112877	-1.518281
H	-2.423784	-0.417389	-0.962501
C	0.238935	1.068912	-2.248302
H	0.005737	2.069318	-1.874538
H	-0.060817	0.997803	-3.295588
H	1.311323	0.895431	-2.142802
N	-0.491931	-1.259624	0.652096
O	-1.699553	-1.315473	0.91386
O	0.31479	-2.157531	0.836371
C	-0.533103	1.147359	0.71523
N	-0.966457	2.108278	1.233595
Cl	3.263892	0.0	0.0
