17

C	-0.517845	0.015844	-1.470853
C	0.0	0.0	0.0
F	-0.198939	-1.248043	-1.958026
H	1.090762	0.0	0.0
N	-1.933768	0.175702	-1.63463
H	-2.428196	-0.38027	-0.94912
H	-2.195809	1.142601	-1.504491
C	0.256552	1.056454	-2.251187
H	-0.03954	0.985986	-3.299561
H	1.328112	0.86881	-2.141928
H	0.037118	2.063779	-1.881327
N	-0.506652	-1.244989	0.662304
O	-1.702672	-1.25616	0.97853
O	0.270178	-2.178748	0.796418
C	-0.517997	1.162819	0.704991
N	-0.931754	2.140948	1.207535
Cl	3.259948	0.0	0.0
