17

C	-0.441484	0.00228	-1.477689
C	0.0	0.0	0.0
F	0.056268	1.232933	-1.967442
H	1.092017	0.0	0.0
N	0.170703	-1.107566	-2.09503
H	1.168957	-1.114253	-1.906283
H	0.004461	-1.102849	-3.090691
C	-1.936573	0.05024	-1.706331
H	-2.129701	0.0911	-2.781715
H	-2.428165	-0.823958	-1.286133
H	-2.352249	0.947766	-1.248806
N	-0.496508	-1.258236	0.648223
O	-1.654818	-1.253982	1.069816
O	0.268145	-2.213629	0.682228
C	-0.520592	1.150681	0.719574
N	-0.938478	2.090123	1.286899
Cl	3.247703	0.0	0.0
