17

C	-0.476531	-0.073069	-1.465918
C	0.0	0.0	0.0
F	-1.834617	-0.507282	-1.425492
H	1.090685	0.0	0.0
N	-0.374475	1.219367	-2.026332
H	-0.565426	1.196904	-3.018236
H	-0.982585	1.884224	-1.567277
C	0.305412	-1.066836	-2.292324
H	0.087038	-2.079989	-1.96882
H	0.015635	-0.95767	-3.342211
H	1.371831	-0.873387	-2.170871
N	-0.447199	-1.218404	0.756896
O	-1.199062	-1.067986	1.715905
O	-0.013945	-2.29342	0.360314
C	-0.525787	1.185189	0.664824
N	-0.941475	2.187042	1.115477
Cl	3.216587	0.0	0.0
