17

C	-0.377624	-0.008433	-1.498581
C	0.0	0.0	0.0
F	-0.083632	1.31719	-1.918005
H	1.092041	0.0	0.0
N	0.445297	-0.961951	-2.128822
H	1.419135	-0.841186	-1.85297
H	0.353753	-0.908456	-3.134874
C	-1.845607	-0.215268	-1.797362
H	-2.165703	-1.212466	-1.498843
H	-2.00229	-0.096449	-2.873009
H	-2.4459	0.5308	-1.27531
N	-0.48256	-1.268996	0.638576
O	0.269175	-2.234414	0.601825
O	-1.618164	-1.260976	1.120986
C	-0.566151	1.140866	0.698328
N	-1.023877	2.068853	1.25314
Cl	3.244552	0.0	0.0
