17

C	-0.459956	0.059826	-1.483115
C	0.0	0.0	0.0
Br	0.125135	1.80105	-2.190518
H	1.107749	0.0	0.0
C	0.263678	-1.027617	-2.262524
H	0.034035	-0.943228	-3.327099
H	1.342302	-0.942628	-2.109652
H	-0.067108	-2.010449	-1.910299
C	-1.971402	-0.012481	-1.625545
H	-2.252324	0.070706	-2.67771
H	-2.329201	-0.973613	-1.242325
H	-2.459226	0.792831	-1.071829
C	-0.448427	-1.265367	0.588567
N	-0.838708	-2.287617	1.018522
C	-0.520288	1.10639	0.800095
N	-0.974212	1.979487	1.441797
Br	3.379548	0.0	0.0
