17

C	-0.466829	-0.083249	-1.47855
C	0.0	0.0	0.0
Br	0.147712	-1.819648	-2.171491
H	1.107745	0.0	0.0
C	-1.98018	-0.042603	-1.611969
H	-2.266091	-0.1409	-2.661612
H	-2.355406	0.913893	-1.234377
H	-2.447923	-0.852768	-1.048344
C	0.229852	1.010228	-2.273105
H	-0.119781	1.989446	-1.929852
H	1.310405	0.949168	-2.125499
H	-0.003423	0.909698	-3.335329
C	-0.513135	-1.096764	0.817455
N	-0.965514	-1.958102	1.475431
C	-0.459165	1.267073	0.577235
N	-0.872977	2.280615	1.006438
Br	3.376101	0.0	0.0
