17

C	-0.32259	0.002383	-1.511669
C	0.0	0.0	0.0
Br	-2.285098	0.004906	-1.780816
H	1.106551	0.0	0.0
C	0.256797	1.258558	-2.140545
H	0.091706	1.246867	-3.221022
H	1.333284	1.27175	-1.932847
H	-0.199041	2.159693	-1.726648
C	0.255901	-1.253143	-2.142266
H	0.090577	-1.239695	-3.222617
H	1.332358	-1.267463	-1.935001
H	-0.200441	-2.15459	-1.729602
C	-0.479677	-1.199934	0.677316
N	-0.862436	-2.176706	1.208063
C	-0.479187	1.196935	0.682392
N	-0.862551	2.172557	1.214539
Br	3.37792	0.0	0.0
