17

C	-0.323224	0.002058	-1.510634
C	0.0	0.0	0.0
Br	-2.288014	0.005244	-1.774885
H	1.099983	0.0	0.0
C	0.252915	1.258916	-2.140809
H	0.082531	1.248511	-3.219672
H	1.329792	1.272224	-1.938958
H	-0.200421	2.160049	-1.72378
C	0.2526	-1.253776	-2.143281
H	0.08193	-1.241199	-3.222078
H	1.329517	-1.267996	-1.941709
H	-0.200919	-2.155609	-1.727866
C	-0.477799	-1.199973	0.681348
N	-0.851245	-2.171099	1.22668
C	-0.478227	1.19835	0.683851
N	-0.858348	2.171435	1.221081
Br	3.373806	0.0	0.0
