17

C	-0.324102	-0.108611	-1.50565
C	0.0	0.0	0.0
Br	-2.290416	-0.128607	-1.768398
H	1.108169	0.0	0.0
C	0.254504	1.097157	-2.226618
H	1.33224	1.120299	-2.029546
H	-0.193545	2.027784	-1.875159
H	0.081102	1.009319	-3.301614
C	0.244636	-1.40992	-2.043613
H	-0.211006	-2.277131	-1.562329
H	1.320546	-1.412705	-1.840981
H	0.07422	-1.476633	-3.120497
C	-0.480342	-1.143608	0.768673
N	-0.866762	-2.073338	1.374387
C	-0.472516	1.247604	0.59361
N	-0.844666	2.262274	1.057478
Br	3.3702	0.0	0.0
