17

C	0.0	0.0	0.0
C	-0.411445	-0.053761	-1.529908
Br	2.049811	0.0	0.0
H	0.475187	0.235296	-2.097199
N	-0.501071	1.12028	0.666971
H	-1.010088	1.696361	0.000869
H	-1.062599	0.895164	1.474914
C	-0.284319	-1.239077	0.727363
N	-0.481434	-2.243682	1.305649
N	-1.415279	0.97009	-1.767424
H	-2.330007	0.660531	-1.420332
H	-1.479731	1.156458	-2.760683
C	-0.830726	-1.463969	-1.942636
H	-1.029895	-1.469764	-3.018946
H	-1.749815	-1.742163	-1.423413
H	-0.051322	-2.201883	-1.730615
Br	-4.112681	0.0	0.0
