17

C	0.0	0.0	0.0
C	-0.363754	-0.017306	-1.503518
Br	2.074857	0.0	0.0
H	0.301208	-0.743783	-1.987761
N	-0.542794	1.074006	0.682857
H	-0.91098	1.767526	0.044135
H	-1.134368	0.856044	1.469584
C	-0.26169	-1.287848	0.637882
N	-0.447998	-2.343356	1.122072
N	-0.171346	1.345942	-1.989089
H	0.812707	1.525796	-2.15049
H	-0.674367	1.467843	-2.858241
C	-1.8107	-0.440461	-1.706666
H	-2.038031	-0.41067	-2.778561
H	-1.978729	-1.461996	-1.362835
H	-2.535071	0.18556	-1.181615
Br	-4.953878	0.0	0.0
