17

C	0.0	0.0	0.0
C	-0.510399	-0.141793	-1.441668
Br	1.970212	0.0	0.0
H	-1.595439	-0.227209	-1.302078
N	-0.511239	1.197295	0.597808
H	-0.302747	1.198235	1.590657
H	-1.533986	1.135011	0.500254
C	-0.307841	-1.231184	0.760119
N	-0.499102	-2.152618	1.465272
N	-0.028864	-1.397339	-2.000707
H	-0.724184	-1.772335	-2.632375
H	0.830851	-1.248652	-2.516265
C	-0.21856	1.091102	-2.286662
H	-0.707199	0.974253	-3.258457
H	-0.596287	1.996145	-1.810989
H	0.857819	1.205461	-2.449299
Br	-3.7718	0.0	0.0
