17

C	0.0	0.0	0.0
C	-0.512984	-0.118127	-1.457382
Br	1.961139	0.0	0.0
H	-1.593948	0.032084	-1.331227
N	-0.500434	1.128736	0.737588
H	-0.308741	1.976384	0.214633
H	-1.520061	1.006587	0.780741
C	-0.355651	-1.227835	0.730291
N	-0.593609	-2.230809	1.294029
N	-0.197617	-1.440006	-1.998226
H	-0.362201	-1.421687	-2.999206
H	-0.860362	-2.105631	-1.611628
C	0.039178	0.95384	-2.379718
H	-0.553822	0.972636	-3.299345
H	-0.023833	1.949792	-1.936506
H	1.080086	0.744165	-2.634421
Br	-3.764552	0.0	0.0
