17

C	0.0	0.0	0.0
C	-0.413239	-0.043246	-1.527397
Br	2.052052	0.0	0.0
H	0.468297	0.263699	-2.093896
N	-0.499284	1.117346	0.673451
H	-1.051126	0.88796	1.487448
H	-1.022925	1.689802	0.014571
C	-0.284565	-1.243705	0.718624
N	-0.482851	-2.252553	1.289066
N	-1.431928	0.970003	-1.755115
H	-1.514126	1.14367	-2.749155
H	-2.339676	0.649297	-1.398659
C	-0.815293	-1.453414	-1.95397
H	-0.027278	-2.184035	-1.748281
H	-1.012356	-1.453215	-3.030035
H	-1.731608	-1.749905	-1.438496
Br	-4.120629	0.0	0.0
