16

C	-0.399633	-0.03286	-1.484733
C	0.0	0.0	0.0
Br	-2.3647	-0.30474	-1.635166
H	1.110761	0.0	0.0
C	-0.129428	1.247479	-2.132908
N	0.083516	2.261452	-2.688629
C	0.319405	-1.169895	-2.193551
H	0.050586	-1.19814	-3.250657
H	1.395291	-1.004761	-2.075606
H	0.048398	-2.106764	-1.708621
N	-0.387945	-1.237743	0.661043
H	0.319526	-1.458102	1.351808
H	-1.285405	-1.143016	1.119537
C	-0.503756	1.202848	0.671061
N	-0.944573	2.119221	1.261547
Cl	3.251396	0.0	0.0
