16

C	-0.366661	0.207069	-1.503049
C	0.0	0.0	0.0
Br	0.238461	-1.378889	-2.499759
H	1.108341	0.0	0.0
C	-1.816765	0.267046	-1.683805
N	-2.987473	0.311085	-1.799713
C	0.345267	1.431395	-2.063834
H	1.413945	1.321096	-1.862054
H	-0.026403	2.329172	-1.56247
H	0.170974	1.524382	-3.136319
N	-0.480352	-1.198126	0.64474
H	-1.428876	-1.418956	0.366933
H	0.131506	-1.96518	0.403976
C	-0.487055	1.181997	0.72295
N	-0.906294	2.132443	1.273117
Cl	3.290992	0.0	0.0
