16

C	-0.423519	0.063956	-1.482636
C	0.0	0.0	0.0
Br	0.129707	-1.617415	-2.349637
H	1.098483	0.0	0.0
C	-1.875837	0.145809	-1.623876
N	-3.036426	0.272606	-1.760747
C	0.289613	1.213901	-2.186406
H	-0.049029	2.162918	-1.761667
H	0.071311	1.203606	-3.25526
H	1.36415	1.106352	-2.01729
N	-0.590215	-1.158673	0.677734
H	0.006839	-1.951649	0.463222
H	-0.509317	-1.00828	1.677893
C	-0.468149	1.226776	0.649321
N	-0.851415	2.202906	1.178819
Cl	3.31197	0.0	0.0
