16

C	-0.551043	-0.03715	-1.442418
C	0.0	0.0	0.0
Br	0.102116	1.536802	-2.41809
H	1.108424	0.0	0.0
C	-0.047253	-1.225948	-2.127641
N	0.261158	-2.192661	-2.72083
C	-2.075763	-0.040362	-1.481269
H	-2.43191	-0.091745	-2.511098
H	-2.459304	0.870146	-1.017023
H	-2.432494	-0.916392	-0.934196
N	-0.422686	-1.228267	0.679136
H	0.393509	-1.635151	1.121312
H	-1.122332	-1.047345	1.386921
C	-0.483706	1.199198	0.688185
N	-0.941695	2.101114	1.28752
Cl	3.249487	0.0	0.0
