16

C	-0.442977	0.242306	-1.4568
C	0.0	0.0	0.0
Br	0.112443	-1.312779	-2.53346
H	1.109919	0.0	0.0
C	-1.898771	0.324029	-1.562829
N	-3.062985	0.457388	-1.658944
C	0.244118	1.47933	-2.024687
H	0.006001	1.597792	-3.082571
H	1.322684	1.366283	-1.889095
H	-0.097858	2.364146	-1.480676
N	-0.581548	-1.235435	0.536654
H	-0.491609	-1.207658	1.547077
H	0.017067	-1.993546	0.223228
C	-0.464005	1.135659	0.800841
N	-0.844373	2.03764	1.450615
Cl	3.311682	0.0	0.0
