16

C	-0.398685	0.168803	-1.475946
C	0.0	0.0	0.0
Br	-2.367822	-0.052553	-1.658362
H	1.108787	0.0	0.0
C	-0.107073	1.519206	-1.950793
N	0.124128	2.593949	-2.367925
C	0.302645	-0.876959	-2.329634
H	1.381328	-0.745995	-2.192583
H	0.034667	-0.760761	-3.380939
H	0.015539	-1.865067	-1.972256
N	-0.394161	-1.312027	0.489678
H	-1.290746	-1.27683	0.958122
H	0.313479	-1.63186	1.139665
C	-0.499274	1.10551	0.82447
N	-0.936429	1.940014	1.528241
Cl	3.251966	0.0	0.0
