13

C	-0.104323	0.026236	-1.502138
C	0.0	0.0	0.0
F	-0.24861	-1.296993	-1.992547
H	1.091889	0.0	0.0
H	-0.47499	-0.883189	0.419584
H	-0.388446	0.916799	0.439847
N	-1.39588	0.641277	-2.083123
O	-2.351786	0.823834	-1.332722
O	-1.401382	0.874992	-3.290817
N	0.988472	0.69986	-2.031312
H	1.091243	0.556241	-3.024712
H	1.838322	0.486839	-1.458553
F	2.751394	0.0	0.0
