13

C	-0.118858	-0.130383	-1.506401
C	0.0	0.0	0.0
F	-0.206289	-1.461645	-1.836303
H	1.089604	0.0	0.0
H	-0.490079	-0.816143	0.528809
H	-0.359777	0.97802	0.327339
N	-1.432058	0.480168	-2.024445
O	-1.42994	1.684699	-2.280132
O	-2.419657	-0.244616	-2.076342
N	0.968286	0.453027	-2.212275
H	1.796307	0.334234	-1.5911
H	0.789171	1.44233	-2.32228
F	2.717914	0.0	0.0
