13

C	-0.561334	-0.018319	-1.387179
C	0.0	0.0	0.0
F	-0.199564	1.105618	-2.06302
H	1.091696	0.0	0.0
H	-0.37385	-0.875596	0.537993
H	-0.37684	0.907553	0.486045
N	0.020623	-1.207653	-2.151153
O	-0.335797	-2.309775	-1.733615
O	0.753413	-1.00331	-3.104288
N	-1.992265	-0.164935	-1.571393
H	-2.429069	0.580158	-1.038709
H	-2.258534	-1.042534	-1.141323
F	2.662716	0.0	0.0
