15

C	0.0	0.0	0.0
C	-0.38791	-0.712028	-1.333471
F	1.407723	0.0	0.0
H	-0.735283	-1.714044	-1.073091
H	0.556186	-0.816534	-1.877149
N	-0.436039	1.376911	-0.035369
H	-0.150334	1.806243	0.841297
H	-1.459742	1.256709	-0.001239
N	-0.458226	-0.785748	1.116625
H	-0.259184	-0.263025	1.967001
H	-1.481023	-0.743878	0.969501
N	-1.37733	-0.091144	-2.199595
H	-1.064829	0.860887	-2.359023
H	-2.208744	-0.023183	-1.598176
F	-2.861998	0.0	0.0
