15

C	0.0	0.0	0.0
C	-0.389882	-0.298955	-1.442963
F	1.421915	0.0	0.0
H	-0.064498	0.55059	-2.060173
H	-1.480414	-0.351488	-1.416226
N	-0.501871	1.291811	0.344573
H	-0.333988	1.395048	1.342025
H	-1.52507	1.1276	0.241196
N	-0.436398	-1.008973	0.928273
H	-1.46079	-0.891889	0.863556
H	-0.219908	-1.905483	0.498554
N	0.187437	-1.583321	-1.860048
H	-0.222975	-1.859436	-2.74363
H	1.181409	-1.452579	-2.008574
F	-2.8611	0.0	0.0
