13

C	-0.588127	0.058183	-1.396598
C	0.0	0.0	0.0
Br	-0.303195	-1.552857	-2.444715
H	1.089714	0.0	0.0
H	-1.665249	0.21573	-1.345349
H	-0.10201	0.876487	-1.922402
N	-0.509126	-1.261938	0.673286
O	0.270509	-2.176529	0.907187
O	-1.719755	-1.276112	0.93011
N	-0.44216	1.169771	0.703726
H	-1.379142	1.039642	1.061891
H	0.200863	1.375534	1.455357
Br	3.535561	0.0	0.0
