13

C	-0.401767	-0.070427	-1.447653
C	0.0	0.0	0.0
Br	-2.332615	-0.051143	-1.733746
H	1.102882	0.0	0.0
H	-0.020683	-0.981923	-1.896584
H	0.00512	0.794319	-1.970983
N	-0.400879	-1.249225	0.725055
O	-0.406531	-2.301011	0.091625
O	-0.62958	-1.15286	1.928484
N	-0.564796	1.137527	0.697904
H	-0.179731	1.965054	0.251598
H	-0.193208	1.122538	1.641875
Br	3.44395	0.0	0.0
