13

C	-0.380606	0.004383	-1.464562
C	0.0	0.0	0.0
Br	-2.322931	0.106664	-1.735484
H	1.093673	0.0	0.0
H	-0.042112	-0.899022	-1.962117
H	0.043778	0.887841	-1.937753
N	-0.465595	-1.328595	0.581517
O	-1.166038	-1.330594	1.584826
O	-0.10513	-2.333541	-0.029511
N	-0.437581	1.085726	0.795007
H	-1.307029	1.494691	0.48853
H	0.294973	1.766582	0.901721
Br	3.437764	0.0	0.0
