13

C	-0.542305	0.066989	-1.414885
C	0.0	0.0	0.0
Br	-0.186475	-1.53261	-2.46336
H	1.089432	0.0	0.0
H	-1.625687	0.193609	-1.402532
H	-0.054165	0.895864	-1.926375
N	-0.563018	-1.229144	0.661507
O	0.199845	-2.071198	1.11616
O	-1.79493	-1.281746	0.708393
N	-0.419331	1.129454	0.787163
H	0.326787	1.808483	0.830192
H	-1.281328	1.545393	0.463668
Br	3.51443	0.0	0.0
