13

C	-0.411059	-0.11083	-1.44579
C	0.0	0.0	0.0
Br	-2.358631	-0.139125	-1.668918
H	1.092357	0.0	0.0
H	-0.029133	-1.023837	-1.892794
H	-0.049713	0.768337	-1.973115
N	-0.418065	-1.293758	0.703239
O	-1.0589	-1.201713	1.750955
O	-0.087422	-2.349185	0.171918
N	-0.476838	1.171142	0.641094
H	-1.449047	1.075283	0.901967
H	0.070831	1.344863	1.472869
Br	3.444478	0.0	0.0
