16

C	-0.54797	0.047172	-1.580877
C	0.178832	-0.030457	-0.269066
F	-0.00757	1.079862	-2.358422
H	1.252889	-0.086613	-0.464923
H	-0.094295	-0.96152	0.230311
N	-0.302812	-1.170803	-2.484795
O	0.472717	-2.042825	-2.112111
O	-0.912251	-1.167437	-3.553295
N	-1.944595	0.14575	-1.466613
H	-2.181059	0.862586	-0.795605
H	-2.361436	0.335905	-2.368491
C	-0.103882	1.162832	0.637582
H	-1.111225	1.124959	1.068616
H	0.027221	2.107045	0.100498
H	0.637404	1.10926	1.462148
H	2.147483	0.5903	2.577813
