18

C	-0.413256	-0.053201	-1.462468
C	0.0	0.0	0.0
F	-1.806383	-0.412004	-1.488951
H	1.095214	0.0	0.0
N	-0.22807	1.179147	-2.142877
H	-0.474793	1.031029	-3.114046
H	-0.826282	1.891068	-1.745843
N	0.268473	-1.081945	-2.19813
H	1.259734	-0.851421	-2.10987
H	0.140871	-1.92219	-1.640548
N	-0.3908	-1.277216	0.606073
H	-1.335852	-1.222439	0.969367
H	0.247839	-1.463832	1.371056
C	-0.509799	1.224883	0.746174
H	-1.603231	1.306977	0.690741
H	-0.221392	1.151324	1.798732
H	-0.054565	2.138172	0.352905
H	3.008462	0.0	0.0
