18

C	-0.396549	0.070215	-1.462352
C	0.0	0.0	0.0
F	-0.013274	-1.215066	-2.033321
H	1.102123	0.0	0.0
N	-1.808616	0.196188	-1.637525
H	-2.045048	-0.038093	-2.596467
H	-2.212692	-0.514916	-1.033857
N	0.347307	1.089618	-2.106815
H	1.329664	0.94218	-1.869793
H	0.233026	1.021663	-3.112361
N	-0.575468	-1.231784	0.570131
H	-0.040666	-2.000229	0.176946
H	-0.357008	-1.2229	1.561666
C	-0.49054	1.207836	0.774848
H	-0.190405	2.12336	0.265269
H	-0.033204	1.207806	1.770308
H	-1.579177	1.198268	0.877421
H	3.061474	0.0	0.0
