18

C	-0.292775	-0.029013	-1.500538
C	0.0	0.0	0.0
F	-0.075228	-1.354066	-1.964472
H	1.09831	0.0	0.0
N	-1.695488	0.192139	-1.815859
H	-1.841249	-0.077924	-2.78497
H	-1.858896	1.190279	-1.750694
N	0.602377	0.86842	-2.15206
H	1.543402	0.726343	-1.765478
H	0.620589	0.672652	-3.14715
N	-0.519275	-1.161039	0.712187
H	0.109564	-1.932512	0.522835
H	-1.415713	-1.4024	0.299315
C	-0.507324	1.28294	0.636009
H	-1.602869	1.293065	0.682587
H	-0.123604	1.334393	1.657217
H	-0.157403	2.15977	0.085464
H	3.027066	0.0	0.0
