18

C	-0.387299	0.065979	-1.47676
C	0.0	0.0	0.0
F	-1.72506	0.594388	-1.572148
H	1.096262	0.0	0.0
N	0.421782	0.972755	-2.255377
H	0.291795	1.90639	-1.880986
H	1.388859	0.712553	-2.053471
N	-0.315598	-1.211468	-2.057942
H	-0.697883	-1.182335	-2.99314
H	-0.786958	-1.87004	-1.45249
N	-0.467313	-1.250684	0.618428
H	-1.159293	-1.051099	1.329222
H	0.332213	-1.677814	1.073787
C	-0.452491	1.226421	0.77632
H	-1.541312	1.248906	0.890518
H	0.01934	1.211651	1.763304
H	-0.143898	2.15298	0.285876
H	2.976814	0.0	0.0
