18

C	-0.309253	-0.023778	-1.499779
C	0.0	0.0	0.0
F	-0.051389	1.298427	-2.015458
H	1.097777	0.0	0.0
N	0.562173	-0.951886	-2.128747
H	1.494822	-0.818327	-1.723855
H	0.615694	-0.740228	-3.120053
N	-1.688098	-0.32351	-1.796958
H	-1.768609	-0.590982	-2.771732
H	-2.226484	0.524469	-1.659872
N	-0.434865	-1.236947	0.651681
H	-1.313631	-1.516843	0.221178
H	0.246286	-1.954716	0.419534
C	-0.573707	1.204735	0.717584
H	-1.671434	1.174483	0.73768
H	-0.223595	1.182433	1.751049
H	-0.249387	2.135525	0.25131
H	3.009129	0.0	0.0
