18

C	-0.351661	-0.100982	-1.472138
C	0.0	0.0	0.0
F	-1.725029	-0.491177	-1.623001
H	1.102743	0.0	0.0
N	-0.187008	1.151693	-2.150625
H	-0.810605	1.837659	-1.741197
H	-0.463052	1.025409	-3.118877
N	0.424523	-1.16411	-2.036545
H	1.391373	-1.014974	-1.731297
H	0.391583	-1.127419	-3.050228
N	-0.488962	-1.203657	0.706416
H	0.275045	-1.477002	1.321962
H	-0.55324	-1.947475	0.01725
C	-0.535375	1.243713	0.682693
H	-0.332841	1.166681	1.753568
H	-0.034027	2.144387	0.318041
H	-1.620446	1.326844	0.554444
H	2.992047	0.0	0.0
