18

C	-0.304707	0.090286	-1.493903
C	0.0	0.0	0.0
F	-1.666992	0.51458	-1.692724
H	1.096142	0.0	0.0
N	0.529692	1.103249	-2.056968
H	1.481202	0.928993	-1.714604
H	0.526494	1.038125	-3.070198
N	-0.166705	-1.184546	-2.142542
H	-0.427932	-1.078646	-3.117507
H	-0.807403	-1.844055	-1.718808
N	-0.452491	-1.219266	0.662429
H	0.183889	-1.970469	0.432709
H	-1.390014	-1.469898	0.376063
C	-0.511312	1.221518	0.741507
H	-0.071163	1.225442	1.741024
H	-1.602233	1.197039	0.835743
H	-0.226635	2.135429	0.218751
H	2.98132	0.0	0.0
