18

C	-0.412831	-0.037364	-1.466012
C	0.0	0.0	0.0
F	0.006692	1.174786	-2.053344
H	1.096111	0.0	0.0
N	0.24409	-1.083587	-2.203527
H	1.240812	-0.877546	-2.120852
H	0.10156	-1.913911	-1.633908
N	-1.830787	-0.180084	-1.628775
H	-2.001923	-0.312214	-2.620072
H	-2.277574	0.680644	-1.335732
N	-0.400152	-1.280338	0.589108
H	0.178748	-1.448716	1.404104
H	-1.374243	-1.248356	0.870425
C	-0.506954	1.224249	0.749922
H	-0.220359	2.142417	0.232775
H	-1.599132	1.207264	0.873655
H	-0.055392	1.247307	1.746453
H	3.039132	0.0	0.0
