18

C	-0.279964	0.053221	-1.494956
C	0.0	0.0	0.0
F	-1.667805	0.152816	-1.718012
H	1.098268	0.0	0.0
N	0.351324	1.219514	-2.042589
H	1.293986	1.260234	-1.651999
H	0.435006	1.074496	-3.043412
N	0.1351	-1.149087	-2.184023
H	1.146091	-1.186926	-2.057679
H	-0.234092	-1.918701	-1.63043
N	-0.45162	-1.28182	0.551112
H	0.243448	-1.590766	1.222058
H	-1.328161	-1.154856	1.044085
C	-0.529977	1.205478	0.756915
H	-0.175249	1.175239	1.79236
H	-1.626566	1.208901	0.756461
H	-0.189925	2.135606	0.30003
H	2.952097	0.0	0.0
