18

C	-0.350606	-0.090227	-1.482461
C	0.0	0.0	0.0
F	-0.1311	1.180936	-2.07012
H	1.099275	0.0	0.0
N	0.555556	-1.03703	-2.068804
H	0.529232	-0.945038	-3.079019
H	1.50247	-0.81013	-1.746485
N	-1.741685	-0.391635	-1.688031
H	-1.982842	-1.045894	-0.948851
H	-1.856596	-0.863423	-2.578204
N	-0.501255	-1.239304	0.638326
H	-0.248455	-1.182026	1.620466
H	0.067532	-1.99198	0.257473
C	-0.578318	1.216444	0.683899
H	-0.245775	1.244281	1.727351
H	-0.221569	2.122665	0.195169
H	-1.671802	1.200714	0.658295
H	3.035091	0.0	0.0
