18

C	-0.235845	-0.029043	-1.499796
C	0.0	0.0	0.0
F	-1.607525	-0.047733	-1.800315
H	1.107445	0.0	0.0
N	0.290132	1.131442	-2.196155
H	-0.189185	1.958922	-1.858208
H	1.26712	1.207379	-1.910278
N	0.346583	-1.235543	-2.019625
H	1.285323	-1.302495	-1.62238
H	0.441299	-1.111287	-3.021894
N	-0.534478	-1.209559	0.654713
H	-0.639092	-1.919049	-0.063407
H	0.203601	-1.546157	1.267694
C	-0.549463	1.236036	0.686107
H	-0.39359	1.135985	1.762997
H	-0.037056	2.14768	0.36655
H	-1.625074	1.328769	0.50736
H	2.963959	0.0	0.0
