18

C	-0.278931	-0.069059	-1.502854
C	0.0	0.0	0.0
F	-1.606296	-0.614812	-1.71781
H	1.096234	0.0	0.0
N	-0.264196	1.22402	-2.125296
H	-1.029564	1.777255	-1.755238
H	-0.425507	1.102576	-3.12063
N	0.642724	-0.992672	-2.079421
H	0.720982	-0.846238	-3.078703
H	1.562088	-0.817742	-1.655147
N	-0.417497	-1.224411	0.69003
H	-1.230775	-1.600062	0.215328
H	0.329828	-1.900389	0.572568
C	-0.569362	1.223946	0.687736
H	-0.333915	1.150923	1.750262
H	-1.662033	1.271991	0.589312
H	-0.124394	2.141961	0.297172
H	2.967889	0.0	0.0
