17

C	-0.355996	-0.092769	-1.489758
C	0.0	0.0	0.0
Cl	-0.183693	1.535967	-2.250269
H	1.091395	0.0	0.0
H	-1.406308	-0.359049	-1.638168
C	0.619075	-1.051931	-2.152817
H	1.618379	-0.799088	-1.778572
H	0.56262	-0.998039	-3.241491
H	0.389122	-2.076325	-1.842153
N	-0.500973	-1.286941	0.580694
O	0.310723	-2.139215	0.93557
O	-1.728639	-1.42972	0.669273
C	-0.62783	1.141037	0.769762
H	-0.474173	0.985332	1.841378
H	-0.122101	2.065738	0.493337
H	-1.700244	1.237234	0.577045
F	2.653717	0.0	0.0
