17

C	-0.260587	0.076287	-1.483709
C	0.0	0.0	0.0
Cl	-2.020917	0.36121	-1.885358
H	1.095327	0.0	0.0
H	-0.039888	-0.900624	-1.908459
C	0.620493	1.133388	-2.122136
H	1.624614	0.957248	-1.717022
H	0.291366	2.140972	-1.856671
H	0.611383	1.044119	-3.210617
N	-0.463118	-1.294184	0.550828
O	-0.398653	-2.296988	-0.163463
O	-0.84469	-1.325933	1.724666
C	-0.496239	1.158323	0.832601
H	-0.125251	2.086184	0.392091
H	-1.587179	1.199419	0.890039
H	-0.091061	1.083462	1.841134
F	2.594102	0.0	0.0
