17

C	-0.272635	0.04709	-1.500144
C	0.0	0.0	0.0
F	-0.091559	1.394651	-1.930901
H	1.097464	0.0	0.0
N	0.629795	-0.832368	-2.133717
H	0.633308	-0.697182	-3.136741
H	1.566295	-0.680062	-1.737169
C	-1.675371	-0.25957	-1.872799
N	-2.789392	-0.505029	-2.15099
C	-0.502661	-1.286863	0.622813
H	-0.133538	-2.149664	0.067364
H	-1.596842	-1.306981	0.652666
H	-0.121211	-1.36176	1.646302
N	-0.616897	1.155248	0.653492
H	-0.136074	1.979614	0.309917
H	-0.380478	1.08828	1.638609
H	2.968781	0.0	0.0
