17

C	-0.508271	0.042259	-1.435233
C	0.0	0.0	0.0
F	0.147081	-0.978404	-2.149692
H	1.100452	0.0	0.0
N	-1.920626	-0.100435	-1.555526
H	-2.167464	-0.225828	-2.530661
H	-2.220107	-0.910849	-1.02983
C	-0.133348	1.307458	-2.110665
N	0.126247	2.289663	-2.699501
C	-0.457221	-1.262935	0.708355
H	-0.31871	-2.138607	0.070455
H	0.177023	-1.403095	1.588985
H	-1.502794	-1.201255	1.037124
N	-0.489242	1.196509	0.711646
H	0.199456	1.925788	0.537006
H	-0.398219	0.996431	1.703533
H	2.914649	0.0	0.0
