17

C	-0.241808	0.079919	-1.512466
C	0.0	0.0	0.0
F	-1.554481	0.545319	-1.791837
H	1.098393	0.0	0.0
N	0.698335	0.999413	-2.058043
H	1.607098	0.847837	-1.593037
H	0.805332	0.876665	-3.056317
C	-0.207451	-1.252065	-2.172551
N	-0.164991	-2.28178	-2.737329
C	-0.612867	-1.210595	0.667583
H	-0.198091	-2.142447	0.275655
H	-1.701784	-1.227893	0.541348
H	-0.393268	-1.153768	1.734731
N	-0.416386	1.23713	0.657552
H	-1.236372	1.604195	0.188768
H	0.327532	1.913432	0.534535
H	2.878823	0.0	0.0
