17

C	-0.538529	0.020413	-1.419847
C	0.0	0.0	0.0
F	0.036304	-1.045841	-2.143996
H	1.095022	0.0	0.0
N	-1.967274	-0.083452	-1.458039
H	-2.231189	-0.972447	-1.050524
H	-2.28395	-0.066507	-2.421377
C	-0.158377	1.256436	-2.137619
N	0.104137	2.189441	-2.79883
C	-0.428479	-1.261521	0.740453
H	-1.486428	-1.241894	1.035566
H	-0.236027	-2.155207	0.140309
H	0.1786	-1.34019	1.645992
N	-0.394529	1.247564	0.641719
H	-1.228542	1.1333	1.203495
H	0.37376	1.547708	1.232025
H	2.88431	0.0	0.0
