17

C	-0.27675	-0.021437	-1.498957
C	0.0	0.0	0.0
F	-0.083315	1.301979	-1.991594
H	1.106058	0.0	0.0
N	0.615906	-0.938698	-2.094257
H	1.55253	-0.773435	-1.704746
H	0.623402	-0.841104	-3.101065
C	-1.683879	-0.330544	-1.853129
N	-2.796499	-0.580166	-2.136327
C	-0.504504	-1.254726	0.682683
H	-0.115453	-1.285989	1.705277
H	-0.144941	-2.143803	0.163907
H	-1.598609	-1.26773	0.721422
N	-0.614014	1.186155	0.598814
H	-0.123517	1.992632	0.227377
H	-0.387485	1.158847	1.588517
H	2.962034	0.0	0.0
