17

C	-0.217192	-0.013321	-1.527883
C	0.0	0.0	0.0
F	-0.055836	1.323596	-1.999641
H	1.098592	0.0	0.0
N	0.719637	-0.895509	-2.097074
H	1.638019	-0.724703	-1.65985
H	0.769231	-0.789661	-3.102521
C	-1.604199	-0.355154	-1.930264
N	-2.714568	-0.633144	-2.194372
C	-0.512939	-1.270889	0.64653
H	-0.140927	-2.151679	0.12062
H	-0.154598	-1.296657	1.677351
H	-1.609537	-1.302989	0.658665
N	-0.514217	1.173666	0.677352
H	-1.483543	1.332209	0.417552
H	0.020204	1.975009	0.365753
H	2.942444	0.0	0.0
