17

C	-0.401346	0.059723	-1.465899
C	0.0	0.0	0.0
F	-1.801875	0.173982	-1.55453
H	1.096033	0.0	0.0
N	0.171497	1.180853	-2.158132
H	0.049837	1.950128	-1.499878
H	1.177301	1.008453	-2.188107
C	-0.056154	-1.189008	-2.183739
N	0.172765	-2.180787	-2.767988
C	-0.529063	-1.213043	0.742492
H	-1.62423	-1.208165	0.791819
H	-0.127243	-1.210142	1.759698
H	-0.206643	-2.142473	0.26544
N	-0.376607	1.284463	0.597337
H	-1.234933	1.199157	1.127772
H	0.371948	1.555825	1.22626
H	2.876151	0.0	0.0
