17

C	-0.562554	0.017173	-1.418696
C	0.0	0.0	0.0
F	-0.176987	-1.135783	-2.083468
H	1.100503	0.0	0.0
N	-2.012625	0.081894	-1.509626
H	-2.361342	-0.785426	-1.113275
H	-2.280128	0.829569	-0.873496
C	-0.027838	1.179529	-2.170517
N	0.34046	2.11836	-2.770308
C	-0.4731	-1.21896	0.767317
H	-1.536898	-1.165307	1.03073
H	0.111691	-1.290634	1.688474
H	-0.29024	-2.129633	0.194271
N	-0.479101	1.249471	0.632641
H	-0.648175	1.06499	1.61467
H	0.304661	1.898404	0.608486
H	2.899851	0.0	0.0
