17
Coordinates from ORCA-job run
  C   -0.73385205495659     -0.59732539366915     -0.19504877770725
  C   0.74948038222496     -0.30452073324869      0.06444506234699
  Cl  -0.99612626561862     -2.29429379961087     -0.64585311421599
  H   1.15945783575148     -1.14228681553677      0.62567543968658
  N   -1.30229468434902      0.23583119135949     -1.15593214815901
  H   -2.30052183552555      0.10103812736949     -1.24050547756462
  H   -1.08197218526601      1.21181758016321     -1.01787729987610
  N   -1.40139027153538     -0.46750671881302      1.22582991683420
  O   -2.34085432534886      0.31392267074662      1.31238904955439
  O   -0.91193856638944     -1.12967491488799      2.13045436153707
  C   1.00438018445991      1.01247428328720      0.77636373079977
  H   2.08024539206079      1.18386794991477      0.83776956910632
  H   0.56792626914303      1.86207825337902      0.25266609505225
  H   0.61353836602182      0.96876783154106      1.79311092855583
  N   1.45668953346528     -0.31437758704847     -1.26088089961708
  O   1.95950069119530     -1.37820417819002     -1.61163805736003
  O   1.47873153466691      0.74039225324413     -1.88996837897332
