17
Coordinates from ORCA-job run
  C   -0.69661861132422     -0.43748540823586      0.23376882131975
  C   0.57563503644756      0.27919068326113     -0.24229724943620
  Cl  -0.65128423401760     -0.84419853799694      1.93937331645776
  H   0.41417293070614      0.51877858560858     -1.29657397544674
  N   -0.87931219125758     -1.61056951745558     -0.54051606895591
  H   -1.11878179841321     -1.35482624730636     -1.49214482763979
  H   -1.61427036911248     -2.18917533526750     -0.15190605251716
  N   -1.87269847052026      0.58319080303331      0.00145561451762
  O   -2.31194135773826      1.23008461961158      0.93675905628350
  O   -2.21917527558094      0.65556508611716     -1.17386770830828
  C   1.83541541770073     -0.52866800864433     -0.03047940588083
  H   2.00933144455135     -0.70169877088685      1.02922741871142
  H   2.69001592814624      0.01439990899972     -0.43815569502364
  H   1.73811070328787     -1.48433514000350     -0.54346743603914
  N   0.67951952246714      1.62246677593459      0.42795435714795
  O   1.29967288349479      1.68807305305666      1.48471456353527
  O   0.12220844116272      2.55820745017417     -0.14484472872561
