17
Coordinates from ORCA-job run
  C   -0.70947129173979     -0.37844454037143      0.37631975314011
  C   0.45666032534197      0.37710583200644     -0.28197437052029
  Cl  -0.28411792555003     -0.82009791423508      2.02132969782201
  H   0.07047821077134      0.80669673327182     -1.21103732947164
  N   -1.15660259071890     -1.54741964612978     -0.32137342325505
  H   -0.50870053712192     -2.31439499846099     -0.20800549266322
  H   -1.30898758672413     -1.34365141551619     -1.30239321586002
  N   -1.95612337362565      0.53661861215240      0.36913278744589
  O   -2.27933808170318      0.88295313621136     -0.76350875008217
  O   -2.56050016202702      0.74623232828161      1.40146652193661
  C   1.67057934981357     -0.49099656435811     -0.53541528299240
  H   1.41231102829473     -1.29704302443130     -1.22213644429928
  H   2.45957068529195      0.10259193745188     -0.99262952958080
  H   2.05801873220456     -0.91278563515689      0.39235718991959
  N   0.80209855753954      1.57906205061444      0.56155728734129
  O   1.98196786496476      1.79080719854387      0.82221892629776
  O   -0.14784320501180      2.28176591012596      0.89409167482161
