17
Coordinates from ORCA-job run
  C   -0.71413456337946     -0.58549171508037     -0.02534786709559
  C   0.69612147474573     -0.08262329529664     -0.35422608063758
  Cl  -0.55210653406185     -2.33569704511650      0.46897743530456
  H   1.03099035958008     -0.68062368596305     -1.20530183065260
  N   -1.55914561058603     -0.35663799105533     -1.11323920204788
  H   -2.53214252827665     -0.53188605437846     -0.90325945124777
  H   -1.26036312758875     -0.85067253074653     -1.94296199660451
  N   -1.33333375860416      0.09202874298547      1.20755576099242
  O   -0.64819188204106      0.11630589226023      2.21733884394545
  O   -2.47644475323254      0.51135534883452      1.08890551487464
  C   1.76186116304293     -0.06292437575022      0.72461068203629
  H   2.71601472566601      0.18905203734916      0.25605971374228
  H   1.52990854094391      0.67322724893228      1.48907635790177
  H   1.84962312575238     -1.04253326407316      1.19206786913925
  N   0.53406102119437      1.30634495317931     -0.90318479802062
  O   0.08232517074999      2.14524121201737     -0.13010997381823
  O   0.87495717609512      1.49453452190192     -2.06696097781188
