17
Coordinates from ORCA-job run
  C   -0.85530753094100     -0.51411010171191     -0.11690853337397
  C   0.67214350917455     -0.36244734460409      0.06840542990309
  Cl  -1.16510860286400     -2.15804749573100     -0.72309276043534
  H   1.02377663390067     -1.17073487565372      0.70836700644498
  N   -1.56080803129497      0.42891588731225     -0.88895203970828
  H   -1.08614471219380      0.59899528957693     -1.76540878021926
  H   -1.72808731344228      1.28324104033548     -0.37588485862816
  N   -1.38823789295667     -0.43602476737945      1.33185007195826
  O   -1.03541596181362     -1.32714188561615      2.09046663207726
  O   -2.05689588729894      0.54879443193205      1.62522909704160
  C   1.06960746666738      1.00404717856850      0.59180716439223
  H   2.15673039853123      1.06502999639010      0.67093413255494
  H   0.65160697077326      1.17098748616349      1.58597688773674
  H   0.72451340339209      1.79019828706001     -0.07974781999839
  N   1.34994881481947     -0.59082376593093     -1.24778430633949
  O   1.04110694679103      0.15726797154536     -2.17610815182880
  O   2.18557178875560     -1.48714733225692     -1.29914917157738
