17

C	0.0	0.0	0.0
C	-0.283246	-0.460731	-1.466444
Br	2.037478	0.0	0.0
H	0.312476	-1.364235	-1.641821
N	-0.480132	1.281306	0.384593
H	-1.497433	1.218115	0.450498
H	-0.217721	1.991075	-0.28768
N	-0.511649	-0.942723	0.898451
H	-0.405382	-0.63758	1.855353
H	-0.151314	-1.874552	0.759291
C	0.206862	0.560751	-2.394082
N	0.539223	1.402395	-3.143169
C	-1.756647	-0.754653	-1.746335
H	-2.397549	0.10995	-1.592884
H	-1.857092	-1.094343	-2.7812
H	-2.135213	-1.517829	-1.0706
Cl	-4.48307	0.0	0.0
