17

C	0.0	0.0	0.0
C	-0.393601	0.364588	-1.490688
Br	1.956907	0.0	0.0
H	0.539464	0.619464	-1.998132
N	-0.41326	1.066988	0.877144
H	-0.154942	0.824691	1.828625
H	-1.437036	1.082201	0.827122
N	-0.430078	-1.342272	0.314626
H	-1.455035	-1.291639	0.306513
H	-0.145713	-1.549021	1.267717
C	-1.17197	1.603514	-1.603494
N	-1.659903	2.645596	-1.837985
C	-1.027437	-0.776805	-2.291338
H	-1.134899	-0.459366	-3.333017
H	-2.012003	-1.018185	-1.896327
H	-0.381842	-1.654762	-2.245862
Cl	-3.475768	0.0	0.0
