17

C	0.0	0.0	0.0
C	-0.35316	-0.705378	-1.391377
Br	1.97746	0.0	0.0
H	0.594316	-0.952833	-1.875986
N	-0.417461	1.365995	0.155359
H	-0.137543	1.924575	-0.643702
H	-1.44137	1.33847	0.182953
N	-0.460165	-0.813364	1.082795
H	-0.285105	-0.284227	1.932028
H	-1.47903	-0.864356	0.977267
C	-0.974091	0.255298	-2.306081
N	-1.342641	1.026856	-3.112066
C	-1.144086	-2.015106	-1.302638
H	-1.220212	-2.444508	-2.306317
H	-0.610578	-2.711636	-0.655041
H	-2.146077	-1.836817	-0.918508
Cl	-3.542146	0.0	0.0
