17

C	0.0	0.0	0.0
C	-0.318855	0.217211	-1.509143
Br	2.044995	0.0	0.0
H	0.282512	-0.509431	-2.06603
N	-0.53242	1.030007	0.772637
H	-0.407409	0.87217	1.761857
H	-0.253457	1.957788	0.490072
N	-0.434534	-1.237868	0.557669
H	-0.143745	-2.022104	-0.011396
H	-1.451666	-1.207031	0.622896
C	0.125485	1.549238	-1.92503
N	0.438821	2.634941	-2.247269
C	-1.802415	0.02759	-1.828851
H	-2.104057	-1.005278	-1.656615
H	-1.981679	0.263018	-2.880872
H	-2.451576	0.639744	-1.204999
Cl	-4.63701	0.0	0.0
