17

C	0.0	0.0	0.0
C	-0.289321	0.246031	-1.515471
Br	1.998801	0.0	0.0
H	0.277415	-0.519521	-2.057268
N	-0.5245	1.067663	0.779878
H	-1.540068	1.057287	0.666717
H	-0.299652	0.945638	1.761168
N	-0.480984	-1.286722	0.36441
H	0.117808	-2.054037	0.095034
H	-0.759969	-1.346017	1.331254
C	0.246256	1.543797	-1.938859
N	0.624597	2.57436	-2.355751
C	-1.760014	0.132711	-1.915107
H	-2.171291	-0.819448	-1.592245
H	-1.837711	0.225199	-3.0026
H	-2.384828	0.899771	-1.464531
Cl	-4.427804	0.0	0.0
