17

C	0.0	0.0	0.0
C	-0.462971	-0.096908	-1.47683
Br	1.976773	0.0	0.0
H	-1.554009	-0.217656	-1.393383
N	-0.422992	1.190114	0.68874
H	-1.446493	1.165526	0.686363
H	-0.10329	2.027922	0.217143
N	-0.446643	-1.184804	0.665092
H	-0.268332	-1.061516	1.65737
H	-1.463002	-1.216668	0.543551
C	0.07199	-1.287205	-2.135629
N	0.458475	-2.218636	-2.73854
C	-0.185196	1.148271	-2.316394
H	-0.523229	0.983814	-3.341761
H	0.880576	1.386269	-2.334589
H	-0.745567	1.994803	-1.916707
Cl	-3.534921	0.0	0.0
