17

C	0.0	0.0	0.0
C	-0.449962	0.019521	-1.481785
Br	2.036279	0.0	0.0
H	-1.549393	-0.012198	-1.379098
N	-0.436649	1.107674	0.785811
H	-1.462638	1.069463	0.769531
H	-0.107011	1.983052	0.402408
N	-0.475848	-1.157497	0.610659
H	-0.233858	-2.021105	0.150816
H	-0.304099	-1.167784	1.603904
C	-0.019941	-1.194304	-2.171862
N	0.33244	-2.167551	-2.728846
C	-0.026553	1.256193	-2.269646
H	-0.409852	2.156133	-1.785799
H	1.059877	1.322417	-2.349147
H	-0.452717	1.215659	-3.274208
Cl	-3.629053	0.0	0.0
