15

C	0.0	0.0	0.0
C	-0.305726	0.036848	-1.598439
Br	1.934252	0.0	0.0
H	0.576308	0.523134	-2.019932
N	-0.401644	1.298244	0.66711
O	-0.632983	1.269582	1.864805
O	-0.348731	2.301306	-0.036794
C	-0.494802	-1.140322	0.746391
N	-0.613944	-2.151497	1.337057
N	-1.4567	0.679036	-2.152818
H	-2.216438	0.402514	-1.497908
H	-1.320442	1.674978	-2.031319
C	-0.253249	-1.369053	-2.028315
N	-0.207814	-2.486314	-2.385693
F	-2.393759	0.0	0.0
