15

C	0.0	0.0	0.0
C	-0.520805	0.092622	-1.453901
Br	1.927741	0.0	0.0
H	-1.564253	0.4221	-1.252466
N	-0.428046	1.228342	0.791252
O	-0.541676	2.263248	0.149524
O	-0.526464	1.105806	2.002102
C	-0.468602	-1.199703	0.678626
N	-0.639172	-2.211104	1.25354
N	-0.485303	-1.261461	-2.015796
H	-0.350274	-1.2182	-3.017322
H	-1.400029	-1.657775	-1.825232
C	0.217475	1.027001	-2.290602
N	0.743693	1.739631	-3.064157
F	-2.509212	0.0	0.0
