18

C	0.0	0.0	0.0
C	-0.578375	0.112188	-1.405683
F	1.385786	0.0	0.0
H	-1.685067	0.176654	-1.199779
C	-0.483436	1.08534	0.938441
H	-0.114569	2.054675	0.604269
H	-1.582185	1.051079	0.912971
H	-0.110319	0.877827	1.94417
C	-0.384755	-1.324671	0.543834
N	-0.514796	-2.38603	1.030221
C	-0.207052	-1.044494	-2.308664
H	0.869673	-1.218594	-2.319934
H	-0.53482	-0.844522	-3.330168
H	-0.721299	-1.939052	-1.953222
N	-0.127963	1.398535	-2.003278
O	0.809222	1.374543	-2.809618
O	-0.723436	2.426016	-1.667556
H	-3.083209	0.0	0.0
