14
Coordinates from ORCA-job run
  C   -0.42944474576424      0.14745538475222     -0.36860394416797
  C   0.45280275198447     -1.07307783167071     -0.57749418210661
  F   -1.27670102853626      0.22493809910449     -1.44837769938109
  H   -0.17855075385921     -1.95289387529504     -0.70400133420342
  H   1.01960210820638     -0.91566612694892     -1.49904237209063
  N   -1.36070427858612     -0.10583548851481      0.82253333599581
  O   -1.79298375520184      0.88120641954238      1.40800947710924
  O   -1.65890998539771     -1.27408761727899      1.05383606497290
  C   0.30305983378819      1.44596961953992     -0.19489369094502
  H   -0.41168451390652      2.26275965170357     -0.12185046666686
  H   0.94532979265588      1.60298069524757     -1.06333354696512
  H   0.91561073183752      1.42751267353535      0.70698336974750
  C   1.36747622507808     -1.27025506170149      0.54127929608831
  N   2.10409761770138     -1.40100654201555      1.44495569261295
