14
Coordinates from ORCA-job run
  C   -0.26919019709556      0.11158903717346     -0.30543442994091
  C   1.02239867122851     -0.65320038151923     -0.04914918642088
  F   -0.89493552483430     -0.41851443331254     -1.38851752503616
  H   1.50827547480550     -0.25726827642229      0.84385891718755
  H   1.68397625081624     -0.49704293771380     -0.90570255533707
  N   -1.18360769083318     -0.10597401884522      0.89647517075952
  O   -2.29705306977651     -0.56644463752307      0.69801193605174
  O   -0.70123781369259      0.23405108759614      1.97314555203846
  C   -0.08466786397059      1.59647187852715     -0.49223908114563
  H   0.54299324299162      1.77164480838904     -1.36750036069550
  H   -1.05830201846462      2.05910135493009     -0.66341336138844
  H   0.37715154277446      2.04114074290511      0.38826357937887
  C   0.77703804048070     -2.08391533679977      0.11704905088503
  N   0.57716095557032     -3.23163888738505      0.25415229366341
