14
Coordinates from ORCA-job run
  C   -0.39666442580918      0.00492327387256     -0.23787548995090
  C   0.50512972394102     -1.07410380635461      0.35391110285684
  F   -0.85307962073213     -0.41769003676129     -1.44592750265231
  H   0.78132208698683     -0.80300339606690      1.37416370799849
  H   -0.05246236523123     -2.01511870734133      0.38618901301545
  N   -1.60626122711560      0.10870931585677      0.68836094602319
  O   -2.71493746058799     -0.07390423276006      0.20809406163146
  O   -1.34289885183768      0.38799247770113      1.85472033269199
  C   0.21836279220703      1.37388763234054     -0.36832157342158
  H   -0.52403998105079      2.06002406116422     -0.77975474793790
  H   0.55149310824719      1.73915564515173      0.60243254230829
  H   1.06599988192029      1.32134859231329     -1.05285332367331
  C   1.70208393107217     -1.24736683994952     -0.46299096144117
  N   2.66595240799007     -1.36585397916653     -1.12114810744854
