14
Coordinates from ORCA-job run
  C   -0.24325038347378      0.18151795892754     -0.29365310298818
  C   0.93953351756160     -0.76089600596712     -0.11516104018031
  F   -0.88959785783347     -0.12612984987054     -1.44822120675683
  H   1.43787913336601     -0.54337882813661      0.83063386056476
  H   1.64391528835021     -0.57946865946768     -0.93160229605537
  N   -1.21741326264005     -0.07524892913691      0.85245327925502
  O   -0.73554956641533      0.06410762511622      1.97306762821152
  O   -2.36957441165080     -0.36937958866650      0.57463660721678
  C   0.12125737826044      1.64472540034751     -0.28110253441735
  H   -0.78482841663168      2.23969829496013     -0.40885792290467
  H   0.60140855921567      1.91420936524404      0.65863118474429
  H   0.79480576704700      1.85280966859706     -1.11398789767228
  C   0.52063474680639     -2.16047484389906     -0.14030707938184
  N   0.18077950803778     -3.28309160804806     -0.15552947963553
