14
Coordinates from ORCA-job run
  C   -0.28052024012419      0.12456152954549     -0.29105128907168
  C   0.99521829169911     -0.68698987637957     -0.10967898471767
  F   -0.97979930367874     -0.37171982903058     -1.34471977831281
  H   1.61482845484950     -0.54805135436578     -0.99987936963747
  H   1.54215708619317     -0.31479663164872      0.75788482253156
  N   -1.13805856514243     -0.07602411828027      0.95530292076822
  O   -2.27517754008434     -0.49689823364051      0.81090082749396
  O   -0.58883364296309      0.23422167030642      2.00853452755840
  C   -0.05432299368694      1.60417803563933     -0.47322054400962
  H   0.53989210187746      1.76711440184379     -1.37380448589334
  H   -1.01844127439267      2.10066066897315     -0.59740568531084
  H   0.46022999833564      2.02418008942330      0.38990829512151
  C   0.70838651199901     -2.10934491559035      0.06188406833971
  N   0.47544111511851     -3.25009143679571      0.20434467514009
