14
Coordinates from ORCA-job run
  C   -0.26633690297154      0.11552086204036     -0.30720877238562
  C   1.02013495606169     -0.65594584492302     -0.04510893587380
  F   -0.88381805419481     -0.40381016870528     -1.40019531594236
  H   1.68935612868419     -0.49715949336869     -0.89522268326945
  H   1.50036778537091     -0.26778246719905      0.85432690655709
  N   -1.19222226244490     -0.10874755632217      0.88461186554631
  O   -0.71817302821199      0.22014953931118      1.96834803454353
  O   -2.30333834253285     -0.56904993921896      0.67289083904390
  C   -0.07496393917969      1.60115352143352     -0.48068184684308
  H   0.56120850484885      1.78087293121955     -1.34884568840755
  H   -1.04541521573578      2.06850566899576     -0.65706148541983
  H   0.38034670304908      2.03747186509879      0.40733506911206
  C   0.76813828041120     -2.08680414427824      0.10957418911499
  N   0.56571538684567     -3.23537477408372      0.23523782422379
