14
Coordinates from ORCA-job run
  C   -0.43345569224445      0.14954361041479     -0.38242695003587
  C   0.46504618478678     -1.06999191963780     -0.54997382868687
  F   -1.26775514853528      0.18182698453596     -1.46778934768428
  H   -0.17301122034002     -1.94918238370930     -0.66640906223479
  H   1.04543965732802     -0.94211749564026     -1.46774860102216
  N   -1.34060011067804     -0.12906414573834      0.81766694281086
  O   -2.10802090294702     -1.07618756339450      0.68725674093987
  O   -1.23049732306729      0.59527211889032      1.80152722832749
  C   0.27246091336829      1.46603170478867     -0.23626960431801
  H   0.85687677078467      1.64289605988612     -1.14124468499644
  H   0.93123554864724      1.46704955054443      0.63019248504134
  H   -0.45932778106484      2.26544083086329     -0.12332816021583
  C   1.36153048163687     -1.24083720136462      0.58790960629394
  N   2.08007862232505     -1.36168015043875      1.50763723578080
