14
Coordinates from ORCA-job run
  C   -0.29626838444457      0.12120569453935     -0.27481043417936
  C   0.96925171503154     -0.71632764862283     -0.14892906507065
  F   -1.07608349817875     -0.39251348339842     -1.26147402144565
  H   1.57887980064354     -0.33288337536208      0.67062221624932
  H   1.53412328562137     -0.61870365567316     -1.08015243620630
  N   -1.07327542827061     -0.01266782675957      1.03159663828938
  O   -0.44757078420263      0.31917316698879      2.03444027588022
  O   -2.22799399033457     -0.40639319221791      0.97742427793250
  C   -0.04781089606224      1.58737852527468     -0.52503407489980
  H   0.47856330904355      1.70390432619261     -1.47376179223440
  H   -1.00569230066416      2.10632156289621     -0.59185676025372
  H   0.54287543842354      2.02130041097619      0.28061240739892
  C   0.66079056162404     -2.12537537278052      0.08400662172952
  N   0.41121117176997     -3.25541913205334      0.27531614681001
