14
Coordinates from ORCA-job run
  C   -0.44908746907080      0.07140440948409     -0.39804156398609
  C   0.52979642661719     -1.09964733765957     -0.45653680784120
  F   -1.16573100335754      0.04999707545404     -1.55887898870845
  H   -0.02038737834372     -2.04054322068570     -0.37425076178086
  H   0.98520948681991     -1.07055504899147     -1.45086068463846
  N   -1.44630971367874     -0.16331271612542      0.72979905371698
  O   -2.61558245978170      0.12137646095043      0.51483905186955
  O   -0.96582155008367     -0.57968020730682      1.77938234477713
  C   0.16563480247610      1.43128352484431     -0.19492146310239
  H   0.88156903235199      1.62624962054727     -0.99548406142102
  H   -0.62417778056100      2.18329163531696     -0.23515561123625
  H   0.67734197108914      1.48409982896805      0.76600714854397
  C   1.58502274001882     -1.04407472334125      0.54849022078903
  N   2.46152289550402     -0.97088930145494      1.32461212301803
