14
Coordinates from ORCA-job run
  C   -0.42511010796284      0.14889482831790     -0.39179291085054
  C   0.50468893682593     -1.04681920073177     -0.55814220764933
  F   -1.22847306442887      0.18603019160581     -1.50059403004716
  H   -0.10913232730194     -1.93786651714516     -0.70899469339543
  H   1.10640511983083     -0.88702689667982     -1.45698558682761
  N   -1.36144910101074     -0.17377615175427      0.77437683841333
  O   -2.08884729370798     -1.14679699681184      0.60975610891827
  O   -1.30542652591672      0.53921761804508      1.77100655891404
  C   0.24717968138197      1.47676583575538     -0.19850354746595
  H   0.87715748970678      1.47488066503993      0.68917418391361
  H   -0.50486826040916      2.25836669068133     -0.09488880894015
  H   0.85706284387117      1.68298781575710     -1.08014291218578
  C   1.37267054636227     -1.22123445135278      0.60109486317489
  N   2.05614206275936     -1.35362343072687      1.54563614402784
