19

C	-0.551887	0.031996	-1.434799
C	0.0	0.0	0.0
Cl	0.247726	1.336724	-2.344137
H	1.095026	0.0	0.0
N	-0.180898	-1.290085	-2.102007
O	0.939516	-1.424666	-2.566513
O	-1.045509	-2.167161	-2.057139
C	-2.049006	0.229747	-1.526717
H	-2.574105	-0.556413	-0.987525
H	-2.283958	1.192738	-1.081527
H	-2.365245	0.211702	-2.570875
C	-0.467608	-1.218821	0.781359
H	-1.552222	-1.223745	0.923793
H	-0.165699	-2.151614	0.306249
H	0.015905	-1.190803	1.761808
N	-0.477317	1.227192	0.667197
H	0.224963	1.941109	0.506416
H	-0.466782	1.054738	1.66507
Br	3.605991	0.0	0.0
