19

C	-0.391343	-0.04205	-1.491534
C	0.0	0.0	0.0
Cl	-2.166864	-0.202083	-1.693968
H	1.095067	0.0	0.0
N	0.015857	1.306339	-2.08331
O	-0.815431	2.203603	-2.193152
O	1.210242	1.403187	-2.344287
C	0.317073	-1.130633	-2.269954
H	1.380971	-1.099211	-2.025104
H	-0.098098	-2.100069	-1.996181
H	0.177808	-0.98524	-3.343503
C	-0.450581	-1.253392	0.736731
H	-0.029636	-1.20087	1.741108
H	-1.539669	-1.308362	0.815351
H	-0.078412	-2.162388	0.260379
N	-0.454003	1.184337	0.706253
H	0.145981	1.968679	0.483359
H	-1.406259	1.420357	0.451063
Br	3.602073	0.0	0.0
