19

C	-0.385251	0.004947	-1.5051
C	0.0	0.0	0.0
Cl	0.475114	-1.285863	-2.355839
H	1.09546	0.0	0.0
N	-1.882171	-0.278543	-1.59115
O	-2.606878	0.664429	-1.255335
O	-2.290872	-1.395616	-1.88251
C	-0.08359	1.322248	-2.188201
H	-0.31245	1.26069	-3.254324
H	-0.668549	2.12398	-1.741878
H	0.983557	1.518991	-2.058597
C	-0.498521	-1.249918	0.710401
H	-0.231298	-2.160012	0.172484
H	-0.033597	-1.274906	1.696006
H	-1.586116	-1.224334	0.844542
N	-0.427046	1.177325	0.735054
H	0.169437	1.963777	0.512858
H	-1.390604	1.41429	0.5288
Br	3.565677	0.0	0.0
