19

C	-0.490453	0.001424	-1.463554
C	0.0	0.0	0.0
Cl	0.340384	1.295658	-2.355577
H	1.093574	0.0	0.0
N	-0.053599	-1.317987	-2.093121
O	-0.944261	-2.123403	-2.380183
O	1.146701	-1.517711	-2.207163
C	-1.98048	0.178316	-1.631509
H	-2.523796	-0.638086	-1.156874
H	-2.24067	0.193877	-2.690283
H	-2.246612	1.126626	-1.16824
C	-0.473963	-1.239885	0.74753
H	-1.56448	-1.263634	0.852415
H	-0.025719	-1.224891	1.743761
H	-0.149136	-2.162339	0.263666
N	-0.475095	1.234729	0.629812
H	0.333291	1.779807	0.90344
H	-1.003026	1.018788	1.465831
Br	3.606084	0.0	0.0
