19

C	-0.392181	0.010907	-1.501932
C	0.0	0.0	0.0
Cl	0.449065	-1.287912	-2.358871
H	1.095443	0.0	0.0
N	-1.893591	-0.252824	-1.574376
O	-2.319823	-1.36456	-1.862458
O	-2.601691	0.699242	-1.227767
C	-0.075395	1.324757	-2.184427
H	-0.312599	1.270558	-3.249018
H	-0.642573	2.135162	-1.731215
H	0.995664	1.504096	-2.061895
C	-0.504893	-1.247197	0.710803
H	-0.245901	-2.158996	0.171828
H	-1.591922	-1.213569	0.847755
H	-0.038133	-1.275337	1.695347
N	-0.416279	1.179619	0.739703
H	0.192655	1.95925	0.524399
H	-1.375857	1.430565	0.529315
Br	3.569729	0.0	0.0
