19

C	-0.488545	0.011085	-1.458872
C	0.0	0.0	0.0
Cl	0.272124	1.379688	-2.319027
H	1.097793	0.0	0.0
N	0.032672	-1.263329	-2.121096
O	1.235901	-1.354382	-2.311127
O	-0.802341	-2.14175	-2.358533
C	-1.985042	0.104811	-1.639685
H	-2.320828	1.020719	-1.158352
H	-2.232391	0.124053	-2.701986
H	-2.480528	-0.751377	-1.185564
C	-0.482428	-1.235084	0.744252
H	-0.025164	-1.234854	1.73748
H	-1.569948	-1.240846	0.859349
H	-0.165562	-2.155251	0.251729
N	-0.529809	1.207514	0.65309
H	0.078953	1.977513	0.391637
H	-0.393909	1.084889	1.65115
Br	3.63788	0.0	0.0
