14

C	-0.55798	0.01835	-1.415057
C	0.0	0.0	0.0
Br	0.220022	-1.39834	-2.491295
H	1.091337	0.0	0.0
H	-0.324963	-0.944445	0.447604
C	-2.010089	-0.121459	-1.422827
N	-3.170961	-0.291909	-1.360404
N	-0.223527	1.340896	-2.112676
O	0.745251	1.953001	-1.696355
O	-0.948278	1.654354	-3.052268
N	-0.562079	1.155558	0.6933
H	-1.005184	0.878295	1.557092
H	0.190342	1.79754	0.908187
Br	3.583768	0.0	0.0
