14

C	-0.562698	-0.01513	-1.422605
C	0.0	0.0	0.0
Br	-2.485652	0.341083	-1.384948
H	1.091539	0.0	0.0
H	-0.313766	0.952181	0.443981
C	0.047429	0.969908	-2.303891
N	0.481496	1.802943	-3.010711
N	-0.315101	-1.410099	-2.024093
O	-1.2493	-2.180061	-2.16208
O	0.863637	-1.616065	-2.275385
N	-0.464514	-1.176403	0.711183
H	0.313414	-1.568375	1.22439
H	-1.215063	-0.964414	1.351679
Br	3.516074	0.0	0.0
