14

C	-0.49528	-0.008309	-1.434509
C	0.0	0.0	0.0
Br	0.014609	1.623785	-2.361577
H	1.093091	0.0	0.0
H	-0.349541	0.920931	0.470248
C	-0.028676	-1.162402	-2.188862
N	0.352941	-2.092517	-2.797253
N	-2.0335	-0.033968	-1.445444
O	-2.585014	-0.628149	-2.362873
O	-2.591981	0.57951	-0.545201
N	-0.517428	-1.210733	0.625129
H	-1.178381	-0.991601	1.356499
H	0.252784	-1.734682	1.019304
Br	3.519607	0.0	0.0
