14

C	-0.447519	-0.000531	-1.459005
C	0.0	0.0	0.0
Br	-2.402455	0.213632	-1.598393
H	1.091931	0.0	0.0
H	-0.333683	0.948235	0.440896
C	0.15816	1.070549	-2.232027
N	0.652395	1.944602	-2.844868
N	-0.032954	-1.334821	-2.117204
O	1.182976	-1.418583	-2.299871
O	-0.88937	-2.162974	-2.378135
N	-0.478469	-1.202763	0.651668
H	0.223084	-1.499602	1.318985
H	-1.360695	-1.049762	1.125147
Br	3.350275	0.0	0.0
