14

C	-0.56003	0.001275	-1.422154
C	0.0	0.0	0.0
Br	0.294648	-1.347085	-2.522054
H	1.089403	0.0	0.0
H	-0.341686	0.927943	0.476997
C	-2.000761	-0.229835	-1.415193
N	-3.157838	-0.419308	-1.333681
N	-0.311812	1.341653	-2.111522
O	-1.10056	1.667171	-2.994931
O	0.667581	1.96867	-1.736984
N	-0.465885	-1.208974	0.663705
H	0.314434	-1.636952	1.141883
H	-1.196802	-1.011743	1.332119
Br	3.564706	0.0	0.0
