14

C	-0.530225	0.03293	-1.42958
C	0.0	0.0	0.0
Br	-2.456203	0.369304	-1.425425
H	1.089841	0.0	0.0
H	-0.317007	0.937407	0.46722
C	0.09409	1.048108	-2.26801
N	0.566007	1.870285	-2.963136
N	-0.265206	-1.329014	-2.110666
O	-1.075993	-1.739869	-2.927049
O	0.794136	-1.847287	-1.796383
N	-0.529551	-1.178742	0.669903
H	-1.087788	-0.922272	1.470812
H	0.25222	-1.738151	0.986196
Br	3.54238	0.0	0.0
