14

C	-0.528869	-0.00741	-1.431385
C	0.0	0.0	0.0
Br	0.231465	-1.483318	-2.433228
H	1.093012	0.0	0.0
H	-0.353253	0.921732	0.468852
C	-1.984233	-0.115664	-1.471233
N	-3.158362	-0.170541	-1.460007
N	-0.183296	1.291122	-2.180258
O	0.411932	2.150807	-1.543964
O	-0.570144	1.373742	-3.339374
N	-0.530211	-1.1845	0.67658
H	0.236794	-1.827976	0.82721
H	-0.891082	-0.927126	1.584553
Br	3.548978	0.0	0.0
