14

C	-0.547524	0.034742	-1.421958
C	0.0	0.0	0.0
Br	0.196227	-1.411378	-2.482092
H	1.092861	0.0	0.0
H	-0.345988	0.913846	0.492249
C	-2.001209	-0.087524	-1.436149
N	-3.173847	-0.160587	-1.400075
N	-0.207337	1.344765	-2.137349
O	-0.822657	1.578074	-3.172275
O	0.646009	2.04819	-1.619841
N	-0.53681	-1.19046	0.662178
H	-0.833351	-0.954249	1.598386
H	0.212171	-1.86414	0.749334
Br	3.574704	0.0	0.0
