14

C	-0.393302	0.036155	-1.482057
C	0.0	0.0	0.0
Br	-2.341272	-0.171012	-1.70502
H	1.095868	0.0	0.0
H	-0.362937	-0.944142	0.409361
C	-0.022781	1.285408	-2.127435
N	0.225993	2.340799	-2.581055
N	0.238049	-1.141727	-2.2222
O	0.087084	-2.234411	-1.695627
O	0.826308	-0.899297	-3.268349
N	-0.462375	1.130157	0.767589
H	0.137336	1.928161	0.603979
H	-1.422998	1.374679	0.564142
Br	3.485101	0.0	0.0
