14

C	-0.499931	-0.034078	-1.447983
C	0.0	0.0	0.0
Br	0.245291	1.407763	-2.481514
H	1.093332	0.0	0.0
H	-0.353892	-0.920537	0.470589
C	-0.217615	-1.300254	-2.113371
N	-0.017607	-2.321562	-2.661681
N	-2.041707	0.086721	-1.390973
O	-2.574804	-0.824862	-0.765326
O	-2.604558	1.031526	-1.913896
N	-0.54199	1.185753	0.649623
H	0.222684	1.809479	0.871425
H	-0.999687	0.93172	1.513574
Br	3.521655	0.0	0.0
