14

C	-0.522494	0.045506	-1.429037
C	0.0	0.0	0.0
F	-0.06097	-1.070356	-2.119445
H	1.093234	0.0	0.0
H	-0.303716	0.913798	0.523691
C	-2.04136	0.041615	-1.544682
H	-2.429868	-0.858101	-1.063186
H	-2.463261	0.92258	-1.055319
H	-2.331039	0.041298	-2.597974
C	0.003937	1.249937	-2.106405
N	0.31022	2.233046	-2.670461
C	-0.531317	-1.153327	0.706078
N	-0.956441	-2.089346	1.276447
H	2.725549	0.0	0.0
