14

C	-0.389622	0.052945	-1.466582
C	0.0	0.0	0.0
F	-1.787956	0.139366	-1.62001
H	1.093654	0.0	0.0
H	-0.35767	-0.920268	0.468516
C	0.257601	1.230885	-2.16121
H	-0.120022	2.152179	-1.713872
H	1.338702	1.169134	-1.9973
H	0.023558	1.222504	-3.22763
C	-0.004792	-1.215092	-2.11778
N	0.221572	-2.23779	-2.645824
C	-0.509466	1.154088	0.718444
N	-0.897919	2.094659	1.306593
H	2.729925	0.0	0.0
