14

C	-0.392696	0.059637	-1.466201
C	0.0	0.0	0.0
F	-1.788712	0.170197	-1.618776
H	1.093914	0.0	0.0
H	-0.357333	-0.920956	0.467591
C	0.274417	1.227906	-2.159361
H	0.041196	1.2253	-3.226226
H	1.354258	1.148596	-1.992419
H	-0.089387	2.154827	-1.711505
C	-0.02695	-1.214569	-2.117142
N	0.198523	-2.240729	-2.640528
C	-0.507677	1.152566	0.722364
N	-0.896165	2.091769	1.312593
H	2.728553	0.0	0.0
