14

C	-0.526694	0.011774	-1.429539
C	0.0	0.0	0.0
F	-0.081191	-1.15639	-2.044529
H	1.093137	0.0	0.0
H	-0.322164	-0.943095	0.455517
C	-2.04579	0.013777	-1.534573
H	-2.45999	0.925579	-1.102549
H	-2.342466	-0.058819	-2.583385
H	-2.434285	-0.850811	-0.990405
C	0.00973	1.154885	-2.200199
N	0.329728	2.072943	-2.861353
C	-0.5295	1.114022	0.76322
N	-0.960699	2.01686	1.37891
H	2.727688	0.0	0.0
