16

C	0.0	0.0	0.0
C	-0.561849	-0.104562	-1.408107
Cl	1.772551	0.0	0.0
H	-1.651357	-0.011735	-1.223686
H	-0.336166	-1.128599	-1.725256
N	-0.397731	1.339647	0.626378
O	-0.681918	2.268201	-0.122866
O	-0.345269	1.425234	1.848048
C	-0.552086	-1.101268	0.87268
H	-1.64908	-0.969883	0.79275
H	-0.227592	-2.062131	0.464947
H	-0.189811	-0.999298	1.894603
N	0.038699	0.808097	-2.388739
H	-0.243457	0.485884	-3.307077
H	-0.387585	1.714642	-2.249017
F	-2.94228	0.0	0.0
