16

C	0.0	0.0	0.0
C	-0.363781	0.120006	-1.522884
Cl	1.784843	0.0	0.0
H	-0.21213	-0.901139	-1.898274
H	0.411633	0.741719	-1.97554
N	-0.35369	1.305105	0.708043
O	-0.24847	2.337906	0.051695
O	-0.658824	1.254792	1.893964
C	-0.642127	-1.152378	0.705626
H	-0.338039	-1.207402	1.750137
H	-1.731021	-0.95709	0.615063
H	-0.366846	-2.076633	0.19138
N	-1.652677	0.609298	-1.921419
H	-1.650526	1.610354	-1.768331
H	-2.394945	0.24588	-1.265245
F	-3.207084	0.0	0.0
