16

C	0.0	0.0	0.0
C	-0.564901	0.07042	-1.409071
Cl	1.774507	0.0	0.0
H	-1.652562	0.154212	-1.210121
H	-0.355467	-0.912584	-1.845248
N	-0.393982	1.253787	0.788013
O	-0.633558	2.279126	0.159203
O	-0.381263	1.177979	2.010553
C	-0.553307	-1.20075	0.728824
H	-0.225564	-2.103128	0.206336
H	-1.649801	-1.059296	0.66138
H	-0.195295	-1.226092	1.756909
N	0.046779	1.081063	-2.281407
H	-0.325652	1.977165	-2.001277
H	-0.289558	0.901989	-3.21895
F	-2.943957	0.0	0.0
