16

C	0.0	0.0	0.0
C	-0.539485	0.004341	-1.422
Cl	1.772173	0.0	0.0
H	-0.261908	-0.974579	-1.827829
H	-1.632474	0.043566	-1.251932
N	-0.426091	1.269975	0.732393
O	-0.371205	1.252871	1.957019
O	-0.740998	2.248466	0.064607
C	-0.538812	-1.184245	0.767612
H	-0.175955	-1.171434	1.794538
H	-1.635701	-1.058193	0.70042
H	-0.2004	-2.098852	0.273543
N	0.039982	1.030491	-2.297676
H	-0.470722	1.887705	-2.132745
H	-0.140701	0.750429	-3.254186
F	-2.913572	0.0	0.0
