18

C	0.0	0.0	0.0
C	-0.565431	-0.144232	-1.416242
F	1.349665	0.0	0.0
H	-1.645761	-0.28386	-1.306917
N	-0.25341	1.461266	0.573571
O	-0.713847	1.529193	1.706918
O	0.140764	2.412888	-0.094225
N	-0.522904	-0.979463	0.828693
H	-1.543913	-0.970647	0.719854
H	-0.300656	-0.778681	1.796761
N	-0.019174	-1.451826	-1.928395
O	-0.738005	-2.443954	-1.853992
O	1.114218	-1.435197	-2.409048
C	-0.255269	0.934124	-2.433707
H	-0.56175	0.568352	-3.417512
H	0.803861	1.184664	-2.460802
H	-0.835241	1.824927	-2.202831
Cl	-3.56858	0.0	0.0
