18

C	0.0	0.0	0.0
C	-0.38091	0.057223	-1.506768
F	1.354472	0.0	0.0
H	-0.400134	-0.996169	-1.787361
N	-0.295465	1.305255	0.800715
O	-0.616873	2.328139	0.215982
O	-0.136757	1.189521	2.015636
N	-0.568119	-1.112081	0.623444
H	-0.425826	-1.045008	1.625522
H	-1.575908	-1.121026	0.442656
N	0.802312	0.595705	-2.273017
O	1.427099	-0.204227	-2.969908
O	1.047743	1.79395	-2.18522
C	-1.62764	0.752712	-2.00838
H	-1.552375	1.830018	-1.903922
H	-2.510172	0.40969	-1.463076
H	-1.746035	0.489723	-3.062322
Cl	-4.155792	0.0	0.0
