18

C	0.0	0.0	0.0
C	-0.505109	0.343396	-1.405328
F	1.359592	0.0	0.0
H	-1.590065	0.465885	-1.341591
N	-0.302154	1.166825	1.003985
O	-0.138606	0.866108	2.18419
O	-0.608983	2.277436	0.587422
N	-0.524384	-1.20578	0.444653
H	-1.548012	-1.154346	0.352183
H	-0.272995	-1.352493	1.415446
N	-0.273684	-0.899854	-2.228289
O	-1.252837	-1.567714	-2.545915
O	0.88945	-1.148681	-2.550244
C	0.205065	1.484611	-2.110716
H	-0.115909	1.508751	-3.154853
H	1.283772	1.341731	-2.083409
H	-0.058743	2.428607	-1.643606
Cl	-3.523344	0.0	0.0
