18

C	0.0	0.0	0.0
C	-0.509295	0.112631	-1.436578
F	1.379256	0.0	0.0
H	-1.602212	0.161903	-1.390417
N	-0.289661	1.317513	0.791215
O	0.13957	1.31073	1.943957
O	-0.909727	2.231932	0.264526
N	-0.517781	-1.111681	0.652603
H	-0.264951	-1.08341	1.633424
H	-1.541135	-1.087168	0.551426
N	-0.174622	-1.209607	-2.08133
O	0.962404	-1.34148	-2.536943
O	-1.053724	-2.064153	-2.119372
C	0.118671	1.217133	-2.266127
H	1.204061	1.200558	-2.179126
H	-0.144488	1.07014	-3.315444
H	-0.270327	2.179519	-1.943515
Cl	-3.560446	0.0	0.0
