18

C	0.0	0.0	0.0
C	-0.52541	-0.155165	-1.445909
F	1.352732	0.0	0.0
H	-1.579011	-0.444991	-1.340338
N	-0.308471	1.436475	0.524966
O	0.339633	2.331098	-0.013638
O	-1.078533	1.569371	1.466429
N	-0.497262	-0.898986	0.963269
H	-1.490514	-0.671704	1.077129
H	-0.454485	-1.830399	0.561697
N	0.205177	-1.355619	-1.997558
O	1.002944	-1.190051	-2.917897
O	-0.036629	-2.448658	-1.480517
C	-0.383285	1.016254	-2.387594
H	-0.69108	0.705399	-3.386547
H	-1.051482	1.810676	-2.057517
H	0.636937	1.389591	-2.428037
Cl	-3.580209	0.0	0.0
