18

C	0.0	0.0	0.0
C	-0.253259	0.226026	-1.560911
Br	1.910562	0.0	0.0
H	0.497479	0.987261	-1.786691
N	-0.448285	1.207359	0.807748
O	-0.347111	2.267212	0.19296
O	-0.744243	1.095284	1.980536
N	-0.435212	-1.318685	0.610813
O	-0.871711	-2.189275	-0.125147
O	-0.196122	-1.457364	1.805497
C	-1.552894	0.77573	-2.135137
H	-1.880662	1.677278	-1.626203
H	-1.325088	1.018397	-3.187692
H	-2.35297	0.047487	-2.062404
N	0.196372	-0.985667	-2.259079
H	0.326484	-0.731375	-3.231786
H	-0.556653	-1.660529	-2.212447
F	-2.306196	0.0	0.0
