16

C	0.0	0.0	0.0
C	-0.435452	-0.584886	-1.40767
Br	2.014476	0.0	0.0
H	0.470105	-0.793627	-1.979568
N	-0.487134	1.298893	0.327748
H	-1.442488	1.175316	0.668839
H	-0.558751	1.810214	-0.549951
C	-0.311189	-0.916008	1.104095
N	-0.512118	-1.60056	2.037964
N	-1.14756	0.471846	-2.118129
H	-2.096426	0.509258	-1.735761
H	-1.224936	0.213814	-3.096009
N	-1.109902	-1.854152	-1.198006
H	-2.009666	-1.671219	-0.751117
H	-1.300693	-2.267787	-2.104837
Cl	-3.666083	0.0	0.0
