16

C	0.0	0.0	0.0
C	-0.460419	0.04656	-1.517592
Br	1.95714	0.0	0.0
H	0.435975	0.0616	-2.13927
N	-0.48982	1.050138	0.841905
H	-0.501611	1.890343	0.269415
H	-1.467345	0.826447	1.042659
C	-0.327049	-1.289356	0.632366
N	-0.52652	-2.291774	1.211009
N	-1.144881	1.318757	-1.726355
H	-2.089333	1.224075	-1.348359
H	-1.223825	1.477233	-2.724332
N	-1.169593	-1.180808	-1.83247
H	-2.058463	-1.174382	-1.329723
H	-1.385615	-1.177649	-2.82367
Cl	-3.673117	0.0	0.0
