16

C	0.0	0.0	0.0
C	-0.512568	0.610156	-1.372426
Br	2.049613	0.0	0.0
H	0.376085	0.772128	-1.986187
N	-0.544597	0.637956	1.091347
H	-0.344517	0.251588	1.998968
H	-0.533333	1.644157	1.015773
C	-0.24568	-1.445744	0.066798
N	-0.391883	-2.61102	0.107041
N	-1.110214	1.896696	-1.057279
H	-2.038738	1.693809	-0.676678
H	-1.257547	2.370867	-1.941027
N	-1.427345	-0.235221	-2.101751
H	-1.024961	-1.14752	-2.283549
H	-2.289064	-0.353018	-1.559635
Cl	-3.965025	0.0	0.0
