13

C	-0.502984	0.025893	-1.441062
C	0.0	0.0	0.0
Cl	0.557166	-0.915572	-2.530902
H	1.091582	0.0	0.0
H	-1.487996	-0.440464	-1.511045
C	-0.585691	1.392365	-1.951196
N	-0.685074	2.473073	-2.401702
N	-0.409343	-1.260167	0.66832
O	-0.242771	-1.32013	1.883258
O	-0.839722	-2.180184	-0.030626
C	-0.494211	1.113185	0.779869
N	-0.881557	2.038396	1.394524
F	2.420837	0.0	0.0
