13

C	-0.498149	0.031734	-1.439131
C	0.0	0.0	0.0
Cl	0.386636	-1.145285	-2.45439
H	1.091576	0.0	0.0
H	-1.552137	-0.247926	-1.500722
C	-0.314396	1.363092	-2.011974
N	-0.197416	2.422905	-2.505461
N	-0.471542	-1.224454	0.698045
O	-1.169191	-2.031621	0.078281
O	-0.122146	-1.349469	1.867262
C	-0.47488	1.141752	0.754764
N	-0.852522	2.081839	1.35298
F	2.427468	0.0	0.0
