13

C	-0.454757	-0.009106	-1.452128
C	0.0	0.0	0.0
Cl	0.121361	1.463457	-2.279598
H	1.094993	0.0	0.0
H	0.016467	-0.858651	-1.942318
C	-1.910871	-0.09267	-1.598626
N	-3.079525	-0.160116	-1.701252
N	-0.398497	-1.277439	0.638927
O	-0.510923	-2.262268	-0.096381
O	-0.520973	-1.2986	1.860786
C	-0.534167	1.111066	0.755406
N	-0.952891	2.043366	1.336704
F	2.432512	0.0	0.0
