13

C	-0.518482	-0.082387	-1.433638
C	0.0	0.0	0.0
Cl	0.585264	-1.020186	-2.485503
H	1.091681	0.0	0.0
H	-1.470718	-0.616171	-1.461048
C	-0.699575	1.242214	-2.022612
N	-0.886706	2.28678	-2.526364
N	-0.388	-1.218489	0.755
O	-0.776544	-2.200272	0.118328
O	-0.237777	-1.18596	1.973106
C	-0.491662	1.159669	0.710799
N	-0.869432	2.126428	1.264591
F	2.419448	0.0	0.0
