13

C	-0.330731	0.011074	-1.473098
C	0.0	0.0	0.0
Cl	-2.09943	-0.130036	-1.82021
H	1.094499	0.0	0.0
H	-0.037439	0.997743	-1.838949
C	0.393677	-0.979975	-2.267143
N	0.933561	-1.706022	-3.015173
N	-0.434963	-1.232543	0.679644
O	-0.723932	-1.161703	1.873458
O	-0.411741	-2.268899	0.017458
C	-0.51401	1.173063	0.668249
N	-0.880076	2.172414	1.16797
F	2.416508	0.0	0.0
