13

C	-0.339392	0.114085	-1.482288
C	0.0	0.0	0.0
Cl	0.144438	1.725848	-2.074733
H	1.103908	0.0	0.0
H	0.270713	-0.618343	-2.010039
C	-1.753819	-0.102975	-1.784836
N	-2.890319	-0.28432	-2.018217
N	-0.371354	-1.339892	0.496633
O	-0.515829	-1.488551	1.707427
O	-0.424338	-2.248235	-0.338744
C	-0.578819	1.030978	0.824731
N	-1.018624	1.90211	1.480652
F	2.426636	0.0	0.0
