13

C	-0.300648	0.024507	-1.478249
C	0.0	0.0	0.0
Cl	-2.062319	-0.041504	-1.87624
H	1.097241	0.0	0.0
H	0.046303	0.997862	-1.832641
C	0.405121	-0.995604	-2.252402
N	0.934278	-1.749377	-2.980336
N	-0.445317	-1.229924	0.674512
O	-0.536057	-2.247538	-0.011137
O	-0.6274	-1.177061	1.889695
C	-0.504986	1.173447	0.67268
N	-0.878158	2.171692	1.169208
F	2.415322	0.0	0.0
