13

C	-0.292491	0.24352	-1.459435
C	0.0	0.0	0.0
Cl	-2.051128	0.246705	-1.874704
H	1.104679	0.0	0.0
H	0.063154	1.255086	-1.66287
C	0.413472	-0.654674	-2.372067
N	0.954856	-1.288284	-3.199104
N	-0.452277	-1.311438	0.485893
O	-0.571369	-2.211495	-0.344789
O	-0.621274	-1.440057	1.696742
C	-0.500194	1.063814	0.837075
N	-0.871332	1.982792	1.469789
F	2.412318	0.0	0.0
