15

C	0.0	0.0	0.0
C	-0.247443	0.424402	-1.473702
Br	1.958407	0.0	0.0
H	0.206593	-0.306501	-2.13976
H	-0.3378	0.792184	0.663232
N	-0.550896	-1.237057	0.378563
H	-0.365093	-1.931358	-0.340152
H	-1.596074	-0.958647	0.357623
N	0.398602	1.736592	-1.824573
O	0.845827	1.827083	-2.968627
O	0.399877	2.625825	-0.982924
N	-1.661164	0.585362	-2.005192
O	-2.088239	-0.395077	-2.602656
O	-2.163733	1.697589	-1.963678
F	-2.66004	0.0	0.0
