15

C	0.0	0.0	0.0
C	-0.204627	0.048015	-1.546407
Br	2.021722	0.0	0.0
H	0.382345	0.86315	-1.96094
H	-0.286352	0.988732	0.357424
N	-0.57739	-0.986684	0.787264
H	-1.631382	-0.682662	0.659765
H	-0.442941	-1.887065	0.345128
N	-1.597389	0.320132	-2.084518
O	-2.210988	-0.604125	-2.593896
O	-1.899592	1.504144	-2.096161
N	0.271699	-1.172766	-2.266371
O	0.087229	-2.274592	-1.759168
O	0.799582	-0.975257	-3.360842
F	-2.690771	0.0	0.0
