18

C	0.0	0.0	0.0
C	-0.535082	0.083771	-1.433737
F	1.387768	0.0	0.0
H	-1.564591	-0.292239	-1.398931
C	-0.482741	1.142298	0.869991
H	-0.123378	0.980849	1.888023
H	-0.074479	2.082338	0.495528
H	-1.575192	1.155245	0.858398
C	-0.366821	-1.286886	0.634985
N	-0.539303	-2.285644	1.22748
N	0.26628	-0.880769	-2.262289
O	0.067604	-2.077088	-2.0655
O	1.080298	-0.426632	-3.067616
C	-0.493203	1.470466	-2.035223
H	-1.255055	2.076665	-1.544939
H	-0.73534	1.417623	-3.09718
H	0.490262	1.931058	-1.930906
Cl	-3.619545	0.0	0.0
