18

C	0.0	0.0	0.0
C	-0.255111	0.048276	-1.539787
F	1.393813	0.0	0.0
H	-0.150077	1.09434	-1.833833
C	-0.588434	1.166644	0.743876
H	-0.224433	2.098576	0.304221
H	-0.307903	1.122916	1.79819
H	-1.68126	1.101266	0.651258
C	-0.383613	-1.292342	0.596604
N	-0.572335	-2.335073	1.102546
N	-1.606342	-0.3557	-2.049527
O	-2.215888	0.49399	-2.691184
O	-1.906582	-1.53634	-1.923786
C	0.722243	-0.832641	-2.315357
H	0.673783	-1.859574	-1.950555
H	1.74078	-0.462169	-2.22642
H	0.437601	-0.830275	-3.370059
Cl	-3.920001	0.0	0.0
