18

C	0.0	0.0	0.0
C	-0.307742	-0.18062	-1.507975
F	1.390251	0.0	0.0
H	0.199948	-1.101068	-1.80242
C	-0.598159	1.19733	0.692042
H	-0.269205	1.209957	1.733191
H	-1.690102	1.103965	0.661647
H	-0.290996	2.114437	0.193283
C	-0.400165	-1.24895	0.679128
N	-0.627089	-2.25933	1.232671
N	0.456705	0.87585	-2.260073
O	1.375442	0.496313	-2.985508
O	0.100345	2.045541	-2.130469
C	-1.747046	-0.170021	-1.954147
H	-2.328139	-0.930993	-1.434112
H	-2.237558	0.774116	-1.733282
H	-1.778866	-0.36182	-3.031195
Cl	-4.341605	0.0	0.0
