18

C	0.0	0.0	0.0
C	-0.530115	0.012422	-1.437496
F	1.387946	0.0	0.0
H	-1.573469	-0.322877	-1.383631
C	-0.485441	1.186029	0.808165
H	-0.119916	1.084107	1.83204
H	-0.079678	2.103869	0.379982
H	-1.578703	1.203967	0.802275
C	-0.36906	-1.253318	0.695993
N	-0.570844	-2.208803	1.348069
N	0.23591	-1.032107	-2.201029
O	-0.066792	-2.204294	-1.996252
O	1.126332	-0.660127	-2.963357
C	-0.425511	1.35652	-2.124282
H	-1.166892	2.026072	-1.686079
H	-0.655051	1.247248	-3.184793
H	0.574831	1.781906	-2.032793
Cl	-3.64365	0.0	0.0
