10
Coordinates from ORCA-job run
  C   1.03115434029855     -0.23940825056605      0.19565903142471
  C   -0.24055691160349      0.60216231502487      0.10181409112449
  H   1.30349306463193     -0.63811341931774     -0.78568481058084
  H   -0.06941622398483      1.45792300502785     -0.55757824982896
  H   0.88496835635219     -1.08560297383468      0.87297232361083
  H   1.87560070830092      0.34845993907404      0.56733665795758
  H   -0.48398492110748      1.01463782638892      1.08518629270219
  N   -1.42770296937954     -0.09810404330683     -0.38672706291335
  H   -1.24361431217127     -0.47457386020584     -1.30929296125730
  H   -1.62894113133697     -0.88638053828453      0.21731468776065
