12
Coordinates from ORCA-job run
  C   -0.59357492282894      0.42212095806927     -0.01028622287952
  C   0.60305364200487     -0.50104803185742      0.01808504407662
  Br  -0.79034017998794      1.27497164829976     -1.72517119234920
  H   0.60201847229958     -1.20533942382300     -0.80828272664987
  H   -0.53356616340590      1.20024211023116      0.74593846877631
  H   0.64321363823883     -1.02928116205765      0.97426233794248
  N   -1.83739466486062     -0.37229369423211      0.27974378963989
  O   -1.88581327342030     -1.51355072346640     -0.16919250404043
  O   -2.70195793108255      0.19596862630671      0.93694986486426
  N   1.85359262839924      0.31251338570936     -0.06839824753654
  O   2.70710216712186     -0.05800832565211     -0.86660123769066
  O   1.93466658752186      1.27370463247241      0.69195262584666
