15

C	0.0	0.0	0.0
C	-0.383004	-0.085294	-1.55384
Br	1.941005	0.0	0.0
H	0.292512	-0.800124	-2.051
H	-1.405393	-0.364766	-1.771041
N	-0.235533	1.223898	0.725374
H	-1.220196	1.332147	0.932031
H	0.273226	1.16694	1.6044
N	-0.280572	-1.350275	0.704956
O	-0.347989	-1.3046	1.918213
O	-0.360042	-2.33005	-0.014021
N	-0.239042	1.225687	-2.275176
O	0.855173	1.696587	-2.391022
O	-1.265674	1.627625	-2.779716
Cl	-2.754081	0.0	0.0
