15

C	0.0	0.0	0.0
C	-0.505208	0.35673	-1.382094
Br	2.004811	0.0	0.0
H	-0.192604	-0.385303	-2.106605
H	-1.602605	0.403225	-1.322349
N	-0.531501	0.737304	1.034201
H	-0.323825	0.303189	1.923754
H	-1.551724	0.770262	0.891737
N	-0.256153	-1.560393	0.176556
O	-0.411892	-1.933522	1.329927
O	-0.23985	-2.276264	-0.815335
N	-0.016351	1.668019	-1.885114
O	-0.036323	2.637699	-1.136173
O	0.311309	1.698336	-3.074611
Cl	-3.496894	0.0	0.0
