15

C	0.0	0.0	0.0
C	-0.53115	0.189359	-1.411215
Br	1.941342	0.0	0.0
H	-0.185766	-0.608927	-2.05792
H	-1.626335	0.224723	-1.343094
N	-0.526713	0.896085	0.914697
H	-1.550108	0.891123	0.800107
H	-0.282734	0.625438	1.85977
N	-0.304084	-1.51327	0.386544
O	-0.348244	-2.349119	-0.505738
O	-0.426806	-1.728608	1.584126
N	-0.04728	1.463562	-2.003717
O	-0.502327	2.514578	-1.56129
O	0.769792	1.37472	-2.925187
Cl	-3.518668	0.0	0.0
