15

C	-0.389443	-0.042842	-1.459879
C	0.0	0.0	0.0
Br	-2.459441	0.389222	-1.56266
H	1.095384	0.0	0.0
H	-0.373794	0.914173	0.464118
N	0.170009	1.162191	-2.211031
O	0.565035	0.969487	-3.357819
O	0.17039	2.232176	-1.621604
N	-0.086174	-1.212838	-2.08162
H	0.36052	-1.130262	-2.980761
H	0.243198	-1.918706	-1.438903
N	-0.4201	-1.247361	0.628822
H	0.200987	-1.436635	1.40442
H	-1.369051	-1.171636	0.972762
Cl	3.400524	0.0	0.0
