15

C	-0.549452	-0.027281	-1.412519
C	0.0	0.0	0.0
Br	-0.006945	-1.629158	-2.366532
H	1.096791	0.0	0.0
H	-0.345254	0.945714	0.432248
N	-2.115083	-0.084828	-1.246169
O	-2.579373	0.968012	-0.808429
O	-2.763612	-1.078329	-1.529673
N	-0.160229	1.103717	-2.15296
H	-0.591689	1.14536	-3.065916
H	-0.322882	1.952859	-1.629189
N	-0.588702	-1.09368	0.779673
H	-0.041859	-1.927218	0.591232
H	-0.436397	-0.882099	1.758624
Cl	3.508365	0.0	0.0
