15

C	-0.470622	-0.01808	-1.43206
C	0.0	0.0	0.0
Br	-2.619357	0.296589	-1.327375
H	1.093244	0.0	0.0
H	-0.365228	0.899336	0.496032
N	-0.102859	1.210574	-2.229568
O	-0.056703	1.079013	-3.44893
O	0.097066	2.242177	-1.604409
N	-0.137016	-1.144168	-2.094218
H	-0.213135	-1.959789	-1.500857
H	-0.423728	-1.221564	-3.05547
N	-0.417928	-1.262748	0.612361
H	0.289345	-1.534658	1.283426
H	-1.304304	-1.152817	1.08828
Cl	3.39928	0.0	0.0
