15

C	-0.314338	0.038466	-1.487734
C	0.0	0.0	0.0
Br	-0.370852	-1.924125	-2.176139
H	1.092987	0.0	0.0
H	-0.394636	-0.903784	0.460793
N	-1.748958	0.459901	-1.766054
O	-2.594822	0.133862	-0.942117
O	-1.963779	1.076735	-2.804736
N	0.562698	0.844464	-2.167632
H	0.428325	0.884807	-3.165772
H	1.526134	0.693079	-1.874872
N	-0.470072	1.243816	0.601434
H	0.293234	1.673356	1.104013
H	-1.232615	1.066943	1.238018
Cl	3.407137	0.0	0.0
