14

C	-0.44106	0.096341	-1.454031
C	0.0	0.0	0.0
F	-1.769312	0.428679	-1.544945
H	1.093646	0.0	0.0
H	0.154264	0.839881	-1.983511
N	-0.258649	-1.200097	-2.197949
O	0.828203	-1.354362	-2.743857
O	-1.195402	-1.991964	-2.184115
C	-0.550073	-1.191279	0.6533
N	-1.001067	-2.129787	1.195593
N	-0.380211	1.196592	0.742565
H	-1.242412	1.594045	0.396387
H	0.373381	1.869032	0.679878
Cl	3.241243	0.0	0.0
