17

C	-0.406921	-0.037052	-1.486333
C	0.0	0.0	0.0
Cl	0.10875	1.499261	-2.270229
H	1.096489	0.0	0.0
C	0.289408	-1.189101	-2.207391
H	0.115729	-1.115088	-3.281894
H	-0.101874	-2.14655	-1.855704
H	1.360412	-1.124056	-1.993563
C	-1.864788	-0.127718	-1.633562
N	-3.030659	-0.243188	-1.738334
C	-0.458888	-1.246762	0.765215
H	0.051695	-2.130867	0.383196
H	-1.541792	-1.38998	0.709585
H	-0.174311	-1.136311	1.812971
C	-0.519609	1.195557	0.656296
N	-0.953491	2.124139	1.230688
Cl	3.323529	0.0	0.0
