17

C	-0.397509	-0.054327	-1.490697
C	0.0	0.0	0.0
Cl	0.027605	1.511621	-2.267378
H	1.096453	0.0	0.0
C	0.375156	-1.157852	-2.208893
H	1.438119	-1.019301	-1.994908
H	0.194781	-1.101295	-3.283447
H	0.054485	-2.138456	-1.85201
C	-1.844159	-0.235038	-1.647974
N	-2.997679	-0.429684	-1.764659
C	-0.452431	-1.246557	0.770507
H	-0.147373	-1.139407	1.812796
H	0.045469	-2.133496	0.377626
H	-1.536769	-1.383523	0.73396
C	-0.531925	1.193254	0.649635
N	-0.983819	2.112849	1.22459
Cl	3.313465	0.0	0.0
