17

C	-0.50283	0.019064	-1.462128
C	0.0	0.0	0.0
Cl	0.206871	-1.379077	-2.343439
H	1.095884	0.0	0.0
C	-2.022774	-0.064285	-1.581958
H	-2.317506	-0.011091	-2.631147
H	-2.376574	-1.008664	-1.167237
H	-2.480344	0.767205	-1.039818
C	-0.046245	1.236364	-2.14133
N	0.21811	2.227891	-2.715022
C	-0.447833	-1.227925	0.797582
H	-0.130948	-2.136658	0.28547
H	0.055634	-1.201524	1.765622
H	-1.527202	-1.254694	0.966324
C	-0.480365	1.213852	0.657604
N	-0.915365	2.159883	1.203455
Cl	3.287295	0.0	0.0
