17

C	-0.368995	0.010896	-1.492198
C	0.0	0.0	0.0
Cl	-2.173941	0.145838	-1.695837
H	1.098217	0.0	0.0
C	0.302318	1.171053	-2.214083
H	-0.053736	2.113672	-1.794643
H	0.074619	1.14265	-3.280538
H	1.38119	1.087759	-2.05108
C	0.010525	-1.262067	-2.110229
N	0.291831	-2.288448	-2.607681
C	-0.499498	-1.220042	0.769487
H	-0.145194	-1.15902	1.800223
H	-0.083183	-2.126828	0.326308
H	-1.590597	-1.28042	0.768319
C	-0.461746	1.237205	0.621641
N	-0.84387	2.219292	1.141508
Cl	3.293302	0.0	0.0
