17

C	-0.400893	-0.047371	-1.489834
C	0.0	0.0	0.0
Cl	0.049321	1.510613	-2.268342
H	1.096506	0.0	0.0
C	0.351599	-1.164401	-2.208977
H	0.011866	-2.139529	-1.853797
H	1.417156	-1.045339	-1.99514
H	0.172894	-1.102912	-3.283476
C	-1.850634	-0.204739	-1.642939
N	-3.006807	-0.388781	-1.747878
C	-0.455058	-1.246833	0.767777
H	-0.157358	-1.139593	1.812233
H	-1.538825	-1.386562	0.724186
H	0.047387	-2.132601	0.378464
C	-0.518747	1.200027	0.649607
N	-0.930646	2.159669	1.18814
Cl	3.310771	0.0	0.0
