17

C	-0.363829	0.032868	-1.495758
C	0.0	0.0	0.0
Cl	-2.155514	0.248393	-1.717946
H	1.098177	0.0	0.0
C	0.368396	1.162456	-2.206979
H	0.049255	2.118818	-1.788757
H	1.440421	1.032653	-2.029926
H	0.151868	1.147124	-3.276382
C	-0.036128	-1.254759	-2.112695
N	0.22515	-2.287975	-2.607781
C	-0.510364	-1.222777	0.755918
H	-0.079501	-2.127016	0.322836
H	-0.182973	-1.161554	1.795228
H	-1.600833	-1.288063	0.728738
C	-0.44982	1.236907	0.632269
N	-0.810417	2.230907	1.144664
Cl	3.285345	0.0	0.0
