15
Coordinates from ORCA-job run
  C   -0.77391902567580      0.17552982895568     -0.69024667829949
  C   0.74610195689010      0.17833806252511     -0.47944600011049
  Cl  -1.22429441377978      1.62487300358321     -1.64401798692937
  H   1.21042739080142      0.34298951469946     -1.45765578391697
  H   -1.01493207594308     -0.68001254552852     -1.32645170915220
  C   -1.58525875707288      0.13673934889137      0.58950587343963
  H   -2.65099073879503      0.13508406815040      0.35780184171910
  H   -1.36016941541489     -0.76707631067283      1.16018579332656
  H   -1.36962594781288      1.00980701132903      1.20789815410051
  C   1.25260606501733     -1.15125998558886      0.09269938755770
  H   0.88283356476336     -1.31925369223058      1.10484629592335
  H   0.92972010073254     -1.97910789721302     -0.54351804408784
  H   2.34324071366426     -1.15234484799268      0.12857721760355
  C   1.14563006592518      1.29089162057884      0.38614324499437
  N   1.46863051670015      2.15380282051339      1.11367839383162
