17

C	0.0	0.0	0.0
C	-0.618964	-0.091539	-1.389329
F	1.349623	0.0	0.0
H	-1.720522	-0.187158	-1.250169
C	-0.513145	1.199391	0.750709
H	-1.605761	1.178493	0.76759
H	-0.112724	1.158274	1.763203
H	-0.15702	2.104694	0.256338
N	-0.381519	-1.26665	0.780723
O	-1.05644	-2.123906	0.226538
O	0.061979	-1.316125	1.923821
N	-0.165509	-1.273185	-2.217719
O	0.802858	-1.921452	-1.839532
O	-0.811941	-1.462157	-3.241338
C	-0.310681	1.10315	-2.165047
N	-0.049173	2.068257	-2.781132
Br	-3.803364	0.0	0.0
