15

C	-0.447906	-0.038106	-1.457743
C	0.0	0.0	0.0
Br	0.155061	1.477441	-2.496586
H	1.098913	0.0	0.0
H	-0.053116	-0.936205	-1.921254
N	-1.944813	-0.139291	-1.561927
O	-2.616044	0.861201	-1.324587
O	-2.392997	-1.254268	-1.828884
N	-0.429324	-1.256346	0.597565
H	-1.253155	-1.073482	1.159794
H	0.310684	-1.598619	1.196824
N	-0.555157	1.144572	0.725033
H	0.115698	1.373447	1.451616
H	-0.603251	1.955223	0.117258
Cl	3.397664	0.0	0.0
