15

C	-0.452959	-0.023525	-1.456294
C	0.0	0.0	0.0
Br	-0.142347	1.619802	-2.396425
H	1.100203	0.0	0.0
H	0.059313	-0.808215	-2.009253
N	-1.914463	-0.372651	-1.539517
O	-2.191	-1.435563	-2.092209
O	-2.72143	0.393664	-1.028741
N	-0.516085	-1.264355	0.580036
H	-0.02478	-2.039724	0.139118
H	-0.20276	-1.269744	1.547024
N	-0.47004	1.150169	0.715757
H	0.153321	1.343968	1.487021
H	-1.41679	1.006352	1.044521
Cl	3.421046	0.0	0.0
