15

C	-0.420883	-0.001781	-1.485068
C	0.0	0.0	0.0
Br	0.394388	1.420436	-2.497817
H	1.10091	0.0	0.0
H	-0.136021	-0.940172	-1.954303
N	-1.920028	0.078146	-1.585718
O	-2.478815	1.146145	-1.777852
O	-2.491735	-0.997933	-1.382276
N	-0.410405	-1.184157	0.720513
H	0.228284	-1.942064	0.518585
H	-1.355951	-1.45723	0.483886
N	-0.618175	1.150333	0.648073
H	-0.188514	1.998118	0.291148
H	-0.361025	1.076781	1.625625
Cl	3.447329	0.0	0.0
