15

C	-0.480857	-0.036712	-1.450185
C	0.0	0.0	0.0
Br	0.29429	1.345987	-2.550488
H	1.098871	0.0	0.0
H	-0.225726	-0.99902	-1.881863
N	-1.986126	0.057392	-1.495474
O	-2.577503	-1.02012	-1.442619
O	-2.520589	1.159211	-1.511295
N	-0.417276	-1.231805	0.643856
H	-1.273266	-1.068836	1.162528
H	0.313882	-1.525894	1.276705
N	-0.559418	1.170232	0.685772
H	0.017892	1.314439	1.510491
H	-0.427551	1.996151	0.107089
Cl	3.407762	0.0	0.0
