15

C	-0.424811	-0.037803	-1.454228
C	0.0	0.0	0.0
Br	-2.357434	-0.151863	-1.69498
H	1.10298	0.0	0.0
H	-0.105282	0.877152	-1.94246
N	0.177412	-1.159259	-2.25347
O	0.608715	-0.863501	-3.364227
O	0.175893	-2.287438	-1.767075
N	-0.560309	-1.09364	0.791889
H	0.001951	-1.138722	1.636951
H	-0.393569	-1.963674	0.297196
N	-0.42152	1.29192	0.518399
H	0.305098	1.647586	1.126121
H	-1.268978	1.150112	1.055493
Cl	3.375473	0.0	0.0
