15

C	-0.432321	-0.011234	-1.458168
C	0.0	0.0	0.0
Br	-0.230761	1.668421	-2.387016
H	1.095206	0.0	0.0
H	0.134938	-0.758116	-2.004873
N	-1.872595	-0.425377	-1.59685
O	-2.662638	-0.04609	-0.73202
O	-2.173084	-1.115021	-2.567355
N	-0.38253	-1.333363	0.49075
H	0.327258	-1.64907	1.139038
H	-1.270165	-1.285586	0.975427
N	-0.446132	1.160325	0.731424
H	-1.423006	1.080613	0.984776
H	0.125256	1.266951	1.56047
Cl	3.414286	0.0	0.0
