20

C	0.0	0.0	0.0
C	-0.286655	-0.033002	-1.545888
Br	1.957206	0.0	0.0
H	0.504106	0.591765	-1.974328
N	-0.514654	1.215972	0.628572
O	-0.554568	1.246363	1.87994
O	-0.468245	2.259348	-0.070311
C	-0.249023	-1.234787	0.887304
H	-1.310904	-1.397268	1.055887
H	0.244371	-1.064997	1.845508
H	0.193857	-2.114616	0.418242
C	-1.586854	0.544136	-2.123342
H	-2.411527	-0.167528	-2.082309
H	-1.871998	1.462001	-1.615567
H	-1.384923	0.781122	-3.18181
C	-0.111716	-1.451282	-2.087619
H	0.860635	-1.882542	-1.834522
H	-0.202318	-1.434157	-3.17984
H	-0.901913	-2.101873	-1.69639
H	-1.99154	0.0	0.0
