17

C	0.0	0.0	0.0
C	-0.296006	0.060921	-1.547071
Cl	1.805993	0.0	0.0
H	0.560567	-0.4235	-2.024797
H	-0.30101	0.93946	0.466709
N	-0.549974	-1.059671	0.777636
H	-1.553561	-0.869409	0.861325
H	-0.438081	-1.94368	0.297288
C	-0.321736	1.525728	-1.982475
H	-0.321952	1.609793	-3.073216
H	-1.241703	1.982381	-1.610479
H	0.532806	2.089025	-1.598728
C	-1.536755	-0.66442	-2.071933
H	-1.316093	-1.030918	-3.081337
H	-2.412093	-0.023978	-2.096157
H	-1.821674	-1.51808	-1.45701
Br	-4.054621	0.0	0.0
