17

C	0.0	0.0	0.0
C	-0.414652	-0.03289	-1.499697
Cl	1.805552	0.0	0.0
H	0.434586	0.339438	-2.080096
H	-0.263153	0.976925	0.409726
N	-0.536428	-0.986854	0.88742
H	-1.525254	-0.778631	1.023727
H	-0.469069	-1.908273	0.47357
C	-1.592424	0.901472	-1.754218
H	-1.846963	0.900394	-2.819279
H	-2.487826	0.608307	-1.201561
H	-1.335634	1.9292	-1.476195
C	-0.718769	-1.449175	-1.973352
H	-1.633568	-1.822614	-1.507616
H	0.106522	-2.138881	-1.763516
H	-0.878942	-1.448923	-3.05491
Br	-4.632178	0.0	0.0
