18
Coordinates from ORCA-job run
  C   -0.80108048740049     -0.17978275009497     -0.31646636006826
  C   0.72046999244961     -0.29180671998822     -0.41995561947784
  F   -1.30886085964631     -0.40331036925781     -1.57652917956755
  H   0.90536643147132     -1.30741290976302     -0.80266569637214
  N   -1.27224943941140     -1.35840874927954      0.52372772941622
  O   -1.51871766634126     -1.14443130487904      1.70883605822758
  O   -1.31288167206798     -2.44834943068216     -0.03629083751246
  C   -1.35532185258933      1.11183251624862      0.21184270915910
  H   -1.06187924135306      1.27700138560269      1.24538461857938
  H   -0.97324126633487      1.91741746805431     -0.41310083008379
  H   -2.44473424517186      1.08479325500124      0.15732364582559
  C   1.41637915719888     -0.11945250551116      0.91991488633332
  H   1.28419802960690      0.89967795066626      1.28721027763225
  H   1.04590692366339     -0.81810865018295      1.67075193158120
  H   2.48775386697110     -0.29997949908516      0.80005015501941
  N   1.15724886072579      0.75255118859673     -1.34059421860226
  H   0.86406027339365      0.52283635356596     -2.28253185578701
  H   2.16858319483592      0.80493277098820     -1.33590741430275
