18
Coordinates from ORCA-job run
  C   -0.69475784635607     -0.29677473902425      0.07688338622046
  C   0.67280771309022      0.35787012920386      0.22163755870194
  F   -0.55252308542716     -1.64883380453216      0.25633200296782
  H   0.50386219742701      1.43679692369529      0.17286045645698
  N   -1.55130332058458      0.21037565854200      1.22693256335984
  O   -1.74915717548581      1.42146597955152      1.21951016490769
  O   -1.98635017539751     -0.59766781086947      2.03125585802142
  C   -1.44488736481164     -0.04443417220106     -1.20665318098317
  H   -2.43926032516060     -0.48989757116558     -1.13676936217951
  H   -1.54366592783459      1.02505465685392     -1.38847394510878
  H   -0.91624877718210     -0.51434938739218     -2.03581376568252
  C   1.61540625293231     -0.07111410678938     -0.90209395633534
  H   2.60575656053011      0.35328391783704     -0.72219931752795
  H   1.28122486792119      0.27303478785179     -1.88377974763786
  H   1.71106073677608     -1.15933989124806     -0.92672027645838
  N   1.13771750059980      0.05266081212532      1.56860180849718
  H   1.40285664104775     -0.92314025921367      1.63185113469563
  H   1.94746152791558      0.61500887677507      1.79563861808454
