18
Coordinates from ORCA-job run
  C   -0.69505273586898     -0.31523582718556     -0.01956515649183
  C   0.69938107566570      0.28790581318496      0.16537200321688
  F   -0.61787773860047     -1.67441789868330     -0.04566269570130
  H   0.60574784982613      1.36242832689485     -0.03664808396746
  N   -1.51348039439481      0.04955449495339      1.21032084133412
  O   -1.51287674493866      1.24687127034664      1.49385088137606
  O   -2.12191121823908     -0.83382204121269      1.79213574072758
  C   -1.47036031211693      0.16687748102345     -1.22280773432960
  H   -1.60799039118046      1.24711327693462     -1.18216453766638
  H   -2.44621734510620     -0.32245808345154     -1.23830961262926
  H   -0.93762565733173     -0.09998118316165     -2.13579831538606
  C   1.67433727090253     -0.33452699871861     -0.82441125187564
  H   2.63743954850222      0.17749079875648     -0.75940167997819
  H   1.32650267533833     -0.25674923902226     -1.85516257684919
  H   1.81948979076198     -1.38863699654855     -0.58407298956164
  N   1.14089085982971      0.01018892962727      1.52841364257115
  H   2.14671856381204     -0.08555791532553      1.56328100961992
  H   0.87388490313866      0.76295579158802      2.14963051559083
