18
Coordinates from ORCA-job run
  C   -0.65115154581021     -0.25871492789430      0.05192173798474
  C   0.76081243237566      0.33307620053298      0.15865880707916
  F   -0.57962274653406     -1.60938452660573      0.26739006794974
  H   0.65825808638859      1.41405570238047      0.03008196724279
  N   -1.44773321901838      0.31772263113959      1.21142674248293
  O   -1.83504922018404     -0.43674138421777      2.09296315407577
  O   -1.61124595391179      1.53500074126413      1.16870863500448
  C   -1.41981819459741      0.00491325340909     -1.21837867543994
  H   -1.46184080223986      1.07338663055278     -1.42606642606985
  H   -0.93550917114191     -0.51299258987238     -2.04569808444233
  H   -2.43618686975161     -0.38189735583567     -1.11882356089289
  C   1.66131206830893     -0.23092086521877     -0.93319498774938
  H   1.31193612210792      0.02849362584257     -1.93405672140749
  H   1.72297241242894     -1.31893136324579     -0.85682298946766
  H   2.66186929853645      0.17860476252995     -0.79579798322811
  N   1.37294887618086      0.10041933495418      1.45740106766986
  H   0.92284166167667      0.64446318574212      2.18302296273598
  H   1.30420676518526     -0.87955305545746      1.70626428647223
