18
Coordinates from ORCA-job run
  C   -0.70426643555305     -0.27270792232526      0.07614065532471
  C   0.69120171155383      0.31850753308812      0.22632702527494
  F   -0.61350326633870     -1.63725009363151      0.17864383465744
  H   0.56514231550031      1.40435026257798      0.24160019124381
  N   -1.51709293486622      0.20346861404470      1.27044367710908
  O   -1.66796465017217      1.41969137026182      1.33195981964341
  O   -1.96615136989517     -0.63010487225361      2.04023368522642
  C   -1.46879339295504      0.07929457538628     -1.17513166022846
  H   -2.47866533822898     -0.33013313216973     -1.10707404798194
  H   -0.97639516668588     -0.36413298353314     -2.04039889782244
  H   -1.52787149890665      1.16027143560921     -1.29615541944446
  C   1.59291923768465     -0.08297056617806     -0.94008468273445
  H   2.60309179455365      0.29142814552847     -0.75911600528904
  H   1.25322072529200      0.32927438627204     -1.89323450270907
  H   1.64429841687175     -1.17097412860354     -1.02759103637791
  N   1.16991320745898     -0.07961167692531      1.54414271095241
  H   1.38788778251892     -1.06912767245652      1.54942282586137
  H   2.01202886216777      0.42972672530805      1.77887182729416
