18
Coordinates from ORCA-job run
  C   -0.70711103805990     -0.24293086599651     -0.41337414629153
  C   0.75115816513288      0.21892560360410     -0.28180766052336
  F   -0.77567415165221     -1.08729445235723     -1.49248405559451
  H   0.98954795722915      0.58337094829197     -1.29382985513778
  N   -1.07846797058865     -1.08018942221656      0.79951352207173
  O   -0.86495823369065     -2.28667524898857      0.73041406539231
  O   -1.52541718582009     -0.47852364911091      1.77082111438010
  C   -1.70732558537423      0.86764858987662     -0.58485837628845
  H   -2.70487407141838      0.44677171980208     -0.72121916101137
  H   -1.44500671173550      1.43869597090637     -1.47851359621772
  H   -1.70832053302367      1.51402456238039      0.28879881349237
  C   1.69044489960843     -0.93224100650280      0.04533578846667
  H   1.56481394943999     -1.24268234072920      1.08508420861057
  H   1.50391288941587     -1.79264880440689     -0.59574184795509
  H   2.72441402544995     -0.60822966211897     -0.09691277501216
  N   0.84605780197171      1.25468800620312      0.73560688987189
  H   0.68217627702073      2.17315172374028      0.34533232029098
  H   1.76562951609457      1.25313832762270      1.15583475145535
