18
Coordinates from ORCA-job run
  C   -0.70731104636337     -0.24897886209994     -0.40568315575395
  C   0.74874782783553      0.22090659191288     -0.28606863456656
  F   -0.77815868816470     -1.10198083407938     -1.47776355383499
  H   0.97774404628055      0.58581969907925     -1.30032613109987
  N   -1.06861941928438     -1.07876790035847      0.81604505179221
  O   -1.52315329332604     -0.47359770248737      1.78154696586569
  O   -0.84113468097806     -2.28326291772784      0.75769510105343
  C   -1.71466436754292      0.85480493241676     -0.58059595445967
  H   -1.71785960197970      1.50706166611653      0.28872596699179
  H   -1.45929685425696      1.42152473510625     -1.47896633199349
  H   -2.71010167484492      0.42689383177036     -0.71012398316069
  C   1.69807095934452     -0.92354044292811      0.03563807600613
  H   1.58303481048166     -1.23295781802318      1.07674015183559
  H   2.72867601198989     -0.59274493568489     -0.11563639048102
  H   1.51237790663782     -1.78595898101954     -0.60290465486186
  N   0.84524847407651      1.25666486660767      0.73139835743315
  H   0.64809079600604      2.17136415736749      0.34727974583340
  H   1.77730879408856      1.27774991403153      1.12299937340073
