18
Coordinates from ORCA-job run
  C   -0.64216087211029     -0.26729222332368      0.09969280781624
  C   0.76370260039310      0.34806521902450      0.10535933281014
  F   -0.53593501594809     -1.60996874226898      0.34732422369838
  H   0.63550243923663      1.42428870393828     -0.03920061971337
  N   -1.37808195557246      0.32998752429833      1.28859984419363
  O   -1.69957638884201     -0.40501915441811      2.21215938014196
  O   -1.56470203235546      1.54285358695955      1.22248151465647
  C   -1.48906419618600     -0.05065500728289     -1.12904719691613
  H   -2.49260206768573     -0.44569815805066     -0.95760544429210
  H   -1.55753767021078      1.01061786368934     -1.36486432943926
  H   -1.04836308204280     -0.58723421300675     -1.96877833339185
  C   1.60337633972414     -0.22590113170106     -1.02891116089628
  H   1.68375790798004     -1.31154489153554     -0.93685068966494
  H   2.60511068351243      0.19782042628704     -0.96017782315922
  H   1.19042965449039      0.01067418565805     -2.01104453443821
  N   1.45857849536826      0.15320205292102      1.36817973485913
  H   1.04593570449990      0.70741466952062      2.10825990525518
  H   1.41962945574872     -0.82161071070907      1.64242338848021
