18
Coordinates from ORCA-job run
  C   -0.69819315948819     -0.24945641625062     -0.43495618127088
  C   0.73774674647312      0.27339628317731     -0.34037084539416
  F   -0.75310039532115     -1.12931907495331     -1.48135766349655
  H   0.94831861299675      0.59876673428719     -1.36612777918923
  N   -0.99295684706799     -1.06549136233028      0.81623236008567
  O   -0.95875721783452     -0.43071880680472      1.86964249287749
  O   -1.21312380193035     -2.26223559134617      0.70182356235538
  C   -1.77111284168068      0.79357978928484     -0.59377253505831
  H   -2.73615433611060      0.29852249625201     -0.72216906298668
  H   -1.55065809227858      1.38442423877793     -1.48409685490905
  H   -1.79243921373393      1.45458015924186      0.26777302334840
  C   1.71118097662782     -0.84776093018952      0.02554342662752
  H   1.56889147636182     -1.72832415887192     -0.60474074692167
  H   2.73820921080569     -0.49760316604313     -0.10098219723672
  H   1.58488414031228     -1.14164128883055      1.07123546627968
  N   0.79510990429367      1.46065247246217      0.50132831629409
  H   0.67564602954588      1.19603602947206      1.47227744922662
  H   1.70550880802894      1.89359259266484      0.40471776936839
