19
Coordinates from ORCA-job run
  C   0.67741115684098     -0.65820184251106     -0.10010649475394
  C   -0.75463229450506     -0.18859910318915      0.23313070545329
  Br  0.64524476864703     -2.54973496903394     -0.57755832338280
  H   -1.12790315938847     -0.94357634270458      0.93505329043538
  C   1.68240596441072     -0.48030799211256      1.02182376979003
  H   1.80739759488701      0.57366996087158      1.26017772285492
  H   2.65012801242751     -0.89168179388508      0.73132990536138
  H   1.32813153246676     -1.01611264154203      1.90425316884002
  N   1.14770092002997      0.13878010454870     -1.31732033723217
  O   0.98238166705388     -0.31498161311384     -2.44124214167828
  O   1.59568720464496      1.25542743814670     -1.05626178294836
  C   -1.66887057417838     -0.17076276051860     -0.99105945206055
  H   -2.70026169715236     -0.01413798475044     -0.66688597390722
  H   -1.40666388162281      0.64860728820537     -1.66558862311589
  H   -1.62510879695699     -1.10300622792383     -1.55419764199472
  C   -0.78728122158617      1.17001160910089      0.93758550113644
  H   -1.82886351011834      1.43642475743559      1.13330123227292
  H   -0.34931406816941      1.95402621555193      0.31712594872032
  H   -0.26758961773083      1.15515589742435      1.89643952620924
