19
Coordinates from ORCA-job run
  C   0.65970209525866     -0.52931899515578     -0.08856366358490
  C   -0.51431989948763      0.45746586823616      0.01849930949308
  Br  0.07092947389767     -2.37341186403692      0.08411299849291
  H   -0.03605062371744      1.44052583991553     -0.07482336078747
  C   1.77921841740492     -0.28040218694935      0.90864857832440
  H   1.44470344503094     -0.52664554048088      1.91515809712773
  H   2.64006796815316     -0.90911180257125      0.67355604350466
  H   2.08102545710985      0.76705949523711      0.86741380616034
  N   1.24926162750453     -0.32337926151320     -1.48906292710922
  O   1.78337122879138      0.77459728163532     -1.63606497510648
  O   1.12768628575750     -1.18039160815593     -2.35151583251875
  C   -1.21213086289688      0.38928586995206      1.37432112121000
  H   -1.96018839942164      1.18393331775726      1.43035155710972
  H   -0.52196032805889      0.53021553721183      2.20788051409109
  H   -1.72520348209059     -0.56509642541656      1.50599503254213
  C   -1.51791027644097      0.30801909485487     -1.12233730281009
  H   -2.30423045121821      1.05859536543819     -1.01250181165345
  H   -1.05795786503838      0.45648376409095     -2.10149039897738
  H   -1.98601381053798     -0.67842375004941     -1.10857678550834
