19
Coordinates from ORCA-job run
  C   0.71680880696425     -0.49063075013427     -0.38025145996668
  C   -0.69518124368440      0.10653979876161     -0.45897534851916
  Br  0.83301776478329     -2.10183782960537     -1.48602508169578
  H   -0.93948744587086      0.15989535858246     -1.52431681218817
  C   1.21479744396598     -0.82487897929133      1.00725863537321
  H   2.25069934351025     -1.15865251151557      0.97006367278405
  H   1.16068561997155      0.04930006010324      1.65693209855262
  H   0.60522742388025     -1.62610386773803      1.42425024465211
  N   1.64397593341619      0.52731587658248     -1.04273844876587
  O   2.52275742849449      1.02453214456191     -0.34314212743409
  O   1.39644520919458      0.82899405947898     -2.20347766000712
  C   -0.72612547984309      1.53078685143737      0.10456559808230
  H   -0.43956700498932      1.55882483188802      1.15855234352417
  H   -1.74543331398077      1.91719066558696      0.03097484349517
  H   -0.07954642213576      2.21253716397317     -0.45074869944489
  C   -1.72406492408570     -0.77001740495592      0.24990756383224
  H   -2.72689125604385     -0.39190059917571      0.03759124447723
  H   -1.68005837007054     -1.80738847648068     -0.08527226411089
  H   -1.58705951347656     -0.74550639205932      1.33385165735954
