19
Coordinates from ORCA-job run
  C   0.67319191534096     -0.66175213370689     -0.10468750918838
  C   -0.75504044817717     -0.18602000550636      0.23740359117293
  Br  0.62977397075991     -2.55408174894980     -0.58008200709506
  H   -1.12974274799319     -0.94172625981324      0.93769056194837
  C   1.68641791080878     -0.48682331424600      1.01011552259493
  H   1.33790468662689     -1.02325160489115      1.89440176149244
  H   1.81417448779581      0.56684281007078      1.24871585791890
  H   2.65145891276020     -0.89908014457551      0.71200248226614
  N   1.13887545306013      0.13117482261994     -1.32655667484185
  O   0.96966191221999     -0.32537582726405     -2.44842084389636
  O   1.58857591891239      1.24814663722681     -1.06967672688432
  C   -1.67402341440245     -0.15866062690133     -0.98322944076460
  H   -1.63443507158231     -1.08746440306966     -1.55239937803033
  H   -2.70401148188000     -0.00194503803125     -0.65480853982376
  H   -1.41174964742843      0.66453621315429     -1.65312188397549
  C   -0.77679282205421      1.16972434881169      0.94773613613932
  H   -0.32717968349797      1.95177256852661      0.33328348206230
  H   -1.81621660614046      1.44711686962081      1.13964482780921
  H   -0.26184324512886      1.14386683692429      1.90898878109560
