18

C	0.0	0.0	0.0
C	-0.373459	0.294248	-1.489727
F	1.413106	0.0	0.0
H	0.612184	0.437801	-1.947959
C	-0.286209	1.169951	0.886407
N	-0.390446	2.067642	1.637594
N	-0.544907	-1.212761	0.491031
H	-0.361538	-1.270354	1.489474
H	-1.575731	-1.054676	0.384661
C	-1.184778	1.573099	-1.701235
H	-1.338536	1.723175	-2.77596
H	-0.668238	2.453843	-1.308462
H	-2.151156	1.457787	-1.204163
C	-1.048329	-0.88623	-2.185545
H	-1.093023	-0.678644	-3.261073
H	-0.498304	-1.816049	-2.029049
H	-2.063588	-0.993904	-1.797354
H	-3.087283	0.0	0.0
