18

C	0.0	0.0	0.0
C	-0.46111	0.028023	-1.457486
F	1.388837	0.0	0.0
H	-1.559417	0.051906	-1.379087
C	-0.321745	1.297225	0.679501
N	-0.485302	2.329454	1.216973
N	-0.547848	-1.127422	0.669399
H	-1.583131	-0.977032	0.545069
H	-0.357555	-1.043971	1.664621
C	-0.002696	-1.244771	-2.163844
H	-0.372242	-1.249552	-3.194375
H	1.090393	-1.301452	-2.192962
H	-0.377969	-2.130199	-1.651817
C	0.044427	1.270731	-2.18223
H	-0.28286	1.248857	-3.226224
H	1.137833	1.319144	-2.170742
H	-0.346877	2.18513	-1.729933
H	-3.028544	0.0	0.0
