18

C	0.0	0.0	0.0
C	-0.440574	0.039533	-1.470049
F	1.404692	0.0	0.0
H	-1.538402	0.095102	-1.382937
C	-0.337696	1.28565	0.671751
N	-0.435359	2.321873	1.214381
N	-0.541851	-1.055282	0.787008
H	-0.437519	-1.916814	0.261046
H	-1.569021	-0.834581	0.761217
C	-0.042232	-1.244753	-2.193748
H	-0.322052	-1.173949	-3.249063
H	-0.556815	-2.120651	-1.790761
H	1.037953	-1.415408	-2.139614
C	0.098494	1.262947	-2.205047
H	1.192185	1.260928	-2.237513
H	-0.27368	1.273923	-3.234524
H	-0.229734	2.188239	-1.725728
H	-3.01777	0.0	0.0
