18

C	0.0	0.0	0.0
C	-0.472997	0.071072	-1.448154
F	1.415514	0.0	0.0
H	-1.567646	0.159783	-1.345684
C	-0.292684	1.285804	0.712634
N	-0.412175	2.283333	1.322768
N	-0.552011	-1.131298	0.651155
H	-1.587527	-0.978359	0.517036
H	-0.374647	-1.058208	1.649237
C	-0.129784	-1.221998	-2.180389
H	-0.487185	-1.165071	-3.213778
H	-0.598406	-2.077673	-1.695882
H	0.952644	-1.386519	-2.198942
C	0.095968	1.288183	-2.167819
H	1.188519	1.247723	-2.215101
H	-0.193001	2.219046	-1.672594
H	-0.288352	1.324258	-3.191753
H	-3.028935	0.0	0.0
