18

C	0.0	0.0	0.0
C	-0.474904	0.029994	-1.452149
F	1.388797	0.0	0.0
H	-1.572181	0.070007	-1.357692
C	-0.314558	1.299117	0.681747
N	-0.443264	2.308728	1.269611
N	-0.55265	-1.121584	0.675663
H	-0.370724	-1.028703	1.671551
H	-1.587206	-0.971224	0.544465
C	-0.054398	-1.251486	-2.164543
H	-0.447358	-1.2508	-3.186508
H	-0.437775	-2.12798	-1.643056
H	1.036491	-1.330994	-2.217307
C	0.034979	1.266004	-2.184794
H	-0.304594	1.245618	-3.224959
H	1.128735	1.30637	-2.185388
H	-0.344518	2.184429	-1.729917
H	-3.037085	0.0	0.0
