18

C	0.0	0.0	0.0
C	-0.377234	0.159813	-1.508573
F	1.41129	0.0	0.0
H	0.60975	0.225569	-1.985528
C	-0.286296	1.237175	0.79014
N	-0.400138	2.189929	1.469436
N	-0.538915	-1.1688	0.59591
H	-1.570481	-1.024673	0.486159
H	-0.346649	-1.139994	1.593257
C	-1.153581	1.437773	-1.832102
H	-1.301152	1.498583	-2.915333
H	-0.609277	2.331791	-1.509811
H	-2.122911	1.38752	-1.336266
C	-1.091306	-1.063264	-2.086779
H	-0.531877	-1.977613	-1.889504
H	-1.17904	-0.935236	-3.171815
H	-2.087157	-1.126049	-1.650577
H	-3.083512	0.0	0.0
