18

C	0.0	0.0	0.0
C	-0.359781	-0.071128	-1.538212
F	1.367949	0.0	0.0
H	0.620818	-0.032056	-2.028431
C	-0.35565	1.332754	0.566462
N	-0.465354	2.415894	1.006466
N	-0.542951	-0.987842	0.873875
H	-0.415494	-1.896708	0.440797
H	-1.567675	-0.787716	0.838518
C	-1.189782	1.10896	-2.049694
H	-0.669357	2.058755	-1.90569
H	-2.14386	1.123122	-1.516113
H	-1.370938	0.982811	-3.123317
C	-1.044931	-1.381568	-1.915316
H	-0.45471	-2.263696	-1.649392
H	-1.192374	-1.408759	-3.000789
H	-2.019135	-1.415928	-1.421789
H	-3.110046	0.0	0.0
