18

C	0.0	0.0	0.0
C	-0.370176	-0.110273	-1.515103
F	1.410537	0.0	0.0
H	0.609719	-0.007299	-1.996781
C	-0.284534	1.368854	0.531445
N	-0.404095	2.444967	0.988958
N	-0.556504	-1.031074	0.796617
H	-1.586887	-0.905188	0.642171
H	-0.381946	-0.816449	1.775322
C	-1.265053	1.011571	-2.045667
H	-1.455187	0.838016	-3.111322
H	-2.21055	1.000016	-1.496818
H	-0.78405	1.98899	-1.943901
C	-0.93322	-1.481095	-1.882982
H	-0.312025	-2.289948	-1.493392
H	-0.974487	-1.561398	-2.974509
H	-1.9441	-1.57774	-1.482635
H	-3.114062	0.0	0.0
