18

C	0.0	0.0	0.0
C	-0.138303	0.040167	-1.559657
F	1.407007	0.0	0.0
H	0.541333	0.856436	-1.814548
C	-0.54194	1.202199	0.658113
N	-0.497487	2.285141	1.143527
N	-0.193114	-1.25911	0.685845
H	0.491553	-1.217495	1.451698
H	-1.140545	-1.281281	1.078851
C	-1.456625	0.346775	-2.27326
H	-2.147718	-0.467424	-2.161449
H	-1.925072	1.231429	-1.847138
H	-1.222172	0.522771	-3.322185
C	0.483628	-1.256735	-2.138716
H	0.389753	-1.22971	-3.235548
H	1.542785	-1.333837	-1.880912
H	-0.039258	-2.116699	-1.738909
H	-2.25945	0.0	0.0
