16

C	-0.454663	0.131478	-1.449935
C	0.0	0.0	0.0
Br	0.304634	-1.282631	-2.558405
H	1.112626	0.0	0.0
C	-1.90153	0.087397	-1.621564
N	-3.071216	-0.000928	-1.721263
N	0.038878	1.495336	-1.994378
O	-0.734604	2.426813	-1.785333
O	1.141781	1.553389	-2.506368
C	-0.428086	-1.314232	0.646617
H	-1.513002	-1.458863	0.644554
H	0.059112	-2.146848	0.137521
H	-0.071521	-1.308135	1.679124
C	-0.476519	1.125819	0.777938
N	-0.811958	2.005734	1.485409
H	2.5577	0.0	0.0
