16

C	-0.403411	-0.245719	-1.430946
C	0.0	0.0	0.0
Br	0.272803	1.158949	-2.605782
H	1.114639	0.0	0.0
C	0.09547	-1.525374	-1.928455
N	0.491781	-2.545593	-2.358435
N	-1.937362	-0.281574	-1.540052
O	-2.538935	0.773226	-1.691251
O	-2.444893	-1.386844	-1.33999
C	-0.352336	-1.144633	0.947089
H	-1.42715	-1.29913	1.070788
H	0.108616	-2.066952	0.586754
H	0.096664	-0.913775	1.916617
C	-0.49165	1.270343	0.483339
N	-0.839776	2.292354	0.953801
H	2.479595	0.0	0.0
