15
Coordinates from ORCA-job run
  C   -0.77551666222147      0.14124897316935     -0.29077537280628
  C   0.64023882829954     -0.46269200274034     -0.39416582158152
  H   -1.31043963259474      0.01866635003631     -1.23689101388602
  H   0.57231174862654     -1.49949762197869     -0.73837742059115
  N   -0.81888341767632      1.47435922275595      0.15646580663086
  H   -0.93083906412520      2.14544648150309     -0.58538877701648
  H   -0.03325146411831      1.68721116543819      0.75622663903992
  N   -1.55641122478587     -0.77292705881917      0.68743101620653
  O   -1.26636020193450     -1.97056859856618      0.64951814477363
  O   -2.41580331855537     -0.26992188917097      1.39012318585562
  N   1.28592881897869     -0.31508725419438      0.91035912886527
  H   1.01433700170039     -1.09712440397894      1.49552698841979
  H   2.29363160493972     -0.33414490864349      0.81723670470887
  C   1.36523100242369      0.31490996570325     -1.40197891776789
  N   1.93482598104321      0.94112157948600     -2.21531029085115
