15
Coordinates from ORCA-job run
  C   -0.70682836273700      0.15812813388167     -0.37003376284118
  C   0.69756466665234     -0.47273896342572     -0.26819734883663
  H   -1.04603303611799      0.17432695543620     -1.40751794113481
  H   0.62779844857468     -1.53851109241831     -0.52523529496285
  N   -0.80349939757352      1.43135976278743      0.24268540523101
  H   -0.95713865316506      2.18070628350918     -0.41128872108521
  H   -0.01248044542868      1.59820515780931      0.85182177373784
  N   -1.70546638228229     -0.78027736717594      0.30871731382442
  O   -2.86928472555283     -0.68197907042629     -0.05629897465393
  O   -1.29002739766305     -1.53076590351133      1.19332606652305
  N   1.26243989981919     -0.21715118249827      1.05298400166248
  H   2.26099119960836     -0.38137960409459      1.05103005422759
  H   0.82503559337137     -0.84780462706204      1.71363498327834
  C   1.52907698081537      0.18720203779845     -1.28138887305000
  N   2.18785161167912      0.72067947939024     -2.09323868192011
