15
Coordinates from ORCA-job run
  C   -0.73313060331846      0.15896146700968     -0.31359350210513
  C   0.67696281613391     -0.46688101120463     -0.32582114424365
  H   -1.15021995865791      0.18507091321435     -1.32204246579128
  H   0.59169743247274     -1.52987203333793     -0.58974921503565
  N   -0.78732933030526      1.42511668657795      0.31883368107801
  H   0.04692838311932      1.58902896055857      0.86816435874926
  H   -0.99282044969308      2.18076053630650     -0.31331558572458
  N   -1.67439890272848     -0.79067301819641      0.42870738512951
  O   -2.86309241156418     -0.69136254093296      0.15568253037957
  O   -1.19048672471084     -1.55038810514825      1.26949686349927
  N   1.33957042963649     -0.22433239986942      0.95177577329733
  H   0.95439164121402     -0.86382397259730      1.63602863764747
  H   2.33532236560740     -0.38625715500235      0.87230864319517
  C   1.42684502290379      0.20880648814067     -1.39112514071018
  N   2.01976028989055      0.75484518448152     -2.24435081936514
