17

C	-0.474692	0.108056	-1.457435
C	0.0	0.0	0.0
Cl	-0.276669	-1.534443	-2.175311
H	1.117385	0.0	0.0
C	-1.884892	0.480003	-1.598492
N	-2.99352	0.82063	-1.79073
C	0.42908	1.053095	-2.247683
H	0.171416	0.991243	-3.306039
H	1.466354	0.751832	-2.089933
H	0.290671	2.073703	-1.895641
N	-0.570096	-1.198643	0.682092
O	-1.79954	-1.263789	0.69368
O	0.206957	-2.011061	1.164219
N	-0.426429	1.166607	0.836853
O	-0.44127	0.985858	2.048708
O	-0.665988	2.225571	0.262832
Cl	3.190638	0.0	0.0
