17

C	-0.464899	0.024626	-1.457549
C	0.0	0.0	0.0
Cl	0.142775	-1.472659	-2.235553
H	1.088583	0.0	0.0
C	-1.921004	0.075269	-1.607302
N	-3.0723	0.211892	-1.800025
C	0.186408	1.208515	-2.175649
H	-0.223381	2.151571	-1.813428
H	1.261234	1.179438	-1.982792
H	-0.008519	1.120558	-3.245245
N	-0.513064	-1.151911	0.797985
O	-1.400588	-1.855785	0.323018
O	-1.1e-05	-1.27668	1.90469
N	-0.49879	1.225975	0.708714
O	0.186762	2.237022	0.604765
O	-1.570609	1.13333	1.307341
Cl	3.1797	0.0	0.0
