16

C	-0.445661	-0.010465	-1.481808
C	0.0	0.0	0.0
Cl	0.010308	1.469121	-2.31299
H	1.099936	0.0	0.0
C	0.115752	-1.157913	-2.188834
N	0.584848	-2.081996	-2.743112
N	-1.976628	-0.15334	-1.523525
O	-2.431665	-1.223712	-1.908464
O	-2.622535	0.801543	-1.116024
N	-0.564462	-1.222963	0.593819
H	-0.334884	-1.182106	1.582117
H	-0.057469	-2.026779	0.230156
N	-0.437978	1.185943	0.667351
H	-1.367981	1.078634	1.051526
H	0.231476	1.437478	1.381689
Br	3.491816	0.0	0.0
