16

C	-0.558885	0.01069	-1.434876
C	0.0	0.0	0.0
Cl	-2.300807	0.337422	-1.438534
H	1.096051	0.0	0.0
C	0.103919	0.99314	-2.283486
N	0.58879	1.786607	-3.001526
N	-0.306305	-1.376674	-2.062224
O	0.871095	-1.709411	-2.035219
O	-1.24341	-2.015814	-2.513924
N	-0.510969	-1.213943	0.651986
H	-0.616732	-1.005168	1.637172
H	0.219114	-1.918442	0.590914
N	-0.391074	1.238075	0.619768
H	-1.312596	1.184377	1.033875
H	0.301413	1.502727	1.306692
Br	3.49052	0.0	0.0
