16

C	-0.562083	0.001642	-1.42945
C	0.0	0.0	0.0
Cl	0.09423	-1.334259	-2.396514
H	1.096919	0.0	0.0
C	-2.020674	-0.076105	-1.419527
N	-3.192569	-0.153068	-1.386531
N	-0.151628	1.314993	-2.102605
O	-1.054357	2.068591	-2.450076
O	1.047574	1.497967	-2.214358
N	-0.530498	-1.189466	0.678098
H	-0.091594	-2.008753	0.266776
H	-0.170542	-1.143191	1.627207
N	-0.462148	1.218292	0.616932
H	-1.317859	1.056078	1.134353
H	0.257445	1.592959	1.220707
Br	3.535703	0.0	0.0
