16

C	-0.484346	0.028397	-1.464083
C	0.0	0.0	0.0
Cl	-2.253858	-0.006967	-1.564226
H	1.097801	0.0	0.0
C	-0.001677	1.208862	-2.171566
N	0.383593	2.184257	-2.702114
N	0.097111	-1.210523	-2.171208
O	-0.622389	-2.179497	-2.33475
O	1.276202	-1.097944	-2.47033
N	-0.445565	-1.222494	0.604499
H	0.229153	-1.532392	1.288043
H	-1.357309	-1.105186	1.024798
N	-0.528639	1.195674	0.671266
H	-0.036835	2.007992	0.303719
H	-0.220133	1.116773	1.63532
Br	3.523344	0.0	0.0
