19
Coordinates from ORCA-job run
  C   0.64921539303536     -0.62376645289509     -0.21061556083643
  C   -0.81064441400497     -0.17910861661433     -0.02431308100561
  Cl  0.70745224272453     -1.58073698102518     -1.81783347347745
  H   -1.41077394475406     -1.09771572984121     -0.07695656862331
  N   1.04384553829665     -1.45998335658622      0.86981353048537
  H   1.98530166895148     -1.80798483015342      0.73423604249102
  H   0.41963821757408     -2.25353123824076      0.95987285590320
  C   1.64435374751025      0.50902170374286     -0.37513624913410
  H   1.41504524062793      1.11578340707464     -1.24950801322583
  H   2.65011290853564      0.10299699812123     -0.50533162129611
  H   1.63832104515387      1.13463953910298      0.51966152669533
  C   -1.30482220415881      0.76785287386656     -1.11484523847988
  H   -2.37896907778213      0.93114747540582     -0.99655691543456
  H   -1.13262749448571      0.37062792334515     -2.11505166873301
  H   -0.81778592392695      1.74339646801411     -1.03692215770217
  C   -1.02668379503090      0.45489815297195      1.35230125930003
  H   -0.71104555548375     -0.20433593389320      2.15956455150621
  H   -0.47278738533773      1.39294179240381      1.44402837307934
  H   -2.08714620744480      0.68685680520032      1.48359240848797
