19
Coordinates from ORCA-job run
  C   0.68170214042068     -0.38846962418065     -0.46224854365805
  C   -0.57345944216034      0.48766136982882     -0.30460376859079
  Cl  0.91582981186911     -0.71225326764606     -2.23138114298832
  H   -0.41495654511094      1.35460861585134     -0.95725846367851
  N   0.47142396558462     -1.68347145256195      0.15788333145708
  H   1.28474943414903     -2.26975890290473      0.00432729252101
  H   0.36885490765553     -1.55461773035148      1.15920835706192
  C   1.95296040589170      0.31984885051850     -0.00327068542982
  H   2.82737380326597     -0.27710645988745     -0.27086423523194
  H   2.05267513721395      1.30312094978340     -0.46925552497072
  H   1.94356645530753      0.44026372319452      1.08255811637933
  C   -0.73919753727951      1.00338140244067      1.12833094175050
  H   0.09513610050435      1.62569776876021      1.45532986129890
  H   -1.64388369336699      1.61327116988512      1.18900629616001
  H   -0.86357486264157      0.18292267987070      1.84214197675744
  C   -1.84664063448705     -0.22876559099676     -0.74802381619147
  H   -1.75633559520964     -0.61795029233686     -1.76183346521487
  H   -2.68905753120320      0.46791169385062     -0.72253796745040
  H   -2.06816632040323     -1.06729490311794     -0.08650855998130
