19
Coordinates from ORCA-job run
  C   0.69125107101220     -0.64307639434004     -0.32168439209921
  C   -0.77765969083091     -0.22455824374340     -0.08880836496748
  Cl  0.73544769484241     -1.51641455277113     -1.91739055994720
  H   -1.36621831061046     -1.14448228456547     -0.20519805188404
  N   1.20647964023601     -1.58383871477100      0.64773666596946
  H   1.39785327542662     -1.11043780062940      1.52242494421635
  H   0.53796720716097     -2.32754395539730      0.81557479597681
  C   1.65827237110829      0.52358484172522     -0.41962173211788
  H   2.66429533185116      0.13203296589947     -0.57195456400395
  H   1.40716349645206      1.18062276083259     -1.25085262599409
  H   1.64658005218815      1.10762261578643      0.50570110899745
  C   -1.29266858331666      0.80108676367366     -1.09694749038907
  H   -0.83713824499859      1.78050300128383     -0.92779503824036
  H   -2.37356589113797      0.92075297426517     -0.98556405685034
  H   -1.09340612696473      0.49798523351616     -2.12498350265088
  C   -0.99767420744573      0.29603447682875      1.33310602259466
  H   -0.41442539611344      1.20118539563380      1.52471747694302
  H   -2.05055242163463      0.55529176038934      1.46962886925610
  H   -0.74500126722475     -0.44635084361668      2.09191049519066
