19
Coordinates from ORCA-job run
  C   0.54479127631259     -0.72361220075271     -0.28848682383349
  C   -0.86022242295794     -0.13687993871156     -0.07764503881172
  Cl  0.52642508111809     -1.65921102358241     -1.83856898005896
  H   -1.54140462581883     -0.98492071095507     -0.20608605790954
  N   0.80614205713904     -1.70858666261421      0.75408298665790
  H   1.61243580418725     -2.26511283036549      0.49062368520665
  H   1.04664702846591     -1.21856834855346      1.60998051095834
  C   1.64190950917726      0.32576963534922     -0.42654779608412
  H   1.48227004860205      0.97913541299656     -1.28478023290515
  H   2.60706060276178     -0.16989418581036     -0.55002859906918
  H   1.68452643073097      0.93859652291677      0.47902964388856
  C   -1.21753940827531      0.94630957623516     -1.09208697332080
  H   -0.65682779402829      1.86651183641028     -0.90638524455376
  H   -2.27991256503548      1.19017293479047     -1.01109008595410
  H   -1.02700087069861      0.62439482470997     -2.11708543648343
  C   -1.04294852428107      0.39236893911602      1.34627370130529
  H   -0.33376045912822      1.19272428030063      1.57911287547053
  H   -2.04620536458269      0.81305192010651      1.45154544841275
  H   -0.94438580368850     -0.40124998158630      2.08814241708422
