19
Coordinates from ORCA-job run
  C   0.71355251604193     -0.37591648251150     -0.24426863426406
  C   -0.60847567623115      0.13895032404468      0.34575761745983
  Cl  0.80255984858790      0.16956056472908     -2.02913333102907
  H   -0.54413485934873     -0.15054407583491      1.40327980404888
  N   0.77686578074500     -1.79372263267342     -0.14439289208124
  H   1.66975882192925     -2.13586757472236     -0.47828613287385
  H   0.04738842732989     -2.23796181423929     -0.68610010705008
  C   1.93957010387182      0.22172087572097      0.42357051213883
  H   1.90469449401243      0.00293724014008      1.49385287522296
  H   1.99834483449835      1.29705456309308      0.27077005578647
  H   2.84591235285821     -0.22184308941280      0.00478610883842
  C   -1.83545148028366     -0.55037330079821     -0.25003856856129
  H   -2.74368171495434     -0.12014093422982      0.17834028994994
  H   -1.85614438764179     -1.61928386404151     -0.02787786659526
  H   -1.87649674613225     -0.41016751426457     -1.33274430880600
  C   -0.76754974550859      1.65602675758727      0.27660104105099
  H   0.06393468393433      2.18486724307701      0.74490248890208
  H   -0.85393050561310      1.99662221873380     -0.75658274470384
  H   -1.67771674809550      1.94808149560243      0.80656379256631
