19

C	-0.460082	-0.027818	-1.469326
C	0.0	0.0	0.0
Cl	0.207651	1.476064	-2.238166
H	1.089908	0.0	0.0
C	0.192179	-1.195371	-2.199062
H	1.271899	-1.18773	-2.031826
H	-0.012825	-1.119016	-3.270068
H	-0.21991	-2.140073	-1.832199
N	-1.897732	0.048486	-1.572919
H	-2.315257	-0.591837	-0.906281
H	-2.184963	-0.206141	-2.51081
N	-0.420611	-1.308332	0.611436
O	-1.611139	-1.430741	0.936569
O	0.419572	-2.193075	0.738216
C	-0.555379	1.134283	0.835001
H	-0.15076	2.071769	0.455202
H	-0.220167	1.016666	1.868007
H	-1.64335	1.168454	0.802758
Br	3.559081	0.0	0.0
