19

C	-0.300882	-0.01932	-1.501314
C	0.0	0.0	0.0
Cl	-2.104022	-0.01234	-1.818853
H	1.093746	0.0	0.0
C	0.262561	1.244195	-2.140645
H	1.330936	1.291561	-1.9091
H	-0.233976	2.149246	-1.790954
H	0.130097	1.183178	-3.223293
N	0.232558	-1.235211	-2.05099
H	0.306494	-1.144025	-3.058364
H	1.162621	-1.388893	-1.661486
N	-0.461209	-1.273285	0.63241
O	-1.575841	-1.27253	1.162053
O	0.290774	-2.244493	0.586168
C	-0.535364	1.183145	0.773367
H	-1.614604	1.291144	0.653646
H	-0.313612	1.047893	1.833858
H	-0.027835	2.091576	0.444365
Br	3.502958	0.0	0.0
