19

C	-0.325374	-0.017504	-1.496504
C	0.0	0.0	0.0
Cl	-2.132713	0.061491	-1.779935
H	1.09377	0.0	0.0
C	0.279074	1.216137	-2.157342
H	-0.171079	2.144732	-1.804959
H	0.121134	1.152281	-3.237669
H	1.353243	1.219872	-1.944933
N	0.143355	-1.258281	-2.05092
H	1.067798	-1.459226	-1.675295
H	0.206332	-1.176182	-3.058748
N	-0.455262	-1.27172	0.641206
O	-1.557138	-1.268847	1.195619
O	0.293483	-2.24325	0.577853
C	-0.518843	1.184231	0.784056
H	-0.04348	2.096189	0.42114
H	-0.238301	1.065724	1.832252
H	-1.602409	1.272842	0.716794
Br	3.506476	0.0	0.0
