19

C	-0.398857	0.025374	-1.495354
C	0.0	0.0	0.0
Cl	-0.135621	-1.637811	-2.156022
H	1.092098	0.0	0.0
C	-1.840895	0.399047	-1.775107
H	-2.037221	1.421502	-1.442585
H	-2.517899	-0.274616	-1.255119
H	-2.012012	0.342918	-2.850442
N	0.485966	0.898488	-2.230408
H	1.450693	0.704694	-1.960204
H	0.281877	1.859274	-1.981334
N	-0.52173	-1.201759	0.707671
O	-1.74684	-1.265827	0.867596
O	0.275854	-2.04797	1.096486
C	-0.464725	1.228785	0.766746
H	-0.025808	1.203354	1.76693
H	-1.550578	1.275018	0.853875
H	-0.090685	2.13054	0.278087
Br	3.530132	0.0	0.0
