19

C	-0.391522	0.030434	-1.498716
C	0.0	0.0	0.0
Cl	-0.179405	-1.646552	-2.148983
H	1.092081	0.0	0.0
C	-1.818772	0.452475	-1.787483
H	-2.523307	-0.186689	-1.257701
H	-1.988949	0.387021	-2.862705
H	-1.974913	1.488983	-1.47164
N	0.527083	0.869206	-2.235636
H	0.357681	1.838875	-1.990097
H	1.484827	0.643691	-1.961247
N	-0.531721	-1.198024	0.705786
O	0.258986	-2.041444	1.113217
O	-1.759269	-1.261023	0.843828
C	-0.460941	1.232031	0.763941
H	-1.547229	1.282937	0.848305
H	-0.023404	1.206796	1.764723
H	-0.082639	2.131713	0.273568
Br	3.535254	0.0	0.0
