19

C	-0.300667	0.012199	-1.518101
C	0.0	0.0	0.0
Cl	-2.069705	-0.321918	-1.768084
H	1.094451	0.0	0.0
C	0.010076	1.387278	-2.085959
H	-0.656393	2.152167	-1.690166
H	1.046668	1.638588	-1.840922
H	-0.103711	1.333409	-3.168952
N	0.441818	-0.960109	-2.283385
H	1.427272	-0.726931	-2.156026
H	0.326137	-1.870224	-1.849723
N	-0.45582	-1.284194	0.607956
O	-1.314403	-1.245613	1.491695
O	0.0373	-2.330458	0.182757
C	-0.531284	1.171117	0.794176
H	-1.608332	1.298245	0.669236
H	-0.008938	2.075057	0.4807
H	-0.322032	1.019868	1.853088
Br	3.458289	0.0	0.0
