17
Coordinates from ORCA-job run
  C   0.29148702291814      0.38987579155219     -0.22398344556415
  C   -0.66580159789458     -0.69500986173787      0.29938116833544
  F   -0.36779880927031      0.97504541096182     -1.32119401306829
  H   -0.15418159976660     -1.22490601860209      1.11066843034603
  C   0.53180738023805      1.48381824674013      0.79462252665824
  H   0.97350326695680      1.07431270864379      1.70663263979206
  H   1.21970280555973      2.22207573916570      0.37831395129754
  H   -0.40147174991883      1.98726256217968      1.05006466909099
  C   1.57744916792741     -0.22213388885640     -0.73846419049697
  H   2.18421193092859      0.55770438771855     -1.20282170092450
  H   2.14693200631219     -0.66200992932102      0.08397838687002
  H   1.36139190206806     -0.99823670898106     -1.47030551177358
  N   -0.95665178648793     -1.65098025893875     -0.76038067865509
  H   -1.43708912295170     -1.16631842497619     -1.50978474876412
  H   -1.57114270908286     -2.37836742693545     -0.41538859575559
  C   -1.87857088026071     -0.07594377371057      0.87452284847388
  N   -2.85277722727544      0.38281144509753      1.34413826413809
