17
Coordinates from ORCA-job run
  C   0.54804801666378      0.16584223318096      0.20005508737420
  C   -0.79458962345403     -0.54432554065610      0.45606995020688
  F   1.45009835085550     -0.49698445547145      1.05857886106020
  H   -1.04683635171163     -0.35306161929169      1.51135953103574
  C   1.04524416286718     -0.01712083010799     -1.21598169875497
  H   2.04642644179885      0.40965983554204     -1.30352436317090
  H   0.38481725632336      0.49017668350021     -1.92236067593211
  H   1.07910657889992     -1.07535929613649     -1.47035167582181
  C   0.50150736118487      1.61490709225513      0.63347180473462
  H   -0.17888607457279      2.19083150773647      0.00296441911064
  H   1.50082469921928      2.04736972283244      0.55413467218351
  H   0.17468192149246      1.69414611737211      1.67309813974091
  N   -0.67643072491311     -1.96229551693583      0.13403040059613
  H   0.04516942638675     -2.35490601256926      0.72706231096408
  H   -1.54657741940191     -2.43794148588306      0.34016676177793
  C   -1.84407778856965      0.06592539061252     -0.36609951852626
  N   -2.68652623306883      0.56213617402000     -1.01567400657879
