17
Coordinates from ORCA-job run
  C   0.57935333773180      0.17703008022536      0.30713835133672
  C   -0.58924401821057     -0.82460294776239      0.33691286698404
  F   1.08706812677364      0.19024311122602      1.61361752143516
  H   -0.16013439918136     -1.80007246347193      0.58822780190269
  C   1.67974475566090     -0.31336808663614     -0.60808428777814
  H   1.30973363814075     -0.41845202037998     -1.62725150074297
  H   2.04690261424849     -1.28244100405178     -0.26196575175728
  H   2.51221217792366      0.39304509491217     -0.59224951622749
  C   0.12375037859950      1.58371743017869     -0.01853800346943
  H   0.97113743059161      2.26516604545814      0.07718778692125
  H   -0.65480516916610      1.90988314733539      0.67478451087317
  H   -0.24907652007170      1.64605382449694     -1.04289631011273
  N   -1.21224935285632     -0.92331498572142     -0.97874703700075
  H   -1.77175026124298     -1.76587196342259     -1.03090345791780
  H   -1.83900895186572     -0.14024032654015     -1.12326336717570
  C   -1.53295752350888     -0.47394579354553      1.41681139653994
  N   -2.30067626356671     -0.22182914230080      2.26921899618933
