17
Coordinates from ORCA-job run
  C   0.56929832841886      0.18816727060615      0.32578539907553
  C   -0.64253871150212     -0.76070365572747      0.38550904890119
  F   1.15797950750763      0.10817485485217      1.59679396955161
  H   -0.26408788422692     -1.71939002373912      0.77147989615331
  C   1.58574890702930     -0.32160764364923     -0.67519445536166
  H   1.20851168403916     -0.22665960232191     -1.69451902802597
  H   2.50022166586885      0.26799548601501     -0.58827365243484
  H   1.83596689743100     -1.36691541417849     -0.47319311218234
  C   0.17260925790857      1.62518493512842      0.07831995884172
  H   -0.43026350328802      1.99827368207516      0.90794860150695
  H   1.06649293952844      2.24664434331925     -0.00464639155356
  H   -0.40536134623463      1.69828431912086     -0.84340306754064
  N   -1.26631142296327     -0.86363370623699     -0.93616916964781
  H   -0.79387173391648     -1.58034857224452     -1.47322015844832
  H   -2.23674237777261     -1.13825005322018     -0.84880352826086
  C   -1.62526341836981     -0.27100363399513      1.35748990328418
  N   -2.43338878945794      0.11678741419604      2.11509578614151
