17
Coordinates from ORCA-job run
  C   0.58874321161276      0.20423519762695      0.27646372444647
  C   -0.72625050508400     -0.54654109188505      0.56753321570041
  F   1.49292399227992     -0.24912732318696      1.24099184050571
  H   -0.92489659654431     -0.39318327434852      1.63341560988196
  C   1.15624846397739     -0.14554185838363     -1.08227112569959
  H   0.45427689049963      0.10990478391161     -1.88051200872405
  H   2.08195920881749      0.40927297074434     -1.24610495119907
  H   1.38605788421269     -1.21082574350985     -1.12066453050525
  C   0.42999901658498      1.69757992447785      0.48510336224809
  H   -0.20956937962061      2.14567070959813     -0.27684513333259
  H   1.41447557734340      2.16693047698674      0.43714387877030
  H   0.00297595190381      1.90333927368918      1.47003141989704
  N   -0.59127511225920     -1.97847769812617      0.33820449181966
  H   -0.71486093508574     -2.19329200525761     -0.64386558044050
  H   -1.30624417809449     -2.47896644401995      0.85098828575077
  C   -1.83104614192793      0.06371877308679     -0.19805362664099
  N   -2.70451734861580      0.49730332859614     -0.85355887247838
