17
Coordinates from ORCA-job run
  C   0.57151307379051      0.20180221573999      0.31323380991983
  C   -0.62692927369756     -0.76077403733267      0.41053912290406
  F   1.18072496198075      0.15414031358760      1.57618522220823
  H   -0.23046895781410     -1.70635720778859      0.81069826550660
  C   1.57901187573717     -0.31431827567075     -0.69358139746509
  H   1.84288904412757     -1.35363594643664     -0.47850376890035
  H   1.18668763717070     -0.23946905557115     -1.70886124102700
  H   2.48852967264282      0.28574881046779     -0.62874169114281
  C   0.15221969095285      1.62856453763365      0.04414758535487
  H   -0.44518751124231      1.67527093562469     -0.86676721725310
  H   -0.43835898853347      2.01122954833216      0.87815938773748
  H   1.03599855346759      2.25939811886694     -0.07000495694465
  N   -1.26847757208915     -0.89899895702528     -0.89940721542971
  H   -2.23166923128058     -1.19166157392594     -0.79176947365821
  H   -0.79023398845712     -1.61633074818792     -1.43058322795043
  C   -1.60212119664361     -0.26357871680668      1.38626426368718
  N   -2.40412779011208      0.12897003849279      2.14799253245311
