17
Coordinates from ORCA-job run
  C   0.52897109312533      0.15183235894341      0.32108783814023
  C   -0.65538947520506     -0.83632097922500      0.43442686173167
  F   1.12786320365861      0.14392624489334      1.58950072293340
  H   -0.22904021177198     -1.77941789779556      0.79607126443524
  C   1.56551718414977     -0.35542352045738     -0.66172525924892
  H   1.84373132466813     -1.38659790837468     -0.42946864488574
  H   2.46147410731421      0.26349493831593     -0.58630287619907
  H   1.20381918979531     -0.30429351341393     -1.69019531477580
  C   0.09685765066081      1.57371422720024      0.03247361187919
  H   0.97443303885227      2.22253435148597      0.00718415108552
  H   -0.40652619113814      1.64795471344131     -0.93418838193377
  H   -0.57512014916950      1.93477218308057      0.81268540638997
  N   -1.39943891750365     -1.12174974540997     -0.78164268600774
  H   -1.80071116518183     -0.27992997030174     -1.17405522926371
  H   -0.80387121965401     -1.56103193326797     -1.47056467445886
  C   -1.59098787712651     -0.36509318196098      1.46617631344710
  N   -2.34058158547376      0.05062963284643      2.26753689673131
