17
Coordinates from ORCA-job run
  C   0.53188692265964      0.17205707190924      0.30599871911952
  C   -0.63083376294404     -0.83392341874888      0.47297020491588
  F   1.15339235326349      0.21664117831868      1.56276030640457
  H   -0.17984596093478     -1.75662791632704      0.85676971655193
  C   1.56042235172936     -0.34781735633096     -0.67869949819183
  H   1.17932130400958     -0.33865418893515     -1.70136394603840
  H   2.44498963392566      0.29052672935247     -0.64114059954046
  H   1.86330933795943     -1.36498095340506     -0.41743647533801
  C   0.06778000174584      1.57545856775633     -0.02032251385775
  H   0.93242758045098      2.23923734370406     -0.08004409361048
  H   -0.45184188615729      1.60954402217420     -0.98050568396673
  H   -0.59867033932756      1.94842271043842      0.75898831928436
  N   -1.39188602049951     -1.17184271652258     -0.71882112274938
  H   -1.82231733386575     -0.35136891192869     -1.12516120490128
  H   -0.80028877831096     -1.61557199054017     -1.40832797557897
  C   -1.55679154623975     -0.34808941254761      1.50676715216708
  N   -2.30005385746434      0.07798924163273      2.30856869532994
