17
Coordinates from ORCA-job run
  C   0.56699815742481      0.20894911761149      0.31764290223732
  C   -0.63046186949994     -0.75477056651928      0.41731620021271
  F   1.15957138001385      0.18657695122496      1.58924974118251
  H   -0.23764783646477     -1.69085247211096      0.84230626358288
  C   1.58872397754116     -0.32338049075399     -0.66600786191722
  H   1.85528468883555     -1.35641140798875     -0.42537506613840
  H   1.20755237810674     -0.27259457674793     -1.68703520323167
  H   2.49449620205072      0.28272733973714     -0.60439089439963
  C   0.14855125650195      1.62945634370498      0.01652225952168
  H   1.03286774522442      2.26044320765187     -0.09283755087042
  H   -0.43256591354686      1.65867921486320     -0.90574490212482
  H   -0.45803753500974      2.02531147662855      0.83280105743742
  N   -1.25256809586289     -0.92104743382953     -0.89888223983385
  H   -0.76631490032494     -1.64829702399490     -1.40878419387033
  H   -2.21723375596896     -1.21177047188586     -0.79931560396460
  C   -1.62180480583449     -0.23986402555354      1.36677783179022
  N   -2.43741107318662      0.16784481796255      2.10575726038620
