17
Coordinates from ORCA-job run
  C   0.21911904012768      0.38334963449044     -0.20350254654209
  C   -0.74990177312972     -0.68103030322874      0.36035597608190
  F   -0.46007488472901      0.98583432140750     -1.27630292362285
  H   -0.23259631224727     -1.20718144594846      1.17146758919127
  C   0.53785266369228      1.46708103246503      0.80468304495083
  H   -0.37050761978713      1.98687567888819      1.11091611414222
  H   1.01697716743893      1.04352465952738      1.69115740270197
  H   1.21790825855612      2.19501761269078      0.35811433365032
  C   1.46875809888862     -0.25839624628224     -0.77229309794652
  H   2.11071472132211      0.51302544990360     -1.20108555853786
  H   1.21705645599226     -0.96241012745564     -1.56612194428360
  H   2.02895519392473     -0.78180577904011      0.00667965680338
  N   -1.22176062322664     -1.67479820447438     -0.59185563421462
  H   -1.53270186465400     -1.20799463929493     -1.43564804141305
  H   -0.47880643355919     -2.31757795208422     -0.83106299073952
  C   -1.92295188631621     -0.01689957472538      0.95327664849437
  N   -2.84904020229357      0.53138588316118      1.42122197128384
