17
Coordinates from ORCA-job run
  C   0.45314408817863      0.01731374362212     -0.37725095361172
  C   -0.61985442501347     -0.91910643116971      0.22561285177796
  F   0.66501885585188     -0.49661899009970     -1.67160494053187
  H   -0.16800110086447     -1.91793263319981      0.25942790177660
  C   -0.02437185105885      1.44418208160750     -0.53222960229880
  H   -0.24497537659253      1.89012263003548      0.44001395413891
  H   -0.91896018328773      1.48649239471552     -1.15536480662791
  H   0.75105496625632      2.03732601353468     -1.02042494001121
  C   1.76494984418311     -0.08720507328315      0.37017607838400
  H   1.67366172721115      0.31253126167638      1.38197368761411
  H   2.53430593851043      0.47718238575265     -0.16044193053849
  H   2.08589151454844     -1.12986266358427      0.43040922725652
  N   -1.86412985878538     -1.03565003212765     -0.51882434139890
  H   -1.64215966380769     -1.24186170142144     -1.48562515326552
  H   -2.38545679906144     -0.16838724101947     -0.48714125540956
  C   -0.90645006749755     -0.51066915454764      1.60464540338808
  N   -1.15466760877084     -0.15585659049147      2.69564881935779
