16

C	-0.3359	0.035656	-1.492899
C	0.0	0.0	0.0
F	0.053419	-1.215283	-1.996824
H	1.087848	0.0	0.0
C	-1.764155	0.188526	-1.838477
N	-2.873594	0.329868	-2.19641
N	0.40837	1.107025	-2.02208
H	1.39095	1.023905	-1.750409
H	0.312212	1.168751	-3.027749
N	-0.566193	-1.158882	0.730197
O	-0.119777	-1.323165	1.86317
O	-1.440733	-1.830197	0.184698
N	-0.51693	1.224461	0.679641
O	-1.724181	1.22633	0.934796
O	0.281738	2.122815	0.912715
Br	3.348017	0.0	0.0
