16

C	-0.499304	-0.002992	-1.436721
C	0.0	0.0	0.0
F	-0.105451	-1.247223	-1.94302
H	1.089486	0.0	0.0
C	-1.972437	0.047055	-1.553434
N	-3.128479	0.197617	-1.70179
N	0.096007	1.046911	-2.156637
H	-0.489737	1.514947	-2.82745
H	0.688538	1.6702	-1.629346
N	-0.453346	-1.171633	0.795912
O	0.313044	-1.492823	1.703229
O	-1.482887	-1.760639	0.468887
N	-0.472318	1.220654	0.706926
O	-1.492084	1.141669	1.394311
O	0.240458	2.216503	0.575909
Br	2.749035	0.0	0.0
