16

C	-0.538289	0.004454	-1.436579
C	0.0	0.0	0.0
F	0.132869	0.981052	-2.131947
H	1.088733	0.0	0.0
C	-0.206969	-1.283436	-2.103789
N	-0.039097	-2.290591	-2.68579
N	-1.928547	0.345668	-1.479313
H	-2.245383	0.342942	-2.441616
H	-2.458034	-0.336457	-0.947911
N	-0.485232	-1.163956	0.790655
O	0.11774	-1.391667	1.830951
O	-1.463471	-1.791003	0.372682
N	-0.497834	1.230459	0.695483
O	-1.407309	1.096945	1.511652
O	0.03555	2.276781	0.358783
Br	3.326969	0.0	0.0
