16

C	-0.401609	-0.090411	-1.470095
C	0.0	0.0	0.0
F	-1.758924	-0.336011	-1.606774
H	1.091009	0.0	0.0
C	-0.142862	1.188441	-2.179489
N	0.082056	2.106115	-2.878194
N	0.323119	-1.187472	-2.021993
H	0.323386	-1.137821	-3.033153
H	1.285895	-1.19204	-1.682859
N	-0.513665	-1.207839	0.717821
O	-1.630915	-1.117166	1.222152
O	0.210478	-2.194446	0.717097
N	-0.524186	1.184303	0.7254
O	-1.261313	1.966658	0.128548
O	-0.164652	1.273792	1.894544
Br	3.307941	0.0	0.0
