16

C	-0.536593	-0.029277	-1.436886
C	0.0	0.0	0.0
F	-0.182304	1.214885	-1.979369
H	1.088064	0.0	0.0
C	0.159814	-1.042324	-2.254169
N	0.658999	-1.779263	-3.019714
N	-1.925282	-0.288327	-1.490595
H	-2.425392	0.435209	-0.990137
H	-2.243253	-0.357551	-2.44822
N	-0.482265	-1.20992	0.73105
O	-0.064031	-2.274057	0.294571
O	-1.247064	-1.055567	1.678813
N	-0.477901	1.19609	0.755327
O	0.233384	1.552426	1.685417
O	-1.548197	1.7161	0.432075
Br	3.317288	0.0	0.0
