16

C	-0.523489	7.5e-05	-1.424894
C	0.0	0.0	0.0
F	0.003415	-1.163271	-2.007742
H	1.089369	0.0	0.0
C	-1.990752	-0.085091	-1.556879
N	-3.146691	-0.102914	-1.762439
N	-0.092755	1.187806	-2.052812
H	0.917976	1.268952	-2.059471
H	-0.478013	1.300698	-2.980865
N	-0.457017	-1.152305	0.818121
O	-1.321622	-1.908011	0.371235
O	0.175985	-1.308084	1.862238
N	-0.461576	1.223929	0.716316
O	0.362147	2.119152	0.863071
O	-1.630387	1.23014	1.105575
Br	2.751173	0.0	0.0
