16

C	0.0	0.0	0.0
C	-0.525044	-0.236256	-1.413095
Cl	1.803578	0.0	0.0
H	-0.093805	-1.182985	-1.759726
H	-1.612524	-0.333382	-1.225582
C	-0.397605	1.3272	0.488093
N	-0.588484	2.412731	0.894066
C	-0.507603	-1.076267	0.947299
H	-1.604712	-0.96265	0.88157
H	-0.126664	-0.917924	1.959716
H	-0.173088	-2.053388	0.585609
C	-0.233874	0.889959	-2.392566
H	-0.775243	1.791845	-2.097246
H	0.83315	1.127475	-2.453496
H	-0.576023	0.612253	-3.394066
F	-2.867497	0.0	0.0
