16

C	0.0	0.0	0.0
C	-0.45637	-0.171987	-1.45
Cl	1.803872	0.0	0.0
H	-1.534906	-0.354046	-1.337949
H	0.067527	-1.053817	-1.839693
C	-0.428475	1.281147	0.567698
N	-0.599384	2.337855	1.052032
C	-0.448573	-1.165945	0.869092
H	-0.039634	-2.090258	0.450807
H	-1.545521	-1.121817	0.818096
H	-0.070198	-1.047114	1.888558
C	-0.196708	1.037999	-2.33585
H	0.854697	1.341921	-2.335913
H	-0.479771	0.812422	-3.368326
H	-0.804601	1.880232	-2.001319
F	-2.754625	0.0	0.0
