16

C	0.0	0.0	0.0
C	-0.526003	-0.305328	-1.400952
Cl	1.803688	0.0	0.0
H	-0.085616	-1.262916	-1.705191
H	-1.610474	-0.403907	-1.209136
C	-0.399843	1.349034	0.423038
N	-0.587768	2.450957	0.784024
C	-0.507808	-1.026451	0.999389
H	-0.13052	-0.8145	2.002671
H	-1.604973	-0.921519	0.92639
H	-0.172326	-2.021101	0.691383
C	-0.249443	0.781257	-2.429118
H	-0.829495	1.674824	-2.18961
H	0.808201	1.055886	-2.480484
H	-0.55872	0.444517	-3.423145
F	-2.868184	0.0	0.0
