11

C	-0.041554	0.008917	0.009802
C	-0.586546	0.189207	-1.40012
Cl	1.768786	-0.151249	0.071956
H	-0.327102	1.170853	-1.803892
H	-0.480101	-0.889854	0.432011
H	-1.694833	0.088883	-1.114052
C	-0.421301	1.145283	0.844881
N	-0.590384	2.096164	1.512391
C	-0.157561	-0.855152	-2.309231
N	0.158912	-1.696836	-3.066455
F	-2.587104	-0.233031	0.110717
