11

C	-0.034895	0.006976	0.010933
C	-0.567744	-0.22062	-1.396746
Cl	1.774975	-0.12379	0.130813
H	-1.678428	-0.239097	-1.102901
H	-0.476582	-0.736936	0.666586
H	-0.305431	0.607473	-2.059642
C	-0.422398	1.332106	0.48707
N	-0.598397	2.433034	0.854909
C	-0.130374	-1.47822	-1.969685
N	0.193572	-2.498551	-2.45544
F	-2.581112	-0.205012	0.155441
