11

C	-0.034206	0.006964	0.008396
C	-0.565249	0.160544	-1.410026
Cl	1.775562	-0.15188	0.0911
H	-1.676072	0.065906	-1.133276
H	-0.476796	-0.883737	0.443234
H	-0.301741	1.13448	-1.829547
C	-0.421769	1.159019	0.817919
N	-0.597035	2.122839	1.464964
C	-0.127423	-0.900739	-2.294997
N	0.19672	-1.756871	-3.03251
F	-2.580013	-0.233062	0.090083
