16

C	0.0	0.0	0.0
C	-0.494096	-0.003315	-1.459687
Cl	1.76955	0.0	0.0
H	-1.573011	0.206796	-1.412188
C	-0.437729	1.152925	0.780068
N	-0.598203	2.082623	1.482769
N	-0.38977	-1.280242	0.812479
O	-0.196266	-2.354598	0.275426
O	-0.735103	-1.083685	1.964725
N	-0.216295	-1.181047	-2.162913
H	0.775246	-1.344325	-2.272921
H	-0.664698	-1.166447	-3.067023
N	0.160354	1.24677	-2.128163
O	-0.090542	2.346966	-1.649541
O	0.858504	1.044276	-3.120537
Br	-3.45916	0.0	0.0
