17
Coordinates from ORCA-job run
  C   0.13481343278917      0.59771594089160     -0.56148435213926
  C   0.66258512679551     -0.69006610738997      0.07517236680285
  F   1.15541562612356      1.18036538243886     -1.27213118070988
  H   0.80255236848669     -1.37073717422052     -0.77386895475050
  N   -0.21209056028314      1.62955979110739      0.51445886661290
  O   0.44601343248689      1.59527343967038      1.55006262106966
  O   -1.08016473626818      2.45216162906464      0.23827653514059
  C   -1.04437698327397      0.39612409255676     -1.47507118882533
  H   -1.92487718974527      0.06216497772780     -0.92740126288437
  H   -0.78018690547436     -0.34560740830201     -2.23057308698962
  H   -1.28141934924401      1.33793577456349     -1.96543297349058
  C   -0.30799282715627     -1.33771023336526      1.06852832537211
  H   -0.44572680438065     -0.70635068070803      1.94547469702879
  H   -1.27555522307344     -1.52769387009561      0.60162604909789
  H   0.09807062285439     -2.29432619040751      1.39963650538899
  C   1.98997259697080     -0.51281454068396      0.67028716818483
  N   3.06196737239229     -0.46499482284806      1.14543986509096
