17
Coordinates from ORCA-job run
  C   0.02496613276262      0.53378391290951     -0.56844097516051
  C   0.72353343599826     -0.51034470190467      0.30879955986326
  F   0.39122338788525      0.28503808071569     -1.86607281518247
  H   1.79304327813735     -0.40205494811050      0.09789911906275
  N   0.66137383776056      1.88218530467152     -0.22463058074544
  O   1.84928846331000      1.99152238988388     -0.50798417376635
  O   -0.04256444055313      2.72617610889910      0.32054745426840
  C   -1.47113299765546      0.60503525062658     -0.46643480926884
  H   -1.89174126302695     -0.33066338565065     -0.83604378387732
  H   -1.78931985201622      0.77159282977261      0.56153342138909
  H   -1.84022456666373      1.42362101059370     -1.08387207249712
  C   0.27545256616780     -1.93760217710343     -0.01806118855514
  H   0.38874690863271     -2.12399991283873     -1.08635395104843
  H   0.89758966421261     -2.64906639760973      0.52664375841019
  H   -0.76252750256552     -2.10534298359627      0.27105612950283
  C   0.49894402415340     -0.19491083436987      1.71934118852164
  N   0.29234892346045      0.03603045311125      2.85207371908346
