16

C	-0.274577	-0.090784	-1.511065
C	0.0	0.0	0.0
Cl	-2.004164	-0.559744	-1.850073
H	1.098912	0.0	0.0
C	-0.112489	1.223508	-2.161019
N	0.062688	2.250011	-2.707242
N	0.591221	-1.10375	-2.041083
H	0.601966	-1.074535	-3.053448
H	1.53713	-0.939761	-1.683888
C	-0.45229	-1.243909	0.76416
H	-0.114467	-2.130878	0.228398
H	-1.537131	-1.277372	0.878145
H	0.014383	-1.23349	1.750943
C	-0.541372	1.214454	0.587794
N	-0.994688	2.165943	1.107292
Cl	3.268139	0.0	0.0
