16

C	-0.493639	0.011806	-1.451732
C	0.0	0.0	0.0
Cl	0.131599	1.463506	-2.293356
H	1.095699	0.0	0.0
C	0.040137	-1.164562	-2.168441
N	0.347834	-2.158459	-2.716078
N	-1.93966	0.069139	-1.510828
H	-2.242402	0.083347	-2.477127
H	-2.320296	-0.758487	-1.068624
C	-0.433614	-1.263113	0.755204
H	-1.514672	-1.312455	0.917915
H	-0.09589	-2.153659	0.221113
H	0.057646	-1.261215	1.729074
C	-0.486762	1.190148	0.692402
N	-0.870525	2.116387	1.303971
Cl	3.273519	0.0	0.0
