14

C	-0.391099	0.114174	-1.434788
C	0.0	0.0	0.0
Cl	-2.16746	0.267518	-1.728075
H	1.096017	0.0	0.0
H	0.07807	0.960911	-1.931957
H	-0.367571	-0.942653	0.409902
N	0.044874	-1.090555	-2.230037
O	-0.181875	-2.198176	-1.757173
O	0.573384	-0.867158	-3.316342
C	-0.450357	1.19976	0.820828
H	-1.536409	1.266056	0.929723
H	0.001115	1.135383	1.813464
H	-0.088792	2.128049	0.368282
H	2.898708	0.0	0.0
