14

C	-0.576807	-0.038399	-1.395499
C	0.0	0.0	0.0
Cl	-0.081021	-1.451832	-2.331157
H	1.092228	0.0	0.0
H	-1.668712	-0.024852	-1.392097
H	-0.336747	0.945353	0.439041
N	-0.218981	1.240458	-2.138573
O	0.589844	1.228682	-3.051567
O	-0.821819	2.229795	-1.720933
C	-0.489957	-1.170782	0.841829
H	-0.098092	-2.112904	0.454733
H	-1.584075	-1.237724	0.887498
H	-0.107363	-1.058102	1.858778
H	2.970511	0.0	0.0
