14

C	-0.481107	-0.02188	-1.416978
C	0.0	0.0	0.0
Cl	0.288122	1.225166	-2.411177
H	1.09186	0.0	0.0
H	-0.321781	-0.98754	-1.892673
H	-0.314264	0.941164	0.465839
N	-1.97279	0.174335	-1.405484
O	-2.650422	-0.85144	-1.497544
O	-2.412054	1.306382	-1.210083
C	-0.486734	-1.215554	0.778284
H	-0.204502	-2.131163	0.25169
H	0.025176	-1.233953	1.746939
H	-1.569888	-1.245384	0.949748
H	2.940456	0.0	0.0
