14

C	-0.441945	0.054622	-1.434693
C	0.0	0.0	0.0
Cl	-2.181198	0.474406	-1.645617
H	1.093676	0.0	0.0
H	0.131244	0.791578	-1.993177
H	-0.289084	0.967684	0.427167
N	-0.213086	-1.241438	-2.171613
O	-0.904569	-2.209922	-1.867009
O	0.670337	-1.230939	-3.025855
C	-0.548652	-1.137362	0.845235
H	-0.134242	-2.095234	0.529893
H	-0.236281	-0.974553	1.879848
H	-1.639495	-1.207042	0.814896
H	2.918979	0.0	0.0
