13
Coordinates from ORCA-job run
  C   -0.60054307806345      0.33985314067334     -0.03093365716318
  C   0.71100061393882      0.42971142666751     -0.32488764839410
  H   1.02365482786094      1.40390231362191     -0.69691490638133
  N   -1.58200184076731      1.30118355764806     -0.22743787238692
  H   -1.20326690015635      2.22441016095743     -0.37373380610121
  H   -2.28882991076582      1.28316618628320      0.49355515462800
  N   -1.17374038197759     -0.89850727774818      0.52240800432750
  O   -2.19037455102453     -0.77418237026163      1.20880134131247
  O   -0.61020003202384     -1.96335884133061      0.28222404693504
  C   1.76857646341405     -0.62993374103492     -0.22791524640605
  H   2.75468859374542     -0.16407295352524     -0.25857055868494
  H   1.70113205964895     -1.34013765630941     -1.05591278271633
  H   1.68990413617070     -1.21303394564146      0.69031793103106
