13
Coordinates from ORCA-job run
  C   -0.56865963629346      0.38467848276702     -0.07973153983238
  C   0.72971718444239      0.43138807962128      0.27594271353289
  H   1.05978996960133      1.39898018970950      0.65030738266694
  N   -1.48204628686484      1.42909739918787     -0.10251980997784
  H   -2.41418673868865      1.13249911825219      0.14824894190421
  H   -1.17485563353393      2.22904276799449      0.42948790097747
  N   -1.17959954699091     -0.86448849011032     -0.56489393264483
  O   -2.39397711072659     -0.98532742625494     -0.38887128091141
  O   -0.45673330417099     -1.70401792828719     -1.09557845663589
  C   1.76339976881500     -0.65319457118692      0.19813438105969
  H   1.37885780432397     -1.61839269800312      0.52952653579908
  H   2.12008574617725     -0.79360002774074     -0.82534765801765
  H   2.61720778390943     -0.38766489594912      0.82329482207973
