13
Coordinates from ORCA-job run
  C   -0.55568706880095      0.40348677067709     -0.07598601797611
  C   0.73662159649670      0.40021807779585      0.30461106924252
  H   1.08593764880258      1.34386556000878      0.72024969517243
  N   -1.43830361168827      1.47384352482478     -0.07552826376771
  H   -1.12150102824077      2.24447298243800      0.49257235145631
  H   -2.38448044627537      1.19504480033704      0.14015344668627
  N   -1.19254701898090     -0.80892294332861     -0.61774787417580
  O   -0.48266470848708     -1.65300763796474     -1.15858564595401
  O   -2.41414788907870     -0.89705402407632     -0.47536793630280
  C   1.74080106595099     -0.71013188854264      0.20670965921627
  H   2.10828810336184     -0.82796581771430     -0.81582328340789
  H   1.32533054181269     -1.67452938582602      0.50112273056180
  H   2.59235281512723     -0.48832001862890      0.85162006924873
