13
Coordinates from ORCA-job run
  C   -0.57540914388675     -0.07228698263073      0.08069538783374
  C   0.61963260937643     -0.65976840592228     -0.09937551211388
  H   0.67565962506892     -1.73638641064638     -0.00526640765546
  N   -0.86725921948605      1.27667817085562     -0.00111685286997
  H   -1.80038759378526      1.48828762296091      0.32023154422357
  H   -0.16613162442175      1.86872443390932      0.41657890621443
  N   -1.76299029267575     -0.92066090546925      0.33840197105270
  O   -1.64256189020659     -2.13715959532393      0.26051617544222
  O   -2.81074091927700     -0.33133775042207      0.61596380706927
  C   1.84018598455305      0.14601407534779     -0.41855130895657
  H   2.30065194188059      0.56759919848633      0.48312909913969
  H   2.59661501083564     -0.46886974799863     -0.90737207563488
  H   1.59373551202451      0.97816629685329     -1.08483473374487
