13
Coordinates from ORCA-job run
  C   -0.57291105902935     -0.07240210833402      0.09968778355933
  C   0.62835750347138     -0.65557326067715     -0.05038587815962
  H   0.66593912607764     -1.73620334127659     -0.09455742919299
  N   -0.84466463469204      1.28032584804997      0.18579755867107
  H   -1.83344406978789      1.47770951920784      0.14012207933483
  H   -0.30320438944105      1.84378827918476     -0.45123130587173
  N   -1.77334176998227     -0.92790397906902      0.25550979086882
  O   -2.86379782066978     -0.35085287799811      0.25849637414792
  O   -1.62000868814363     -2.13755505773687      0.37249178255437
  C   1.88005947502655      0.15837890018830     -0.15761518433539
  H   1.83351259926508      1.03443537435650      0.49614899245863
  H   2.05045831969675      0.51535024066526     -1.18050126912453
  H   2.75304540820860     -0.43049753656085      0.12603670508930
