13
Coordinates from ORCA-job run
  C   -0.57930634547705     -0.07804026162260      0.03434436149182
  C   0.64010732257758     -0.50047594645531      0.40902445238168
  H   0.70761125737183     -1.42436063154176      0.96852345323594
  N   -0.88890585322581      1.06799204819135     -0.67438100953902
  H   -1.85667564849728      1.09397938491147     -0.95982198224203
  H   -0.25194941970488      1.26049504402157     -1.43180760574095
  N   -1.77005624566944     -0.85517202411814      0.45307786775578
  O   -2.85424063329580     -0.49508746692822     -0.01275095637893
  O   -1.61612538058072     -1.79275462328611      1.22624600698197
  C   1.87199495214233      0.27694539751401      0.06455186340988
  H   2.68430130508447      0.04559555964303      0.75449624668099
  H   1.68018008233424      1.35302059672868      0.11220544181489
  H   2.23206460694054      0.04786292294202     -0.94570813985201
