13
Coordinates from ORCA-job run
  C   -0.57274717696959     -0.02733897047801      0.11815126268834
  C   0.61918314012353     -0.64602326556840      0.16602982791545
  H   0.64163953802112     -1.68166024196063      0.47906898755313
  N   -0.82465998103714      1.28267489343283     -0.24420143738355
  H   -1.81108362034460      1.47067315673720     -0.34594886321120
  H   -0.28234532695842      1.59662930820968     -1.03398223272813
  N   -1.78383393575644     -0.76517359806031      0.54919332809737
  O   -1.64685719999245     -1.87245920638933      1.05483238501591
  O   -2.86599238550056     -0.20130138768868      0.36729930128211
  C   1.88097997365155      0.06931324445936     -0.20409314607812
  H   2.74794917940611     -0.40589543895514      0.25616599486726
  H   2.04991777041934      0.06834852743156     -1.28773618760400
  H   1.84885002493755      1.11221297882987      0.12522077958542
