13
Coordinates from ORCA-job run
  C   -0.51561122857588      0.43435747702650     -0.05088665403366
  C   0.82583167502120      0.44329363915726     -0.01887150948577
  H   1.23896259751404      1.44641369872930     -0.08443403357246
  N   -1.29452525725685      1.60110784731786     -0.14083104308398
  H   -2.05882605846639      1.45736520553944     -0.78913045788797
  H   -1.68968590673159      1.84403149398439      0.75979391901241
  N   -1.26445819854440     -0.85182238895913     -0.05964571704979
  O   -2.38293747095632     -0.82556529238208     -0.57526412543578
  O   -0.73517208801831     -1.84843385134823      0.42742725006489
  C   1.78280238488853     -0.70154616065183      0.10288580742211
  H   1.49727599417806     -1.54446254935259     -0.52672028941010
  H   1.81212892516238     -1.07820488366983      1.12826328093635
  H   2.78621463178553     -0.37553423539104     -0.17258642747624
