13
Coordinates from ORCA-job run
  C   -0.56775079091883     -0.04861182471043      0.13491587564828
  C   0.65496422209055     -0.60325816456260      0.19043310802498
  H   0.73758727928774     -1.61413234968690      0.56779922455059
  N   -0.89320285438076      1.22175536649268     -0.30288233203779
  H   -0.38547482727816      1.50934656696284     -1.12509397846159
  H   -1.88989659530792      1.35415603520956     -0.39146615646099
  N   -1.72972243979827     -0.81470144715172      0.64469507966601
  O   -1.52556899976935     -1.88043224857706      1.21300549093132
  O   -2.84249846948281     -0.31487568868561      0.46031783396786
  C   1.86918934891677      0.14849901164260     -0.25858115908936
  H   2.77096983728358     -0.25710935366646      0.20130013837034
  H   1.79470882226397      1.20612120329855      0.01161226888869
  H   2.00769546709349      0.09224289343457     -1.34505539399832
