16
Coordinates from ORCA-job run
  C   -0.58572415702099      0.14666585674205      0.56316747515388
  C   0.65516700947979      0.35149099884192     -0.33560388835477
  Br  -0.68576845108586      1.62739599663177      1.86556258044920
  H   0.47291220297991      1.28726109435887     -0.88676197348857
  C   -0.44170802662875     -1.09624959197814      1.31532894182198
  N   -0.35802026687225     -2.13092882992433      1.86615521289259
  C   -1.87850388212943      0.14730493320956     -0.24290699686331
  H   -2.73863529593102      0.02759835932787      0.41646839400491
  H   -1.84170439229066     -0.67105407222993     -0.96116235867134
  H   -1.97423129699071      1.09391453076198     -0.77895888360179
  N   0.67264860449131     -0.73160541752933     -1.29639120789857
  H   1.14040444043129     -1.52872266890706     -0.87677397225100
  H   1.17604691316513     -0.46415306799347     -2.13209711804828
  N   1.86305974115042      0.35366525702283      0.47271484645117
  H   1.85770699877618      1.11292126524498      1.14320379931907
  H   2.66634985847564      0.47449535642042     -0.13294485091517
