16
Coordinates from ORCA-job run
  C   -0.57441756414269     -0.21594716345022      0.53777739089709
  C   0.65654229567933     -0.14787746324100     -0.39426226892090
  Br  -0.07956673402021      0.33678196972678      2.35807909257962
  H   0.31448010441057     -0.62027073832817     -1.32980581379182
  C   -1.02826884637135     -1.60215957755114      0.61277010571283
  N   -1.44870083363089     -2.69944323853077      0.61728368233329
  C   -1.70339121142527      0.68879775828655      0.05841668863870
  H   -1.97223311362217      0.42165656230759     -0.96919384524239
  H   -1.37779085023558      1.72822720794266      0.09856552954648
  H   -2.58483082854979      0.57099866532076      0.68881448597406
  N   1.70579932118792     -0.97882318817003      0.12984573335624
  H   2.14196167712275     -0.53210295893712      0.92773751624451
  H   2.40633726317769     -1.16916438914502     -0.57475480587064
  N   1.04564651799925      1.24748306552892     -0.58022273602725
  H   2.01198037584081      1.28059852350782     -0.87948620217572
  H   0.48645242657961      1.69124496473239     -1.29956455325412
