16
Coordinates from ORCA-job run
  C   -0.54816611783809     -0.03456614291698      0.72247335977800
  C   0.87675040575152      0.08237416759968      0.10976117669847
  Br  -0.61523325124449      1.08996159097477      2.32693089004596
  H   1.58656534665932     -0.05598022633453      0.93697166240734
  C   -0.76654855499517     -1.40899730232504      1.16516591131035
  N   -0.90501306871997     -2.53630596574073      1.46996120433807
  C   -1.63534733435686      0.40668112964042     -0.24659361798252
  H   -1.56949318460249     -0.20078377922477     -1.15148047595722
  H   -1.48281719005449      1.45743408627578     -0.49246649089190
  H   -2.62123390230629      0.28602798094008      0.20314554676584
  N   1.06143453657616      1.40720757414517     -0.42708357246339
  H   2.01644222528099      1.71913391888899     -0.32748864344374
  H   0.80386165847080      1.41666048369398     -1.40625319884923
  N   0.98494180866652     -0.92739180502531     -0.94030776142312
  H   1.89192740936595     -0.83725740446536     -1.38395381371774
  H   0.92292921334661     -1.86519830612614     -0.55778217661517
