15

C	-0.427341	-0.076109	-1.464839
C	0.0	0.0	0.0
F	-0.30315	1.232879	-1.97382
H	1.087496	0.0	0.0
H	-0.388434	-0.875229	0.522153
N	0.460064	-0.889504	-2.237969
H	1.418951	-0.66873	-1.954895
H	0.28164	-1.856071	-1.996157
N	-1.764899	-0.548225	-1.617856
H	-2.042377	-0.396401	-2.580736
H	-2.371599	-0.020241	-1.001293
N	-0.59554	1.180686	0.655579
O	-1.786914	1.087732	0.996412
O	0.085152	2.189089	0.806585
H	2.881645	0.0	0.0
