15

C	-0.401288	0.107312	-1.47208
C	0.0	0.0	0.0
F	-0.314741	-1.203043	-1.989042
H	1.087479	0.0	0.0
H	-0.388099	0.868063	0.534505
N	-1.715855	0.629187	-1.647869
H	-2.355001	0.103807	-1.063414
H	-1.969475	0.513765	-2.622336
N	0.529656	0.891704	-2.221796
H	1.475214	0.639756	-1.918346
H	0.381305	1.862782	-1.978861
N	-0.613144	-1.189105	0.623981
O	0.077242	-2.176892	0.847095
O	-1.828842	-1.120521	0.868141
H	2.89262	0.0	0.0
