15

C	-0.405205	-0.154096	-1.454365
C	0.0	0.0	0.0
F	-0.231407	1.190475	-1.975022
H	1.086075	0.0	0.0
H	-0.418767	0.925731	0.389481
N	0.459631	-1.043639	-2.121639
H	1.404468	-0.896868	-1.760012
H	0.43276	-0.870309	-3.116322
N	-1.783715	-0.503119	-1.611256
H	-2.013131	-0.573067	-2.599599
H	-2.340463	0.245791	-1.209016
N	-0.52309	-1.096773	0.821274
O	-0.066628	-2.223227	0.644808
O	-1.390342	-0.818208	1.663093
H	2.814407	0.0	0.0
