15

C	-0.263491	0.116457	-1.49375
C	0.0	0.0	0.0
F	-1.635875	0.201744	-1.739687
H	1.088814	0.0	0.0
H	-0.399759	-0.927166	0.400061
N	0.329414	1.256873	-2.146993
H	-0.025231	2.093172	-1.695141
H	1.321658	1.216175	-1.912272
N	0.231802	-1.111885	-2.04953
H	0.332625	-0.952774	-3.046972
H	1.16809	-1.253888	-1.667392
N	-0.523521	1.082522	0.822458
O	-0.393696	2.251235	0.439666
O	-1.027728	0.779141	1.910091
H	2.710092	0.0	0.0
