15

C	-0.411757	0.095786	-1.463771
C	0.0	0.0	0.0
F	-0.090728	1.431142	-1.79283
H	1.088691	0.0	0.0
H	-0.387076	0.830505	0.586663
N	0.324321	-0.730372	-2.374282
H	0.160044	-1.681908	-2.065415
H	1.311363	-0.545956	-2.186266
N	-1.803777	-0.146333	-1.649833
H	-2.341031	0.500834	-1.082777
H	-2.016102	0.004037	-2.630466
N	-0.464463	-1.227401	0.632947
O	-0.257927	-2.299882	0.056118
O	-0.988987	-1.140924	1.752142
H	2.734129	0.0	0.0
