17

C	-0.457533	0.022633	-1.462819
C	0.0	0.0	0.0
F	-0.215303	-1.279964	-1.929506
H	1.099364	0.0	0.0
C	-1.912739	0.229817	-1.586553
N	-3.067355	0.371504	-1.741319
C	0.347273	0.957305	-2.341112
H	0.113342	0.74126	-3.385754
H	1.406679	0.773509	-2.147334
H	0.110801	1.994285	-2.118105
N	-0.595525	-1.121098	0.700028
H	-0.313481	-1.952795	0.195477
H	-0.152672	-1.165813	1.61101
N	-0.414848	1.239123	0.72928
O	-0.328857	1.194985	1.950579
O	-0.775277	2.223291	0.085459
Br	3.45778	0.0	0.0
