17

C	-0.600669	-0.063177	-1.413622
C	0.0	0.0	0.0
F	-0.055462	0.910314	-2.230736
H	1.091896	0.0	0.0
C	-0.266162	-1.377418	-1.993244
N	-0.045025	-2.410225	-2.505644
C	-2.110331	0.123346	-1.415357
H	-2.588936	-0.622227	-0.779623
H	-2.484435	0.016578	-2.434731
H	-2.352797	1.125079	-1.056374
N	-0.463147	-1.117103	0.763284
H	0.286842	-1.423874	1.370527
H	-1.258633	-0.85079	1.329976
N	-0.437486	1.327218	0.598475
O	-1.292443	1.303498	1.49098
O	0.047612	2.345316	0.1213
Br	3.417867	0.0	0.0
