17

C	-0.49552	0.000629	-1.449379
C	0.0	0.0	0.0
F	-0.042198	1.156341	-2.07618
H	1.090645	0.0	0.0
C	0.103906	-1.160423	-2.1359
N	0.585748	-2.074484	-2.693101
C	-2.007002	-0.0406	-1.619659
H	-2.235212	-0.007435	-2.686728
H	-2.416135	-0.959213	-1.197912
H	-2.454086	0.823198	-1.126883
N	-0.525175	-1.121633	0.69866
H	-1.461613	-0.922476	1.041741
H	0.087913	-1.338819	1.479292
N	-0.445113	1.333568	0.591999
O	-1.561779	1.362185	1.126527
O	0.322539	2.288368	0.535495
Br	3.250655	0.0	0.0
