17

C	-0.433662	-0.063865	-1.475892
C	0.0	0.0	0.0
F	-1.791805	-0.42001	-1.533777
H	1.090596	0.0	0.0
C	-0.317918	1.229077	-2.170046
N	-0.257983	2.22951	-2.781594
C	0.3777	-1.119261	-2.198938
H	0.069163	-1.174679	-3.244063
H	0.203959	-2.084722	-1.721238
H	1.43983	-0.875014	-2.121154
N	-0.443418	-1.109407	0.774433
H	0.290339	-1.797957	0.854635
H	-1.311746	-1.505254	0.448172
N	-0.546169	1.273118	0.590141
O	0.156012	2.278008	0.512705
O	-1.682925	1.226816	1.05772
Br	3.458904	0.0	0.0
