17

C	-0.435997	-0.065647	-1.473996
C	0.0	0.0	0.0
F	-1.799244	-0.406161	-1.52505
H	1.090574	0.0	0.0
C	-0.308965	1.220558	-2.180006
N	-0.250912	2.201992	-2.822791
C	0.361332	-1.134133	-2.19365
H	1.426404	-0.903007	-2.116552
H	0.174496	-2.096297	-1.714349
H	0.053221	-1.187272	-3.238534
N	-0.4406	-1.107755	0.776531
H	-1.306309	-1.51129	0.451967
H	0.297739	-1.789921	0.868297
N	-0.543726	1.277087	0.588622
O	0.143005	2.288562	0.466321
O	-1.661785	1.226581	1.098945
Br	3.455251	0.0	0.0
