17

C	0.0	0.0	0.0
C	-0.406475	-0.404872	-1.471768
F	1.37464	0.0	0.0
H	0.563573	-0.350031	-1.978941
N	-0.483526	1.30319	0.328909
H	-1.5025	1.266734	0.249517
H	-0.265013	1.506579	1.298486
C	-0.344841	-1.020523	1.029967
N	-0.536696	-1.806733	1.881666
N	-1.304014	0.486893	-2.170672
H	-2.239686	0.405762	-1.774813
H	-0.995444	1.442908	-2.041585
C	-0.926089	-1.830103	-1.544866
H	-1.100689	-2.109417	-2.585298
H	-0.217208	-2.53528	-1.103491
H	-1.876233	-1.900179	-1.010756
Br	-3.911555	0.0	0.0
