17

C	0.0	0.0	0.0
C	-0.43567	-0.195205	-1.446286
F	1.418513	0.0	0.0
H	-1.511703	-0.390561	-1.402008
N	-0.492746	1.192384	0.558568
H	-0.074607	2.004859	0.13048
H	-0.410435	1.218904	1.563853
C	-0.371048	-1.145608	0.853242
N	-0.578145	-2.001596	1.628217
N	0.250904	-1.38409	-1.946584
H	1.220275	-1.162728	-2.143581
H	-0.188162	-1.693044	-2.803065
C	-0.190062	1.070012	-2.267791
H	-0.388945	0.86042	-3.321843
H	0.85185	1.399658	-2.181602
H	-0.860003	1.876823	-1.961857
Br	-4.020178	0.0	0.0
