17

C	0.0	0.0	0.0
C	-0.350211	-0.147531	-1.518654
F	1.387586	0.0	0.0
H	0.428034	0.485738	-1.962966
N	-0.495634	1.233931	0.516308
H	-0.285177	1.299952	1.506797
H	-1.513178	1.212967	0.426776
C	-0.369033	-1.184141	0.816845
N	-0.608024	-2.12766	1.475086
N	-1.618122	0.34051	-1.988486
H	-2.412471	-0.100772	-1.525232
H	-1.704413	1.333021	-1.809778
C	-0.142453	-1.585945	-1.973043
H	0.81629	-1.983753	-1.63073
H	-0.943834	-2.221427	-1.587233
H	-0.177896	-1.617132	-3.063339
Br	-4.25903	0.0	0.0
