17

C	0.0	0.0	0.0
C	-0.476901	-0.244415	-1.427931
F	1.390675	0.0	0.0
H	-1.55793	-0.398858	-1.35493
N	-0.490534	1.235636	0.511706
H	-0.301064	1.285469	1.507259
H	-1.511411	1.207628	0.402235
C	-0.324516	-1.177781	0.86113
N	-0.510822	-2.048318	1.626723
N	0.139091	-1.488007	-1.885673
H	1.089131	-1.304195	-2.187725
H	-0.380447	-1.841107	-2.679347
C	-0.188496	0.963139	-2.315311
H	-0.490038	0.734089	-3.342291
H	-0.732859	1.846706	-1.9813
H	0.881842	1.194402	-2.308041
Br	-3.763251	0.0	0.0
