17

C	0.0	0.0	0.0
C	-0.407455	-0.395989	-1.476641
F	1.374837	0.0	0.0
H	0.559651	-0.316816	-1.988057
N	-0.487266	1.299328	0.332059
H	-1.505987	1.263325	0.247096
H	-0.273788	1.501539	1.303069
C	-0.347931	-1.031366	1.017376
N	-0.549118	-1.824516	1.860924
N	-1.33017	0.479078	-2.160921
H	-2.262897	0.371232	-1.763441
H	-1.046455	1.442148	-2.027487
C	-0.900264	-1.83159	-1.57472
H	-1.077119	-2.080136	-2.623283
H	-0.178242	-2.539403	-1.158951
H	-1.846904	-1.931463	-1.038527
Br	-3.907049	0.0	0.0
