17

C	0.0	0.0	0.0
C	-0.318328	-0.213673	-1.494316
F	1.417851	0.0	0.0
H	0.252405	-1.105917	-1.793853
N	-0.503958	1.193223	0.570828
H	-1.431229	1.037705	0.9545
H	-0.565974	1.877431	-0.177477
C	-0.381217	-1.177671	0.802302
N	-0.622955	-2.132269	1.440706
N	0.148843	0.999195	-2.168933
H	-0.280359	1.062197	-3.08333
H	1.154002	0.970538	-2.282278
C	-1.78971	-0.426359	-1.76424
H	-1.944073	-0.642265	-2.82697
H	-2.206226	-1.251456	-1.188169
H	-2.387384	0.44391	-1.497385
Br	-4.753807	0.0	0.0
