17

C	0.0	0.0	0.0
C	-0.328797	0.300427	-1.492082
F	1.38671	0.0	0.0
H	0.418639	-0.303452	-2.020533
N	-0.53043	0.970699	0.893967
H	-0.412314	0.664998	1.853618
H	-1.535805	1.038472	0.724466
C	-0.340966	-1.40584	0.347999
N	-0.554325	-2.524986	0.635089
N	-0.066046	1.696072	-1.823047
H	0.780443	1.993698	-1.349835
H	-0.820728	2.260118	-1.44736
C	-1.704488	-0.102961	-1.973757
H	-1.891342	-1.167289	-1.821844
H	-2.514924	0.415092	-1.460917
H	-1.761505	0.119253	-3.042277
Br	-4.560438	0.0	0.0
