18

C	0.0	0.0	0.0
C	-0.309558	-0.070187	-1.541269
Cl	1.796535	0.0	0.0
H	-0.036532	0.914466	-1.927548
C	-0.674316	1.210297	0.601091
H	-1.762575	0.998013	0.492908
H	-0.37628	2.1134	0.062442
H	-0.406427	1.309313	1.655332
C	-0.41854	-1.213896	0.707793
N	-0.694386	-2.164616	1.339692
C	-1.683584	-0.495508	-2.002103
H	-2.487544	-0.044059	-1.370155
H	-1.761723	-0.273914	-3.071774
H	-1.790963	-1.570723	-1.848026
N	0.65365	-0.991763	-2.249607
O	1.276091	-0.525665	-3.205126
O	0.704476	-2.161381	-1.881479
F	-3.262252	0.0	0.0
