18

C	0.0	0.0	0.0
C	-0.595377	0.060268	-1.417931
Cl	1.793425	0.0	0.0
H	-1.675201	0.263186	-1.167436
C	-0.464934	1.140448	0.905499
H	-0.091835	2.091099	0.52801
H	-0.080003	0.973129	1.914332
H	-1.559544	1.082395	0.869084
C	-0.406299	-1.273614	0.6083
N	-0.59234	-2.309938	1.129752
C	-0.438403	-1.219653	-2.206894
H	-1.074423	-1.974576	-1.742615
H	0.595975	-1.569771	-2.237025
H	-0.77862	-1.069141	-3.232698
N	-0.00048	1.212321	-2.15407
O	0.776633	0.983402	-3.085353
O	-0.327224	2.347215	-1.799859
F	-2.806363	0.0	0.0
