18

C	0.0	0.0	0.0
C	-0.60756	0.151412	-1.403363
Cl	1.793627	0.0	0.0
H	-1.70364	0.22307	-1.128889
C	-0.485719	1.075486	0.968485
H	-1.580789	0.999363	0.91972
H	-0.100002	0.864303	1.968542
H	-0.133571	2.055576	0.64667
C	-0.402814	-1.317757	0.511102
N	-0.603255	-2.394329	0.937391
C	-0.289128	-0.985765	-2.346192
H	0.784517	-1.146607	-2.453395
H	-0.704743	-0.773203	-3.333446
H	-0.762111	-1.892793	-1.966875
N	-0.162174	1.448015	-1.993049
O	0.784523	1.441515	-2.787336
O	-0.778514	2.464867	-1.665217
F	-2.846552	0.0	0.0
