18

C	0.0	0.0	0.0
C	-0.264156	0.100791	-1.540551
Cl	1.796429	0.0	0.0
H	0.255627	1.01359	-1.841398
C	-0.589626	1.199436	0.713407
H	-0.259176	1.208073	1.755444
H	-0.26233	2.118581	0.21996
H	-1.688689	1.023062	0.625979
C	-0.449348	-1.242726	0.629746
N	-0.655658	-2.211106	1.261456
C	-1.651894	0.071055	-2.143421
H	-2.161265	-0.856002	-1.899765
H	-2.284757	0.837223	-1.708036
H	-1.514912	0.188471	-3.225269
N	0.501578	-0.975857	-2.269702
O	1.230521	-0.616415	-3.195076
O	0.298251	-2.142058	-1.944044
F	-2.959304	0.0	0.0
