18

C	0.0	0.0	0.0
C	-0.24266	0.008121	-1.555254
Cl	1.796291	0.0	0.0
H	0.285258	0.899451	-1.898598
C	-0.514689	1.274021	0.640031
H	-1.613883	1.15234	0.581583
H	-0.15269	1.331205	1.66932
H	-0.135878	2.135243	0.082615
C	-0.472499	-1.19038	0.703266
N	-0.732145	-2.152037	1.328195
C	-1.615032	-0.061574	-2.1987
H	-2.180025	-0.904503	-1.819953
H	-1.442129	-0.128765	-3.283673
H	-2.201507	0.811495	-1.942168
N	0.542284	-1.108552	-2.200588
O	0.339339	-2.253482	-1.807826
O	1.285206	-0.801642	-3.132532
F	-2.805813	0.0	0.0
