18

C	0.0	0.0	0.0
C	-0.553275	0.110028	-1.424635
Cl	1.797279	0.0	0.0
H	-0.33654	-0.806606	-1.980204
N	-0.487725	1.107377	0.765225
H	-0.020984	1.140737	1.663188
H	-0.284761	1.945402	0.208363
C	-0.443792	-1.308432	0.633368
H	-1.535865	-1.315563	0.655234
H	-0.062287	-1.378022	1.656037
H	-0.069193	-2.163691	0.065952
N	0.024408	1.206573	-2.198291
O	-0.248382	2.404216	-1.644515
O	-0.016159	1.042676	-3.497904
N	-1.997416	0.287189	-1.266271
H	-2.439831	0.053322	-2.154839
H	-2.066775	1.306135	-1.165481
H	-3.114719	0.0	0.0
