18

C	0.0	0.0	0.0
C	-0.547418	0.109809	-1.424434
Cl	1.846925	0.0	0.0
H	-0.339448	-0.809128	-1.978686
N	-0.466517	1.107998	0.762514
H	-0.258194	1.943932	0.203529
H	-0.003566	1.136124	1.662154
C	-0.421246	-1.3103	0.637732
H	-1.5133	-1.329883	0.666016
H	-0.040617	-2.161416	0.069067
H	-0.032568	-1.374222	1.657725
N	0.028527	1.202858	-2.203609
O	-0.049046	1.044944	-3.502869
O	-0.214801	2.400636	-1.639504
N	-1.990797	0.294299	-1.259313
H	-2.055395	1.311614	-1.142683
H	-2.435638	0.077898	-2.150882
H	-3.110521	0.0	0.0
