18

C	0.0	0.0	0.0
C	-0.503568	-0.008169	-1.443211
Cl	1.844271	0.0	0.0
H	-0.27355	-0.966553	-1.915676
N	-0.481469	1.168754	0.656484
H	-0.0128	1.284501	1.548074
H	-0.282063	1.952914	0.022193
C	-0.405546	-1.253193	0.756572
H	-1.496026	-1.273552	0.815482
H	0.009231	-1.228522	1.769297
H	-0.03573	-2.150751	0.255506
N	0.005273	1.019853	-2.317137
O	-0.194772	2.267658	-1.835056
O	0.937561	0.706875	-3.171406
N	-1.976069	0.211068	-1.354469
H	-2.013245	1.236687	-1.431773
H	-2.400851	-0.16584	-2.201636
H	-2.912031	0.0	0.0
