14

C	-0.426943	-0.046434	-1.477162
C	0.0	0.0	0.0
Br	-2.389476	-0.301938	-1.61784
H	1.095128	0.0	0.0
C	-0.130761	1.241517	-2.103908
N	0.059045	2.269287	-2.642699
C	0.21423	-1.106363	-2.255327
N	0.719939	-1.869935	-2.992539
N	-0.427806	-1.247914	0.711659
O	-0.947195	-1.132701	1.814862
O	-0.187461	-2.297913	0.130288
C	-0.533653	1.173216	0.665184
N	-0.957551	2.129155	1.201345
Br	3.202729	0.0	0.0
