14

C	-0.459912	0.00361	-1.476268
C	0.0	0.0	0.0
Br	0.181199	-1.637118	-2.334044
H	1.092263	0.0	0.0
C	-1.912371	0.076894	-1.656344
N	-3.064895	0.192578	-1.85976
C	0.142424	1.151119	-2.157394
N	0.592919	2.063667	-2.747537
N	-0.516593	-1.240036	0.688365
O	-1.7373	-1.393422	0.679243
O	0.309128	-1.984496	1.19628
C	-0.535197	1.165127	0.686975
N	-0.965738	2.114128	1.231179
Br	3.292849	0.0	0.0
