14

C	-0.475102	-0.020668	-1.466335
C	0.0	0.0	0.0
Br	0.063142	1.704135	-2.25434
H	1.09363	0.0	0.0
C	0.160753	-1.076738	-2.25693
N	0.619238	-1.934765	-2.917266
C	-1.934476	-0.115292	-1.567771
N	-3.109141	-0.158745	-1.639184
N	-0.418085	-1.258769	0.711134
O	-0.261361	-1.268241	1.923736
O	-0.838861	-2.18633	0.019029
C	-0.531062	1.1371	0.731464
N	-0.973135	2.054779	1.318329
Br	3.225753	0.0	0.0
