16

C	-0.161143	-0.039681	-1.52586
C	0.0	0.0	0.0
Br	0.211231	1.899705	-2.194219
H	1.088165	0.0	0.0
N	0.81807	-0.93271	-1.954587
H	1.705	-0.740396	-1.440748
H	0.919409	-0.969426	-2.958521
C	-1.486673	-0.325378	-2.066924
N	-2.529317	-0.622699	-2.522122
N	-0.513327	-1.28197	0.583616
O	0.276946	-2.215191	0.662856
O	-1.695396	-1.30553	0.936004
N	-0.700637	1.078403	0.717682
O	-0.248692	1.348286	1.830851
O	-1.698899	1.58141	0.205633
F	2.547308	0.0	0.0
