16

C	-0.549639	-0.000378	-1.424296
C	0.0	0.0	0.0
Br	0.349563	-1.396791	-2.484957
H	1.088345	0.0	0.0
N	-1.964802	-0.287562	-1.472921
H	-2.281489	-0.292744	-2.436351
H	-2.443076	0.452566	-0.967778
C	-0.161707	1.254054	-2.097376
N	0.034986	2.261773	-2.671285
N	-0.533798	-1.177099	0.742597
O	-1.429587	-0.994293	1.566272
O	-0.038332	-2.261579	0.463407
N	-0.462181	1.195831	0.754893
O	0.099325	1.400995	1.822935
O	-1.363642	1.902215	0.286909
F	2.450207	0.0	0.0
