16

C	-0.165194	0.053167	-1.513837
C	0.0	0.0	0.0
Br	-2.019628	0.417488	-2.145691
H	1.09321	0.0	0.0
N	0.703834	1.118068	-1.931654
H	0.833893	1.08462	-2.9358
H	1.601212	0.957118	-1.442133
C	0.193021	-1.237324	-2.129379
N	0.559697	-2.165659	-2.752408
N	-0.582797	-1.159455	0.691018
O	-1.118263	-2.045979	0.026327
O	-0.450799	-1.163948	1.912762
N	-0.524544	1.228281	0.648964
O	-1.702893	1.213222	1.009557
O	0.250749	2.171164	0.770644
F	2.50558	0.0	0.0
