16

C	-0.491531	0.021852	-1.468803
C	0.0	0.0	0.0
Br	-2.412095	-0.349878	-1.645474
H	1.116262	0.0	0.0
N	-0.206252	1.291	-2.122006
H	-0.820905	2.00526	-1.752167
H	0.764775	1.545552	-1.926705
C	0.401992	-0.967604	-2.223914
N	1.5295	-1.016916	-2.458325
N	-0.246509	-1.239902	0.789184
O	-0.166707	-1.123688	2.042554
O	0.035312	-2.306208	0.175697
N	-0.503728	1.111952	0.85049
O	0.356014	1.580045	1.666443
O	-1.744158	1.145988	1.088029
F	2.478161	0.0	0.0
