14

C	-0.268508	0.016492	-1.501877
C	0.0	0.0	0.0
Cl	-1.727467	-1.040526	-1.888961
H	1.087759	0.0	0.0
H	-0.298321	-0.962379	0.414028
C	-0.585686	1.31734	-2.121232
N	-0.764717	2.297952	-2.740538
N	0.919192	-0.500783	-2.145989
H	0.752753	-1.390638	-2.588164
H	1.711497	-0.503267	-1.473872
N	-0.603071	1.026689	0.855962
O	-0.432074	0.877741	2.065016
O	-1.222443	1.964845	0.354258
F	2.603306	0.0	0.0
