14

C	-0.555454	-0.010002	-1.426759
C	0.0	0.0	0.0
Cl	-0.155517	1.557681	-2.220994
H	1.087958	0.0	0.0
H	-0.394318	-0.897143	0.48792
C	0.147432	-1.071985	-2.160656
N	0.61148	-1.973628	-2.752481
N	-1.983719	-0.228598	-1.599023
H	-2.459586	0.359316	-0.920203
H	-2.177714	-1.191365	-1.340295
N	-0.593765	1.136462	0.738904
O	-1.782821	1.031037	1.090254
O	0.095787	2.126372	0.961825
F	2.53936	0.0	0.0
