12

C	-0.560785	-0.094922	-1.398826
C	0.0	0.0	0.0
F	-0.109836	-1.253468	-2.020516
H	1.094028	0.0	0.0
H	-1.651604	-0.176686	-1.342862
H	-0.35107	0.942137	0.433946
C	-0.223481	1.063094	-2.243267
N	-0.018572	2.000106	-2.918341
N	-0.566556	-1.119232	0.772655
H	-0.096621	-1.956256	0.443405
H	-0.254958	-1.00476	1.730935
Cl	3.508902	0.0	0.0
