12

C	-0.558252	-0.008028	-1.403217
C	0.0	0.0	0.0
F	-0.110704	-1.128858	-2.093342
H	1.099525	0.0	0.0
H	-1.649524	-0.087614	-1.355524
H	-0.350741	0.914176	0.490449
C	-0.208819	1.199964	-2.170258
N	0.033158	2.193385	-2.745816
N	-0.567613	-1.16441	0.70131
H	-0.280883	-1.094844	1.671604
H	-0.078943	-1.97815	0.341509
Cl	3.516391	0.0	0.0
