12

C	-0.495948	0.045219	-1.425262
C	0.0	0.0	0.0
F	-1.895408	0.145968	-1.439761
H	1.096359	0.0	0.0
H	-0.102175	0.935732	-1.918369
H	-0.350801	-0.930333	0.467215
C	-0.151551	-1.158223	-2.200319
N	0.070822	-2.118884	-2.836137
N	-0.45172	1.217707	0.670831
H	-1.340423	1.067228	1.127274
H	0.233941	1.470739	1.369754
Cl	3.456599	0.0	0.0
