12

C	-0.504652	-0.017487	-1.436011
C	0.0	0.0	0.0
F	-0.027232	-1.133628	-2.107537
H	1.093286	0.0	0.0
H	-1.599719	-0.098793	-1.448533
H	-0.349489	0.925299	0.471507
C	-0.142514	1.192335	-2.192809
N	0.114695	2.164523	-2.797106
N	-0.447028	-1.160005	0.762726
H	0.168088	-1.93428	0.551146
H	-1.389593	-1.430605	0.505433
Cl	3.486618	0.0	0.0
