12

C	-0.513617	-0.039238	-1.435031
C	0.0	0.0	0.0
F	-0.104677	-1.190964	-2.085444
H	1.092506	0.0	0.0
H	-1.612523	-0.049277	-1.440208
H	-0.350542	-0.913286	0.490975
C	-0.093113	1.141564	-2.212173
N	0.171133	2.105937	-2.826512
N	-0.457822	1.179734	0.721636
H	0.1626	1.953733	0.527201
H	-1.402257	1.447863	0.472039
Cl	3.485559	0.0	0.0
