12

C	-0.443669	0.025281	-1.449867
C	0.0	0.0	0.0
F	-1.829129	0.259113	-1.5244
H	1.093805	0.0	0.0
H	0.051858	0.832971	-1.995663
H	-0.332313	0.946919	0.439622
C	-0.197186	-1.253793	-2.135662
N	-0.019131	-2.270786	-2.692559
N	-0.515969	-1.115548	0.775861
H	0.045238	-1.938927	0.598662
H	-1.47675	-1.314244	0.522253
Cl	3.469023	0.0	0.0
