13

C	-0.587102	-0.005412	-1.381107
C	0.0	0.0	0.0
Br	0.529726	-0.893813	-2.704549
H	1.085789	0.0	0.0
H	-1.563414	-0.474284	-1.460689
H	-0.30717	0.887952	0.55575
N	-0.779059	1.408821	-1.84819
O	0.119814	2.216998	-1.647946
O	-1.848827	1.653444	-2.412224
N	-0.466304	-1.162567	0.752966
O	-0.372398	-1.122694	1.980342
O	-0.882485	-2.146443	0.125896
F	2.484859	0.0	0.0
