13

C	-0.532185	0.054222	-1.394572
C	0.0	0.0	0.0
Br	-2.477187	0.282745	-1.498961
H	1.091034	0.0	0.0
H	-0.101641	0.92859	-1.881188
H	-0.315701	0.897293	0.532531
N	-0.099001	-1.109991	-2.278229
O	-0.913035	-1.932464	-2.671251
O	1.097155	-1.084856	-2.541705
N	-0.499868	-1.136539	0.770914
O	-0.742736	-0.956859	1.966245
O	-0.589661	-2.224334	0.196855
F	2.489137	0.0	0.0
