13

C	-0.506376	0.008438	-1.400587
C	0.0	0.0	0.0
Br	0.030401	1.646172	-2.284055
H	1.090855	0.0	0.0
H	-0.141151	-0.821105	-1.996918
H	-0.354721	0.850949	0.577289
N	-2.017128	-0.055313	-1.500667
O	-2.670213	0.45934	-0.598192
O	-2.482328	-0.606448	-2.49449
N	-0.465135	-1.208492	0.684909
O	-0.820987	-2.172793	-0.00742
O	-0.430483	-1.216815	1.913754
F	2.50558	0.0	0.0
