13

C	-0.594564	-0.020643	-1.377849
C	0.0	0.0	0.0
Br	0.519419	-0.955389	-2.673612
H	1.085778	0.0	0.0
H	-1.579495	-0.475566	-1.451999
H	-0.29417	0.88986	0.558908
N	-0.75316	1.378187	-1.887671
O	-1.769667	1.609306	-2.54571
O	0.130446	2.187088	-1.627979
N	-0.472841	-1.154222	0.765392
O	-1.025164	-2.090858	0.169683
O	-0.247094	-1.1495	1.974033
F	2.476357	0.0	0.0
