13

C	-0.586587	-0.048947	-1.378738
C	0.0	0.0	0.0
Br	0.530399	-0.973136	-2.66807
H	1.085788	0.0	0.0
H	-1.553436	-0.536823	-1.438361
H	-0.304772	0.906362	0.526267
N	-0.80309	1.34819	-1.884985
O	-1.899934	1.568302	-2.403851
O	0.097731	2.166868	-1.753858
N	-0.468095	-1.137244	0.785785
O	-0.392666	-1.050766	2.011899
O	-0.868585	-2.144616	0.188532
F	2.487057	0.0	0.0
