13

C	-0.516052	0.00649	-1.397122
C	0.0	0.0	0.0
Br	0.029105	1.634669	-2.29378
H	1.09085	0.0	0.0
H	-0.165172	-0.830236	-1.992316
H	-0.351565	0.852031	0.578051
N	-2.028562	-0.041931	-1.487187
O	-2.671841	0.474469	-0.57876
O	-2.50468	-0.584945	-2.480719
N	-0.462958	-1.207218	0.690006
O	-0.845328	-2.16517	0.002246
O	-0.400879	-1.221246	1.917956
F	2.505406	0.0	0.0
