13

C	-0.526923	0.078414	-1.396506
C	0.0	0.0	0.0
Br	-2.475676	0.290815	-1.511085
H	1.091056	0.0	0.0
H	-0.103773	0.966703	-1.864987
H	-0.317097	0.885341	0.551286
N	-0.078995	-1.066204	-2.299276
O	-0.887604	-1.867381	-2.741759
O	1.126832	-1.047553	-2.518756
N	-0.498545	-1.154723	0.741517
O	-0.593538	-2.227155	0.138392
O	-0.73816	-1.008401	1.941869
F	2.487185	0.0	0.0
