13

C	-0.311372	0.086474	-1.450815
C	0.0	0.0	0.0
Br	-2.225319	0.07027	-1.915991
H	1.092007	0.0	0.0
H	0.106147	0.976726	-1.90696
H	-0.408431	-0.880934	0.484793
N	0.300665	-1.087961	-2.159153
O	0.913511	-0.841896	-3.194907
O	0.115136	-2.200891	-1.67622
N	-0.464807	1.186405	0.70529
O	-0.776902	1.059748	1.890658
O	-0.463409	2.264083	0.102401
F	2.481289	0.0	0.0
