13

C	-0.574808	0.049335	-1.387798
C	0.0	0.0	0.0
Br	0.357375	-1.155047	-2.588894
H	1.08579	0.0	0.0
H	-1.627093	-0.204418	-1.462983
H	-0.339085	0.872052	0.570699
N	-0.449586	1.433213	-1.965845
O	-1.303037	1.752768	-2.791167
O	0.490865	2.125073	-1.59875
N	-0.574832	-1.175684	0.703559
O	-1.712393	-1.564022	0.403066
O	0.110629	-1.668987	1.596368
F	2.5324	0.0	0.0
