15

C	0.0	0.0	0.0
C	-0.576325	-0.010217	-1.404207
Br	2.03003	0.0	0.0
H	-1.689841	-0.017207	-1.181315
H	-0.330807	0.913076	-1.938033
N	-0.424356	1.19575	0.623615
H	-0.310077	1.166154	1.626459
H	0.021786	2.017199	0.23997
C	-0.495379	-1.192939	0.777107
H	-1.597717	-1.091453	0.750508
H	-0.17923	-2.128054	0.312764
H	-0.129358	-1.166705	1.807411
C	-0.179251	-1.157917	-2.202802
N	0.127073	-2.093647	-2.844561
H	-3.236558	0.0	0.0
