15

C	0.0	0.0	0.0
C	-0.50234	-0.036633	-1.451307
Br	1.971101	0.0	0.0
H	-1.610319	-0.05323	-1.31504
H	-0.222516	0.88746	-1.967636
N	-0.521076	1.139936	0.697494
H	-0.348769	1.976705	0.145356
H	-1.55063	0.971776	0.677691
C	-0.440156	-1.253471	0.733379
H	-0.03449	-2.152652	0.266192
H	-0.110481	-1.197157	1.77209
H	-1.537902	-1.256665	0.690234
C	-0.061493	-1.180191	-2.23658
N	0.289517	-2.108476	-2.866064
H	-3.08551	0.0	0.0
