15

C	0.0	0.0	0.0
C	-0.498816	-0.041434	-1.452631
Br	1.971336	0.0	0.0
H	-0.218064	0.880148	-1.971488
H	-1.605731	-0.058505	-1.321441
N	-0.517977	1.142144	0.695993
H	-1.547869	0.978525	0.681244
H	-0.3462	1.978073	0.143228
C	-0.439653	-1.25169	0.737623
H	-0.033357	-2.152227	0.272782
H	-0.107341	-1.192296	1.775251
H	-1.537471	-1.256337	0.695773
C	-0.052314	-1.18756	-2.231125
N	0.304344	-2.11689	-2.855628
H	-3.09961	0.0	0.0
