16

C	0.0	0.0	0.0
C	-0.28153	-0.069662	-1.527091
Br	1.958747	0.0	0.0
H	0.141383	-1.029231	-1.853406
H	0.320218	0.711886	-1.987505
N	-0.596552	1.188082	0.618603
O	-0.49565	1.232928	1.863924
O	-0.637232	2.231212	-0.100026
N	-0.279295	-1.174979	0.830887
H	-0.2605	-1.99834	0.238114
H	-1.230583	-1.044218	1.143932
C	-1.705074	0.059551	-2.100636
H	-2.149974	1.005237	-1.787815
H	-2.376081	-0.751316	-1.803132
H	-1.630623	0.048061	-3.217651
H	-2.09188	0.0	0.0
