16

C	0.0	0.0	0.0
C	-0.490242	0.083589	-1.43057
Br	1.94607	0.0	0.0
H	-0.036254	0.944453	-1.921625
H	-1.574129	0.254368	-1.311798
N	-0.257555	1.412824	0.685761
O	-0.39849	1.398045	1.903897
O	-0.261416	2.418107	-0.0139
N	-0.634063	-1.012136	0.693976
H	-0.446426	-0.925326	1.687825
H	-1.682629	-0.790256	0.520266
C	-0.24329	-1.201404	-2.207458
H	0.825101	-1.392437	-2.345638
H	-0.681324	-2.050507	-1.682017
H	-0.707135	-1.129066	-3.196112
H	-2.994775	0.0	0.0
