16

C	0.0	0.0	0.0
C	-0.206488	0.163746	-1.527403
Br	2.032348	0.0	0.0
H	0.646549	0.691321	-1.967834
H	-1.093981	0.769696	-1.712753
N	-0.235423	1.25192	0.779443
O	-0.29284	1.161474	2.007418
O	-0.268633	2.315083	0.15709
N	-0.138687	-1.262361	0.704933
H	0.646275	-1.383679	1.335946
H	-1.005849	-1.24843	1.221393
C	-0.361593	-1.204913	-2.170168
H	-1.21279	-1.730911	-1.732758
H	-0.518369	-1.102411	-3.249979
H	0.530559	-1.810914	-1.999882
H	-1.590981	0.0	0.0
