17
Coordinates from ORCA-job run
  C   -0.93659296462862     -0.19746881926165     -0.03286257130781
  C   0.58598922321789     -0.36681411535225     -0.12343596653601
  F   -1.47133110459825     -1.31575627097129      0.52307784279988
  H   0.76065127054064     -1.25767372628192     -0.74573114523923
  N   -1.44225525802061      0.93969658832360      0.63785616858479
  H   -0.86718205967170      1.74116862135919      0.40709668444184
  H   -1.42512595761626      0.77256467543386      1.63541537490277
  N   -1.43697421346605     -0.15398036328076     -1.48430305891955
  O   -1.64206277438863     -1.23087318048651     -2.03100931585228
  O   -1.51320858158193      0.95655363724858     -2.00073419911149
  C   1.16565069479776     -0.60382527204694      1.26158271254934
  H   0.69012315644256     -1.45537640391753      1.74779737370971
  H   1.04019193244764      0.28667898154445      1.88120852058451
  H   2.23554199797854     -0.81333562942635      1.18453435786404
  N   1.13639472344026      0.86612753234339     -0.67533229030477
  H   0.98496130924712      0.93007930951162     -1.67457146244220
  H   2.13422860585964      0.90223443526050     -0.51058902572352
