17
Coordinates from ORCA-job run
  C   -0.80001194845269      0.10262363466980     -0.45573593336234
  C   0.46141921905118     -0.34485762346417      0.29180984637963
  F   -0.42236209700912      0.47979677416585     -1.71118844735080
  H   0.12678925625150     -0.63282742660915      1.29314627682347
  N   -1.85710210588113     -0.83307391460207     -0.54321289236717
  H   -1.43761264063030     -1.74398330669440     -0.69828003287774
  H   -2.37841727337223     -0.84232176064974      0.32392831545035
  N   -1.34070232488712      1.34265664774346      0.24088895318474
  O   -1.84317720013868      1.13911323881782      1.34486865164654
  O   -1.19383478322386      2.42617688597678     -0.30382597636201
  C   1.50843827642601      0.75917981515707      0.39258342123354
  H   1.15309233449070      1.61265784013686      0.97487086678691
  H   1.78389161952923      1.11632743656858     -0.60191608546497
  H   2.40380388176522      0.37098371826294      0.88362777125432
  N   0.90092884748792     -1.55756112397137     -0.39517336452169
  H   1.52616095134172     -2.08708685147512      0.19847657736233
  H   1.40869598725164     -1.30680398403314     -1.23586794781512
