17
Coordinates from ORCA-job run
  C   -0.71716906968021      0.02204692224599     -0.44502209263618
  C   0.60023670160192     -0.31794808451704      0.24431719869755
  F   -0.52601894210363      0.49182810082093     -1.69449043718571
  H   0.32597269548409     -0.66188852594878      1.25480265330353
  N   -1.59401955147729     -1.08989025254018     -0.50492270072407
  H   -2.38620492918147     -0.88278420553158     -1.10209309670436
  H   -1.91936833025152     -1.32572516992166      0.42404527376474
  N   -1.34370720947920      1.19317476062913      0.35195369184101
  O   -1.36354824880776      2.30938262366741     -0.14661576656505
  O   -1.75478177446826      0.88190385509763      1.46894636068972
  C   1.50284726243583      0.90100662824194      0.36040634007111
  H   2.47238829380272      0.59754516207347      0.76229479353860
  H   1.66279969837413      1.33965925043491     -0.62493150597017
  H   1.08982193240237      1.65560520864148      1.03240415884994
  N   1.24859967436753     -1.33332895135258     -0.57269431327506
  H   2.08216993304776     -1.66243348903619     -0.10189193633668
  H   0.62098186393298     -2.11715383300488     -0.70450862135892
