17
Coordinates from ORCA-job run
  C   -0.77818597591178      0.11975269071991     -0.33075534183278
  C   0.48545243845597     -0.31476742132965      0.40548126829145
  F   -0.41612048152894      0.51308798657329     -1.61738622656124
  H   0.19347814608411     -0.47392748008224      1.44475090452608
  N   -1.77062829277307     -0.85973623268737     -0.30695819110325
  H   -2.52611428734971     -0.64116057361340     -0.94360652139634
  H   -1.34488119777552     -1.75829834268018     -0.50076692896416
  N   -1.40514364051725      1.37058908839217      0.27676234386344
  O   -2.21483574109320      1.95680512552887     -0.43215352202060
  O   -1.12374545058005      1.64608716217405      1.43866171068929
  C   1.59516932250321      0.72742580974965      0.32564901533433
  H   2.47443702643410      0.35870483228553      0.85871474121013
  H   1.87333223415698      0.90722337895973     -0.71474517005640
  H   1.29933918721426      1.67425172155744      0.77797610010123
  N   0.84702880492099     -1.61617251597875     -0.16406035353999
  H   1.42032080379536     -2.13037386079596      0.49181009281053
  H   1.39109710396456     -1.47849136877309     -1.00837392135165
