17
Coordinates from ORCA-job run
  C   -0.68482929856718      0.13088859771895     -0.32528481123546
  C   0.55624540850623     -0.31964165169276      0.44930160624338
  F   -0.27609290771509      0.62525427818836     -1.55925076546174
  H   0.22756898535654     -0.51951204145870      1.47030714551239
  N   -1.67523245682640     -0.85792502717382     -0.44412157414398
  H   -1.28989901580915     -1.69216913635215     -0.86380184327034
  H   -2.44829190378033     -0.51767035298000     -1.00451519341829
  N   -1.39271451141314      1.30801869536453      0.34155783995358
  O   -1.15615322460683      1.52733293248149      1.52432314615475
  O   -2.18774725910450      1.91670596361944     -0.36634678193119
  C   1.63293491992093      0.75688924931246      0.45391137125361
  H   1.26919943812324      1.69618279028733      0.87002457933809
  H   1.99561785376532      0.93928625489713     -0.55926648745119
  H   2.46796263344585      0.40384611970323      1.05880693947925
  N   1.12025648549669     -1.55050407435641     -0.08539878728791
  H   1.28625758634138     -1.48368053045095     -1.08169786635761
  H   0.55691726686642     -2.36330206710812      0.12245148262274
