17
Coordinates from ORCA-job run
  C   -0.95592523343296     -0.13762228448210     -0.03603682199209
  C   0.53998576035729     -0.44544818497516     -0.12915371248293
  F   -1.58220505753974     -1.24934276086833      0.46464374780736
  H   0.61772247477335     -1.33909977403060     -0.75421197584308
  N   -1.38112854489059      0.99717064959419      0.68333074018038
  H   -1.23400086280348      1.84121527914795      0.14941561688071
  H   -0.94040555461990      1.04703593326026      1.59052548669302
  N   -1.45511860082766      0.01602128223713     -1.47676177453372
  O   -1.86129668940634      1.11038734869403     -1.84451011068350
  O   -1.37940244554193     -0.99819338634980     -2.16079241939515
  C   1.12842555133337     -0.73974442938501      1.24476001576512
  H   0.57409166943345     -1.52521512462338      1.76080515153617
  H   1.12641355846138      0.15760155771009      1.87217148409419
  H   2.16663206633499     -1.06087748256454      1.13839465857155
  N   1.16145464481144      0.67753865816974     -0.82338499832735
  H   1.63687963880809      1.29023416532456     -0.17380978989121
  H   1.83587762474925      0.35933855314100     -1.50438529837944
