17
Coordinates from ORCA-job run
  C   -0.86680306238358     -0.03932615480261     -0.07098214037746
  C   0.57023982325879     -0.52222490151366     -0.12117474244468
  F   -1.65748867596974     -1.02299194141642      0.51580713129555
  H   0.54429039116680     -1.49238538564761     -0.62275056901206
  N   -1.00127358393005      1.21811375526429      0.53989877721080
  H   -0.95310258216627      1.12341674186673      1.54546228689641
  H   -1.86185848488923      1.67304444904313      0.26414684044862
  N   -1.40208219716325      0.04677974104407     -1.50093410518505
  O   -1.24895173810090     -0.95882593236918     -2.17858533136746
  O   -1.99148990836657      1.06781977200945     -1.83800937713276
  C   1.13851775208816     -0.68464889236506      1.28690921096430
  H   2.13736450247902     -1.12298709735012      1.22888657370956
  H   1.23522442050862      0.28681866558204      1.77971758826601
  H   0.51666990494347     -1.33963920459044      1.90192821658646
  N   1.27300792787199      0.41075228591821     -0.98708650430144
  H   2.18789761632090      0.05342183020857     -1.22852516679706
  H   1.37983789433187      1.30086226911865     -0.51570868875972
