17
Coordinates from ORCA-job run
  C   -0.91132778795324     -0.30351853306892     -0.27647743746664
  C   0.56457446928653     -0.53466120541498      0.05892761512702
  F   -1.27927883350895     -1.31459883109585     -1.11989200461222
  H   0.56234045196353     -1.54884527717618      0.49961928686675
  N   -1.84851100294667     -0.23351879534819      0.78414899961532
  H   -1.69201292791285     -0.97786577339127      1.45138488862695
  H   -1.79852619837935      0.66651820798642      1.24139727597994
  N   -1.04771156185286      0.99317542729867     -1.06584036763876
  O   -1.01319704946710      2.02077277566367     -0.39129654338478
  O   -1.15888239273322      0.91879694963416     -2.27729880807629
  C   1.12532288012401      0.43927079393536      1.08185752436174
  H   1.14824120560960      1.44978060806673      0.67546414587365
  H   0.54325230516590      0.43610633136605      2.00456891746570
  H   2.14679593721388      0.14512298337091      1.33729430463829
  N   1.32793145399054     -0.43539637466531     -1.17485242509943
  H   1.02007126574581     -1.13233793646704     -1.84185106621054
  H   2.31091778565442     -0.58780135069429     -0.98815430606668
