17
Coordinates from ORCA-job run
  C   -0.80113407159063     -0.09389013200335     -0.05698528722666
  C   0.66867678745770     -0.50053840350185     -0.08008600662181
  F   -1.54581384136956     -1.13300501243776      0.50786469249067
  H   0.70190386958497     -1.48764228351273     -0.54508044761552
  N   -1.02955950570741      1.14967421234092      0.54374194700825
  H   -0.80657866339597      1.11557050380124      1.52912806927093
  H   -1.98566639307431      1.45218050490988      0.40609728065197
  N   -1.37435959939275     -0.02528867000728     -1.47603142910549
  O   -0.86358688092241     -0.75297913517963     -2.32092713001057
  O   -2.35941131306269      0.68688034286290     -1.64367959579425
  C   1.20149209965864     -0.59768437811559      1.34502513127153
  H   1.31489756556891      0.39649520662741      1.78685764028043
  H   0.55366514627818     -1.20396054188081      1.98082209099200
  H   2.19267154482207     -1.04976863119797      1.31455070943191
  N   1.50511821556871      0.39513387881179     -0.85702292957449
  H   1.31969789182670      1.35463681300831     -0.58871426303592
  H   1.30998714774983      0.29518572547446     -1.84456047241295
