17
Coordinates from ORCA-job run
  C   -0.86621616600256     -0.12767721322552     -0.09141305834437
  C   0.65063046560105     -0.31852364806926     -0.09387085822796
  F   -1.45578930054163     -1.17707500602729      0.58254660053686
  H   0.85824372258971     -1.14128098466207     -0.79057361080414
  N   -1.27713466493830      1.11794470270461      0.37050939736533
  H   -0.54588423385581      1.64608843913555      0.81928327643841
  H   -2.17257575429905      1.11437717307766      0.83249197273006
  N   -1.44082184259696     -0.28218130237031     -1.51803580246896
  O   -0.66516319537901     -0.12540954955630     -2.45881485620473
  O   -2.64603295553101     -0.47100105229481     -1.59984565863824
  C   1.12665331155463     -0.71865414918923      1.29701927524569
  H   2.21306438171848     -0.83973761873370      1.28508913005685
  H   0.68381986637451     -1.66195177213934      1.61195471122297
  H   0.88082649713396      0.05163468460547      2.03066192762983
  N   1.28136624752364      0.94063383805963     -0.47040011565172
  H   2.28463206331706      0.85864280430668     -0.36048676882702
  H   1.08938155733127      1.13517065437824     -1.44611556205887
