17
Coordinates from ORCA-job run
  C   -0.76358105171514     -0.00322903282283     -0.36312734308845
  C   0.61382387884795     -0.31089843439453      0.21606133009676
  F   -0.70269627229691      0.29667168144171     -1.67648867198064
  H   0.44741959955919     -0.51275286085236      1.28667072667808
  N   -1.67302435062146     -1.07466416564335     -0.18117678900232
  H   -1.89289657102812     -1.18026540290809      0.80110252723879
  H   -2.52390251650035     -0.90897231418947     -0.70612687327736
  N   -1.26007662145057      1.28505352347635      0.33810394894709
  O   -1.30376467811777      2.32983954183096     -0.29562442361003
  O   -1.54906943002048      1.13516124764644      1.52469542479266
  C   1.55837820470187      0.87294340605093      0.07327886230739
  H   1.61689094073693      1.17759084313718     -0.97202438155058
  H   1.24648427737099      1.72262596703237      0.68345387308719
  H   2.55858930141831      0.58135409259381      0.40224691056647
  N   1.13455293147384     -1.44753330186493     -0.52887880264571
  H   2.01231285457007     -1.74439822812682     -0.12130474544264
  H   0.47855950307166     -2.21752656240734     -0.48186157311666
