17
Coordinates from ORCA-job run
  C   -0.90526049971899     -0.38825472743040     -0.16842689443862
  C   0.59767215938324     -0.59287436056270      0.03235058113844
  F   -1.43338045070077     -1.47353828078994     -0.78280197485364
  H   0.65056268551692     -1.64803628062881      0.31995885388754
  N   -1.62696933653276     -0.16538228203323      1.02735059596264
  H   -1.35802714818751      0.70765540172307      1.46069599324763
  H   -2.62343927031243     -0.16712888657019      0.84190310380728
  N   -1.11610363605004      0.77425564212205     -1.16539520589117
  O   -1.83371909625845      0.60868228405500     -2.13797303832819
  O   -0.56655112890416      1.82590820969257     -0.83468995803354
  C   1.21545706358749      0.24289748071403      1.14927212674494
  H   1.13857170892611      1.30816664325311      0.92613674553193
  H   2.27402735472109     -0.01315602239384      1.23347024600646
  H   0.74660995015351      0.03832803949652      2.11395343420723
  N   1.23795775227899     -0.45499943127795     -1.27027583260322
  H   1.58294216848826      0.48940341222224     -1.39420573403665
  H   2.01864972360949     -1.09092684159150     -1.35232304234902
