17
Coordinates from ORCA-job run
  C   -0.85997642088240     -0.37579027015861     -0.15749693235964
  C   0.63940809130102     -0.53439880608181      0.06235486495562
  F   -1.30219619796759     -1.42013104477057     -0.91439208408278
  H   0.71491453624169     -1.55575928295921      0.46814382340072
  N   -1.61412962238621     -0.34263908527780      1.03689318101629
  H   -2.59816079404386     -0.45704120611578      0.82174547934425
  H   -1.47824443197954      0.54123107174978      1.50994923438202
  N   -1.09858844212310      0.88005156020629     -1.03103189155436
  O   -1.02180469612771      1.94346508129686     -0.41831995419309
  O   -1.33571470480378      0.73972468174143     -2.21987493817539
  C   1.22118221432124      0.43770807082079      1.07507326776330
  H   2.28651555352443      0.22779360493493      1.20151407900232
  H   1.11185052447910      1.46572918753744      0.73082446383546
  H   0.75057886193404      0.31997956801889      2.05221494242596
  N   1.29639355712686     -0.35662780975402     -1.22486730365945
  H   2.29816373138212     -0.44498979186333     -1.11145501339897
  H   0.99280824000370     -1.06730552932527     -1.88027521870222
