17
Coordinates from ORCA-job run
  C   -0.85891442859370     -0.04684798773402     -0.34454823827261
  C   0.49677737648389     -0.21722816981206      0.35055996682715
  F   -0.67200974188236     -0.28327593369901     -1.67475641479668
  H   0.31438642203531     -0.01823168945729      1.41108803381325
  N   -1.92658149725195     -0.84556218038998      0.12870154239017
  H   -2.30123630877524     -0.44450165889080      0.97889244261123
  H   -1.54566774227150     -1.76518970132855      0.32641642406882
  N   -1.27731413750919      1.40877519955908     -0.20154838585765
  O   -1.20605647675472      2.13351435158667     -1.18233320322556
  O   -1.60736117945781      1.74317204586556      0.93506269013806
  C   1.55537001187011      0.74251797382463     -0.18223033105205
  H   1.67794846327000      0.61591378739417     -1.25994541168258
  H   1.29990076053748      1.78701239251971      0.01142132591759
  H   2.51239978527178      0.53831704928941      0.30343413844902
  N   0.81893510704150     -1.63613785188713      0.21414668596921
  H   1.19990430058392     -1.81115356130139     -0.70871380269972
  H   1.51951928540247     -1.90109406553900      0.89435253740229
