17
Coordinates from ORCA-job run
  C   -0.86031405538747     -0.11889181275079     -0.07966618988074
  C   0.63685982430370     -0.40334627140209     -0.11823951129477
  F   -1.50085223706361     -1.31692850476436      0.28114261613481
  H   0.72984902510054     -1.38126081982001     -0.60365862603316
  N   -1.24671733645292      0.96952196766820      0.69511603626709
  H   -1.01469467686013      0.83394827923072      1.66794614946445
  H   -2.22969067833272      1.17595830966758      0.57854627608498
  N   -1.38842537924990      0.10643144936824     -1.49649611613263
  O   -2.41765860437992      0.76169932993916     -1.61355317691636
  O   -0.79058970761596     -0.45988308746266     -2.40581197680356
  C   1.17930859650470     -0.49993469072193      1.30055896248350
  H   1.20896455789673      0.49014758077311      1.76287389151226
  H   0.57546517235851     -1.17187153682584      1.91298037117236
  H   2.19863832550316     -0.89147521813985      1.27893369189704
  N   1.30323190924197      0.66140712699390     -0.85214748128658
  H   2.22792096371583      0.82635586757438     -0.47920422094888
  H   1.38770430071753      0.41712203067228     -1.82932069571981
