17
Coordinates from ORCA-job run
  C   -0.85469090582809     -0.24750293530688      0.02863339493495
  C   0.65658768813178     -0.36283777429061     -0.07632292775915
  F   -1.39286094094932     -1.40921774634122      0.52227194680234
  H   0.85920445994445     -1.25257652444316     -0.68178518290668
  N   -1.26445878578626      0.84200349337059      0.79127348667365
  H   -2.25607964641743      1.01532471362868      0.68781039752626
  H   -0.71732077437728      1.65018131649446      0.51855646049340
  N   -1.46862339623025     -0.21130666686013     -1.41159828540916
  O   -2.62065690846338      0.20287132427631     -1.48894323217799
  O   -0.79102847069092     -0.62497696705008     -2.34952775112293
  C   1.25827764400014     -0.54228519131115      1.30876985564640
  H   0.78907301761027     -1.37770178767723      1.82807654677809
  H   1.11773402307307      0.35818688913375      1.90790884935469
  H   2.32783957025334     -0.75045567704703      1.22023878513095
  N   1.13825910064638      0.87261798482334     -0.69353818002453
  H   2.09164878263664      1.05489676312771     -0.40768478411861
  H   1.12609554244687      0.78177878547264     -1.70213937982169
