17
Coordinates from ORCA-job run
  C   -0.82633405076748     -0.01659646591653     -0.41803362416912
  C   0.47344933142742     -0.25163971344412      0.36017078052908
  F   -0.52562183165493     -0.07244522134611     -1.74780992884528
  H   0.20097779042438     -0.19120691744788      1.41837021207854
  N   -1.90308533958848     -0.89049735898718     -0.14128751918792
  H   -1.51135892788784     -1.81760815286592     -0.01264691678056
  H   -2.37275492983300     -0.59820141760936      0.70581445067853
  N   -1.29626106620025      1.40045907299924     -0.12479341058875
  O   -1.15950761982838      2.24930241634339     -0.99266226717914
  O   -1.73375103877644      1.57730921908345      1.01103028493648
  C   1.54614041291921      0.78431887694149      0.04121752960304
  H   2.46578035623934      0.53527642271566      0.57578294860662
  H   1.24872292163691      1.79169648838073      0.34192091752554
  H   1.75837508806011      0.79701529811680     -1.02986783484774
  N   0.84250806997978     -1.63663529597105      0.07475163016092
  H   1.49805763052787     -1.97222128397674      0.76861975114499
  H   1.29566320332178     -1.68732596701590     -0.83057700366523
