17
Coordinates from ORCA-job run
  C   -0.78808745334183      0.09655615100568     -0.31523669440406
  C   0.50404514564071     -0.31517004160133      0.38291274397612
  F   -0.46232786465540      0.56739394476674     -1.58517247824097
  H   0.23308216476479     -0.54736285294548      1.41412954353476
  N   -1.73587275951005     -0.92679999713771     -0.32729938728572
  H   -1.27321594510399     -1.79539916705649     -0.56761438032731
  H   -2.50735413742745     -0.71341309750864     -0.94635782125784
  N   -1.46016191134421      1.28660657016547      0.36183790935991
  O   -1.17862878493886      1.51065922198410      1.53464826089143
  O   -2.28926618227480      1.88547165079552     -0.31319558630562
  C   1.55972366219778      0.78413096630006      0.35205572887543
  H   1.22459442170392      1.68638524133192      0.86434970398456
  H   2.46406749392417      0.42907576249946      0.85144383494801
  H   1.81327397105795      1.03901719457883     -0.67889502558560
  N   0.92080309619581     -1.56327369644175     -0.26335300448795
  H   1.54236892510761     -2.07478015107525      0.34948355698432
  H   1.43195615800383     -1.35009769966113     -1.11273690465951
