17
Coordinates from ORCA-job run
  C   -0.83128537510761     -0.19180873401953     -0.06771540696801
  C   0.66999709145891     -0.47535908978163     -0.02532788100963
  F   -1.53364732222867     -1.31728355149103      0.27886190274012
  H   0.79990002031003     -1.38779465877023     -0.61123745935698
  N   -1.24654750270915      0.87453437977449      0.73213959780104
  H   -0.66689364841724      1.68783877748794      0.58028221566856
  H   -2.21100465981207      1.12003663998963      0.54645734370042
  N   -1.24242828810966     -0.00381670522580     -1.56755571040574
  O   -2.01602860902469      0.91359427078986     -1.82954999905198
  O   -0.77727636373853     -0.80367170871424     -2.37291734018377
  C   1.11179417535590     -0.72786576522478      1.40776083078347
  H   1.04852750434199      0.18507785508484      2.00425469229188
  H   2.14672524540797     -1.07163526319289      1.40269906712320
  H   0.48313350810402     -1.48179750620734      1.88213936175046
  N   1.49737368924884      0.55006140561078     -0.63180009304396
  H   1.48396323295618      1.42307966118531     -0.12203340860650
  H   1.28069730196380      0.70780999270461     -1.60645771323259
