17
Coordinates from ORCA-job run
  C   -0.89104357875279     -0.30660034905699     -0.25136634652357
  C   0.57736246064770     -0.63717209426230      0.08964628790483
  F   -1.27764096120433     -1.10604647522054     -1.30445705816548
  H   0.50470683999120     -1.56971574705968      0.66677675831791
  N   -1.78243170562665     -0.41613036332296      0.82040054499164
  H   -2.26061443363243      0.44735204252258      1.02902929281106
  H   -1.36519442500405     -0.81600578043179      1.64621014093013
  N   -0.94382132048759      1.11419111094784     -0.82947969731711
  O   -0.46183345567406      1.25917658344447     -1.94718194350946
  O   -1.39138103650245      2.01181954705366     -0.11935655301351
  C   1.19714544657013      0.44637484495420      0.96142173900992
  H   0.58115457569834      0.69060251546204      1.82800851119621
  H   2.17436775238691      0.10619097276482      1.30361323639835
  H   1.34576094605302      1.36444147167147      0.38570952787506
  N   1.43758441577440     -0.90688560128459     -1.04170171638969
  H   1.53879293894154     -0.07063328280367     -1.60537931397915
  H   1.01508554082107     -1.61195939537859     -1.63289341053714
