11
Coordinates from ORCA-job run
  C   0.50347637114538     -0.55731269002534      0.68400970537943
  C   -0.67665724320503     -0.28692663181036     -0.25251585364653
  H   0.54107550116652     -1.61699824086193      0.95466123342450
  H   -0.51646900157364     -0.82988203778514     -1.18694978085456
  H   0.37995103441885      0.00777118962350      1.61339916728035
  H   -1.58176553085629     -0.70147946536458      0.21578219689113
  C   1.77849396040949     -0.18135030258018      0.07391297940559
  N   2.80720344972947      0.08782860050242     -0.42068200469241
  N   -0.74847846439369      1.13608908988333     -0.55355590986019
  H   -1.14453924929774      1.64166031433906      0.22902551741608
  H   -1.34129082754333      1.30160017407923     -1.35608725074338
