14
Coordinates from ORCA-job run
  C   -0.65461273571139     -0.53663536726317      0.50303682525693
  C   0.26636464178630      0.24831714851377     -0.43792112258474
  Cl  -0.41348697747752     -2.32628396955936      0.14215094043078
  H   -0.04022923771750      0.01940081840211     -1.46650946232838
  H   -0.31913683289587     -0.42452553103219      1.53497488563931
  N   -1.99521731746795     -0.11027746210442      0.38593260749616
  H   -2.36468755412125     -0.27533185531116     -0.54199499806972
  H   -2.59662170378123     -0.55319224560426      1.06733647783718
  C   1.75197905843262     -0.08287344245884     -0.26819871021679
  H   1.94675790062109     -1.12195284747268     -0.52847404467362
  H   2.06163492511020      0.08657090614166      0.76558709145214
  H   2.35351190041323      0.55913762540631     -0.91316297131474
  C   0.05399673380693      1.68169291447520     -0.21138825106552
  N   -0.04925280099765      2.83695330786704     -0.03036926785900
