14
Coordinates from ORCA-job run
  C   -0.66336107147472     -0.83974112169633      0.04526640877444
  C   0.41622870190649      0.00208667520427     -0.64146290752515
  Cl  -1.84065797739282     -1.40164045248397     -1.24951879454797
  H   0.75215918144648     -0.54343779092450     -1.52799744923983
  H   -0.21139451353953     -1.76287413663024      0.41006456223861
  N   -1.26260904678584     -0.14324816745645      1.11926763871836
  H   -1.76731171869517      0.67521987211744      0.79812501150450
  H   -1.89246387943517     -0.73421972448891      1.64512151714261
  C   1.59933924618498      0.25323031056473      0.29850339995909
  H   1.27080366480647      0.79189402812629      1.18605573314914
  H   2.37164941049648      0.83348193343483     -0.20894295756937
  H   2.03302947577640     -0.70045702956002      0.60810976683107
  C   -0.16653539256428      1.26920466189053     -1.08912640046044
  N   -0.63787608072978      2.30050094190231     -1.39346552897506
