14
Coordinates from ORCA-job run
  C   -0.97586295549796     -0.37492206451212     -0.05987309147611
  C   0.42975928901251      0.04742097838279     -0.51222735570494
  Cl  -1.90814553421039      1.04028068981247      0.49679960909123
  H   0.94777107414711     -0.88386020075156     -0.78080061569729
  H   -1.52975588770950     -0.75120062406460     -0.92818290223637
  N   -0.86014972370896     -1.31181188000212      1.03719025545594
  H   -1.77524146345723     -1.49792929625922      1.42961670256278
  H   -0.48693962229107     -2.18791442798177      0.68648948648088
  C   1.23662819102285      0.76453311271312      0.57113608985455
  H   0.81566976638104      1.74780717901375      0.77796887157379
  H   2.26957898998684      0.89216032686582      0.24308780947226
  H   1.21625467274832      0.17151073890057      1.48470701506202
  C   0.34250587592793      0.84767392198889     -1.73514875266275
  N   0.27792732764852      1.49425154589398     -2.71276312177597
