14
Coordinates from ORCA-job run
  C   -0.67190307523964     -0.52417163139742      0.48333076577895
  C   0.29061912160040      0.24116548617817     -0.43220844202024
  Cl  -0.39402915291210     -2.32143858931010      0.19246642181776
  H   0.03588083615849     -0.01548482776872     -1.46841572493722
  H   -0.39262960495694     -0.37583857813521      1.52736746292296
  N   -2.00876860437021     -0.11829760193657      0.28282092258737
  H   -2.63989100910261     -0.54561160918561      0.94699317632229
  H   -2.32758406318688     -0.31796998003376     -0.65695507885080
  C   1.76765899126617     -0.07700417379746     -0.18183690717704
  H   2.39756270768438      0.55704739175621     -0.80734118344524
  H   1.98184889988472     -1.11918780719392     -0.41245229807576
  H   2.02386237961385      0.11289594502897      0.86300114887800
  C   0.05743643550636      1.67791710286909     -0.25265627089150
  N   -0.11906386194601      2.82597887292634     -0.08311399290952
