14
Coordinates from ORCA-job run
  C   -0.64303049352805     -0.62678700843583      0.41301202702218
  C   0.30204987975591      0.17759205149373     -0.48947622474538
  Cl  -0.36341061255270     -2.37183603307840      0.13790625526347
  H   0.08206956333850     -0.12513131411121     -1.51879789743918
  H   -0.36751376056262     -0.45746294640532      1.46239884428957
  N   -2.01552405497192     -0.33686475033550      0.07705128724237
  H   -2.63737196226218     -0.92267859478998      0.62108205023188
  H   -2.22295208882059      0.63238963264991      0.29370070685761
  C   1.78344425901168     -0.03405639778249     -0.17095453934184
  H   1.99619509018166      0.23510791657868      0.86600287400607
  H   2.40162368702317      0.58870036998148     -0.81899488001353
  H   2.05775603524250     -1.07664990047010     -0.32742890825441
  C   -0.04379825622062      1.59505856809893     -0.35042395610724
  N   -0.32953728563473      2.72361840660608     -0.19507763901157
