14
Coordinates from ORCA-job run
  C   -0.66527031731306     -0.53419244311389      0.49152493966140
  C   0.27541613650569      0.24626673457802     -0.43346388120028
  Cl  -0.42432758325665     -2.32540476726170      0.13478244839083
  H   -0.01174819229437      0.01501426992385     -1.46711141743352
  H   -0.34741371974519     -0.42387534629813      1.52923522418102
  N   -2.00187299880421     -0.10301627395220      0.35107899117694
  H   -2.61709207120905     -0.54393184696100      1.02135097234314
  H   -2.35551795759720     -0.26415236222133     -0.58364299442218
  C   1.75644407413354     -0.08849647732843     -0.23397305281183
  H   1.95329949402068     -1.12838105665605     -0.48933372510940
  H   2.37257202458746      0.55117075287972     -0.86736036630873
  H   2.04593855330295      0.08086766201757      0.80561141712640
  C   0.06204580584680      1.68086601601894     -0.21579736014974
  N   -0.04147324817741      2.83726513837463     -0.04190119544404
