14

C	-0.55794	0.059105	-1.420586
C	0.0	0.0	0.0
Br	0.278754	-1.270579	-2.553494
H	1.089626	0.0	0.0
H	-0.347121	0.901478	0.516847
C	-2.002218	-0.158982	-1.4284
N	-3.16655	-0.311989	-1.370865
N	-0.317897	1.42392	-2.078399
O	-0.951315	1.657374	-3.102032
O	0.481596	2.167662	-1.527292
N	-0.480295	-1.23418	0.615488
H	0.317505	-1.738464	0.980045
H	-1.112649	-1.038419	1.379498
Cl	3.392601	0.0	0.0
