14

C	-0.568929	0.024686	-1.410904
C	0.0	0.0	0.0
Br	0.227362	-1.36259	-2.514817
H	1.091321	0.0	0.0
H	-0.320375	-0.949786	0.439848
C	-2.018989	-0.141828	-1.402696
N	-3.17642	-0.336964	-1.324137
N	-0.260417	1.357694	-2.094404
O	0.715599	1.970738	-1.694322
O	-1.008891	1.677243	-3.014949
N	-0.568713	1.144409	0.707673
H	-1.002847	0.853572	1.572628
H	0.179931	1.790266	0.924995
Cl	3.42703	0.0	0.0
