14

C	-0.517288	0.003704	-1.426143
C	0.0	0.0	0.0
Br	-0.025363	1.642549	-2.350616
H	1.093139	0.0	0.0
H	-0.346247	0.916898	0.480645
C	-0.067706	-1.144064	-2.199995
N	0.305405	-2.068243	-2.822499
N	-2.056409	-0.020327	-1.407309
O	-2.597591	0.600017	-0.501411
O	-2.626191	-0.621807	-2.308732
N	-0.517713	-1.213544	0.62225
H	0.254914	-1.746175	0.999808
H	-1.164603	-0.995925	1.366691
Cl	3.375703	0.0	0.0
