14

C	-0.564742	0.033466	-1.41225
C	0.0	0.0	0.0
Br	0.2342	-1.352749	-2.513836
H	1.091225	0.0	0.0
H	-0.32286	-0.951704	0.433641
C	-2.014513	-0.133844	-1.417548
N	-3.172489	-0.324076	-1.352748
N	-0.258636	1.371291	-2.092627
O	0.692383	2.003825	-1.664337
O	-0.984018	1.677266	-3.034013
N	-0.574127	1.137799	0.714415
H	-0.960639	0.842695	1.599609
H	0.166615	1.802913	0.896981
Cl	3.428002	0.0	0.0
