14

C	-0.563054	-0.080279	-1.420694
C	0.0	0.0	0.0
Br	-2.505863	0.148752	-1.382181
H	1.091935	0.0	0.0
H	-0.320208	0.970231	0.397545
C	-0.024589	0.935371	-2.313372
N	0.396646	1.765685	-3.030924
N	-0.229824	-1.460809	-2.009599
O	-1.090474	-2.323492	-2.027506
O	0.935047	-1.564231	-2.369525
N	-0.458505	-1.14128	0.768917
H	0.326659	-1.518473	1.281439
H	-1.192235	-0.895531	1.415315
Cl	3.358733	0.0	0.0
