14

C	-0.532759	0.012612	-1.432505
C	0.0	0.0	0.0
Br	0.314811	-1.364902	-2.502888
H	1.089643	0.0	0.0
H	-0.349323	0.91826	0.482377
C	-1.9772	-0.193133	-1.463639
N	-3.14723	-0.301956	-1.42621
N	-0.277764	1.354365	-2.133516
O	0.41062	2.169525	-1.535078
O	-0.803765	1.505501	-3.230345
N	-0.485968	-1.214193	0.645987
H	0.301943	-1.693482	1.060535
H	-1.15774	-1.00141	1.369883
Cl	3.396025	0.0	0.0
