14

C	-0.510865	-0.036944	-1.448232
C	0.0	0.0	0.0
Br	0.1206	-1.603606	-2.374646
H	1.097091	0.0	0.0
H	-0.358195	0.943919	0.419367
C	-1.969025	-0.020724	-1.503002
N	-3.14387	-0.010377	-1.538426
N	-0.029989	1.246935	-2.154585
O	-0.532183	2.265313	-1.687464
O	0.783214	1.18029	-3.057902
N	-0.548726	-1.144088	0.716861
H	0.205525	-1.791559	0.907828
H	-0.931439	-0.846841	1.603056
Cl	3.382551	0.0	0.0
