14

C	-0.570891	0.033103	-1.408925
C	0.0	0.0	0.0
Br	0.22706	-1.350958	-2.514518
H	1.090212	0.0	0.0
H	-0.318515	-0.951614	0.438197
C	-2.019878	-0.139149	-1.406777
N	-3.175059	-0.339629	-1.327818
N	-0.26968	1.371969	-2.088209
O	-1.027816	1.699317	-2.996147
O	0.710813	1.98044	-1.695288
N	-0.562688	1.144435	0.711918
H	0.192653	1.778803	0.939062
H	-1.003649	0.849838	1.572068
Cl	3.419034	0.0	0.0
