17

C	0.0	0.0	0.0
C	-0.408959	0.113136	-1.464416
F	1.438403	0.0	0.0
H	-1.503371	0.123026	-1.445144
N	-0.453835	1.12196	0.717969
H	-0.090044	1.102221	1.658897
H	-0.218776	1.971208	0.226175
N	-0.430753	-1.186658	0.660182
H	-0.306799	-1.957889	0.015342
H	-1.433334	-1.064567	0.806305
N	0.039408	-1.092552	-2.159038
H	-0.394507	-1.143033	-3.071587
H	1.045194	-1.050539	-2.277801
N	0.062455	1.392967	-1.995708
H	1.063606	1.336204	-2.145764
H	-0.390097	1.582932	-2.880936
Br	-4.055238	0.0	0.0
