17

C	0.0	0.0	0.0
C	-0.354909	-0.191529	-1.483121
F	1.421315	0.0	0.0
H	0.085105	0.676484	-1.994818
N	-0.435424	1.278452	0.475322
H	-0.132821	1.392205	1.437592
H	-1.45383	1.244506	0.482858
N	-0.480704	-1.101289	0.746764
H	-0.211534	-1.051976	1.719873
H	-0.172125	-1.962135	0.313032
N	-1.753193	-0.251356	-1.806474
H	-2.181109	0.664836	-1.809848
H	-2.281861	-0.777044	-1.114835
N	0.247534	-1.46461	-1.899393
H	1.24626	-1.348432	-2.017704
H	-0.173294	-1.694593	-2.791122
Br	-4.623711	0.0	0.0
