17

C	0.0	0.0	0.0
C	-0.395975	0.05214	-1.503354
F	1.432882	0.0	0.0
H	0.496078	-0.312021	-2.022698
N	-0.461659	1.141399	0.701775
H	-0.057279	1.97615	0.298696
H	-0.254793	1.075374	1.689416
N	-0.406258	-1.241913	0.590551
H	-1.422601	-1.212438	0.655693
H	-0.033951	-1.286148	1.534368
N	-0.604809	1.447319	-1.874821
H	-0.758755	1.451024	-2.877843
H	-1.492212	1.719391	-1.454585
N	-1.512784	-0.773467	-1.915796
H	-2.358574	-0.494974	-1.411694
H	-1.325047	-1.738699	-1.668829
Br	-4.306379	0.0	0.0
