17

C	0.0	0.0	0.0
C	-0.333412	0.344261	-1.464259
F	1.423231	0.0	0.0
H	0.122603	-0.463142	-2.065294
N	-0.506561	0.992269	0.855694
H	-0.209508	0.838652	1.808481
H	-0.249784	1.906052	0.509812
N	-0.430455	-1.278783	0.470839
H	-0.218605	-1.992428	-0.216322
H	-1.437951	-1.232678	0.600641
N	0.251578	1.655926	-1.750343
H	-0.126753	1.954951	-2.639771
H	1.258324	1.577695	-1.81527
N	-1.729395	0.416601	-1.80348
H	-2.152998	-0.502341	-1.815386
H	-2.254459	0.912596	-1.087153
Br	-4.585994	0.0	0.0
