17

C	0.0	0.0	0.0
C	-0.499325	-0.029093	-1.439481
F	1.436998	0.0	0.0
H	-1.583568	-0.161375	-1.341346
N	-0.427039	1.204369	0.650214
H	-0.113407	1.177978	1.616054
H	-1.450566	1.141615	0.668811
N	-0.41219	-1.196013	0.651711
H	0.094618	-1.300159	1.522208
H	-0.20313	-1.972733	0.035025
N	0.048886	-1.210284	-2.098001
H	0.964988	-0.945077	-2.441162
H	-0.527419	-1.424842	-2.901338
N	-0.133016	1.215216	-2.119623
H	-0.907	1.486077	-2.714979
H	-0.048143	1.934427	-1.408179
Br	-3.977145	0.0	0.0
