17

C	0.0	0.0	0.0
C	-0.506634	0.26097	-1.413616
F	1.434524	0.0	0.0
H	-1.593696	0.350297	-1.293449
N	-0.427908	1.062362	0.839083
H	0.047518	1.013031	1.731085
H	-0.219437	1.937391	0.372164
N	-0.417138	-1.303493	0.434778
H	-0.064491	-1.464585	1.371883
H	-1.437782	-1.247984	0.490335
N	-0.106412	-0.839245	-2.291638
H	-0.838797	-0.9751	-2.981004
H	-0.077618	-1.679956	-1.721671
N	0.00936	1.548241	-1.86755
H	0.92087	1.362173	-2.272559
H	-0.589857	1.891869	-2.607771
Br	-3.976436	0.0	0.0
