17

C	0.0	0.0	0.0
C	-0.3325	-0.369967	-1.469167
F	1.410135	0.0	0.0
H	0.220279	-1.309729	-1.639463
N	-0.480202	1.305036	0.32179
H	-0.237658	1.54205	1.277713
H	-1.497282	1.25873	0.264351
N	-0.467134	-1.017268	0.879834
H	-0.031755	-1.905405	0.665081
H	-0.304219	-0.780885	1.850437
N	0.218776	0.610926	-2.397458
H	1.225524	0.606971	-2.282568
H	-0.087974	1.521533	-2.064063
N	-1.728488	-0.566041	-1.746187
H	-2.290085	-0.785442	-0.929182
H	-2.138686	0.252549	-2.172206
Br	-4.590806	0.0	0.0
