17

C	0.0	0.0	0.0
C	-0.332731	-0.175631	-1.488756
F	1.447474	0.0	0.0
H	0.171086	0.665627	-1.985596
N	-0.41714	1.284574	0.474854
H	-1.434135	1.251308	0.528667
H	-0.065822	1.418859	1.417074
N	-0.483885	-1.093675	0.739972
H	-0.213356	-1.960361	0.295002
H	-0.22308	-1.056097	1.714525
N	-1.724779	-0.143081	-1.844539
H	-2.311387	-0.6301	-1.169789
H	-2.076047	0.804128	-1.862525
N	0.202255	-1.480468	-1.895556
H	1.206929	-1.417788	-2.001729
H	-0.220691	-1.690624	-2.790865
Br	-4.600634	0.0	0.0
