17

C	0.0	0.0	0.0
C	-0.509227	0.098216	-1.437981
Cl	1.842905	0.0	0.0
H	-1.592055	0.197649	-1.247335
N	-0.356591	1.222708	0.678661
H	0.265012	1.369796	1.463593
H	-0.230201	1.980687	0.014837
N	-0.568079	-1.167685	0.59162
H	-0.347196	-1.158545	1.582259
H	-1.598389	-0.889079	0.494744
N	-0.147476	-1.117238	-2.175007
H	-0.934425	-1.352168	-2.775678
H	-0.09051	-1.859977	-1.479312
N	-0.006499	1.30429	-2.082528
H	-0.63198	1.53561	-2.844379
H	0.89327	1.071497	-2.486801
F	-2.909942	0.0	0.0
