17

C	0.0	0.0	0.0
C	-0.50517	-0.054645	-1.442748
Cl	1.842916	0.0	0.0
H	-1.581103	-0.218593	-1.256644
N	-0.5802	1.132149	0.634656
H	-0.370988	1.081924	1.628019
H	-1.613566	0.858688	0.509129
N	-0.345578	-1.257475	0.624351
H	0.20527	-1.376432	1.466401
H	-0.102291	-1.991535	-0.03267
N	0.06136	-1.202219	-2.142335
H	0.937693	-0.89245	-2.551047
H	-0.560581	-1.436843	-2.906835
N	-0.227207	1.215868	-2.123139
H	-1.068197	1.475675	-2.627489
H	-0.122564	1.913171	-1.390464
F	-2.912559	0.0	0.0
