17

C	0.0	0.0	0.0
C	-0.477362	-0.102034	-1.491021
Cl	1.894001	0.0	0.0
H	0.394456	-0.146404	-2.149379
N	-0.468866	1.119702	0.744016
H	-1.480349	0.896468	0.781184
H	-0.371601	1.937911	0.152484
N	-0.365347	-1.15628	0.729914
H	0.064708	-1.131283	1.643587
H	-0.152387	-1.997681	0.216002
N	-1.223457	1.119461	-1.798626
H	-1.460405	1.084927	-2.785242
H	-2.095013	0.984287	-1.257244
N	-1.233145	-1.348707	-1.633046
H	-1.556591	-1.387131	-2.594776
H	-2.056788	-1.173818	-1.027568
F	-2.957352	0.0	0.0
