17

C	0.0	0.0	0.0
C	-0.43634	-0.158613	-1.470727
Cl	1.801156	0.0	0.0
H	-1.524805	-0.06198	-1.379468
N	-0.467548	1.238653	0.568178
H	-1.491604	1.092071	0.518421
H	-0.236308	1.968787	-0.100263
N	-0.511754	-1.132354	0.727374
H	-0.30492	-0.956266	1.706428
H	-1.537037	-0.984658	0.60143
N	-0.015607	-1.462212	-2.002649
H	-0.765454	-1.811622	-2.590952
H	0.038458	-2.089686	-1.204591
N	0.070654	0.950547	-2.270471
H	0.997368	0.681089	-2.585405
H	-0.512034	1.033958	-3.095106
F	-2.871839	0.0	0.0
