14

C	0.0	0.0	0.0
C	-0.323729	0.248603	-1.527176
F	1.362147	0.0	0.0
H	0.645559	0.086803	-2.014732
H	-0.553668	1.318013	-1.591927
C	-0.486399	1.020855	0.924326
N	-0.553763	1.937472	1.657216
N	-0.355509	-1.376968	0.501067
O	-0.190504	-2.293963	-0.302572
O	-0.628779	-1.515483	1.68615
N	-1.342823	-0.487848	-2.240718
H	-1.087734	-1.468487	-2.200637
H	-2.150364	-0.378613	-1.61193
F	-2.344823	0.0	0.0
