14

C	0.0	0.0	0.0
C	-0.378799	0.025289	-1.474586
F	1.368679	0.0	0.0
H	0.108969	-0.844501	-1.925482
H	-1.462706	-0.071248	-1.486605
C	-0.471458	1.138883	0.792554
N	-0.603678	2.051086	1.519606
N	-0.401031	-1.288116	0.682529
O	-0.456454	-2.289017	-0.025363
O	-0.487412	-1.275527	1.904214
N	0.102036	1.292139	-2.027758
H	-0.622698	1.712661	-2.590084
H	0.92409	1.157751	-2.598318
F	-2.425353	0.0	0.0
