14

C	0.0	0.0	0.0
C	-0.438748	-0.122632	-1.4611
F	1.351037	0.0	0.0
H	0.449985	-0.445456	-2.011495
H	-1.231678	-0.86022	-1.513106
C	-0.482067	1.180293	0.721381
N	-0.577256	2.198302	1.302028
N	-0.362846	-1.247129	0.787678
O	-0.576128	-1.134314	1.986846
O	-0.247881	-2.309184	0.180908
N	-0.85095	1.196352	-1.938585
H	-1.755243	1.309111	-1.481358
H	-1.022168	1.122349	-2.933858
F	-2.377982	0.0	0.0
