14

C	0.0	0.0	0.0
C	-0.411934	-0.340114	-1.459138
F	1.365964	0.0	0.0
H	0.529105	-0.56004	-1.978001
H	-1.020168	-1.236463	-1.419129
C	-0.471161	1.304828	0.468053
N	-0.565908	2.43231	0.790163
N	-0.372956	-1.067857	1.004883
O	-0.524416	-0.71833	2.168426
O	-0.340849	-2.226282	0.6059
N	-1.155153	0.675969	-2.176142
H	-1.980841	0.767242	-1.574852
H	-0.64726	1.553636	-2.147281
F	-2.367332	0.0	0.0
