14

C	0.0	0.0	0.0
C	-0.411873	-0.120153	-1.492888
F	1.369773	0.0	0.0
H	-1.016577	-1.014917	-1.582537
H	0.528736	-0.257734	-2.038823
C	-0.467099	1.224052	0.652366
N	-0.557796	2.301023	1.115875
N	-0.369778	-1.202924	0.838551
O	-0.345184	-2.290763	0.27357
O	-0.512848	-1.027364	2.042203
N	-1.1697	0.982771	-2.049648
H	-2.000042	0.959562	-1.444869
H	-0.680117	1.855103	-1.879232
F	-2.380455	0.0	0.0
