14

C	0.0	0.0	0.0
C	-0.41216	-0.025928	-1.486644
F	1.348073	0.0	0.0
H	-0.481056	1.019173	-1.798962
H	-1.410976	-0.446171	-1.508126
C	-0.517678	1.144798	0.749927
N	-0.606601	2.163965	1.331676
N	-0.393867	-1.283872	0.702087
O	-0.467118	-1.258145	1.925006
O	-0.44458	-2.296592	0.007479
N	0.609638	-0.689311	-2.315317
H	0.574246	-1.672535	-2.074438
H	0.279163	-0.625392	-3.270735
F	-2.371709	0.0	0.0
