14

C	0.0	0.0	0.0
C	-0.388948	-0.321306	-1.47846
F	1.356889	0.0	0.0
H	0.573366	-0.394775	-1.999317
H	-0.865825	-1.296804	-1.470663
C	-0.469911	1.314782	0.442987
N	-0.569639	2.458684	0.695894
N	-0.392457	-1.058933	1.003877
O	-0.375283	-2.220398	0.612377
O	-0.543875	-0.698993	2.164789
N	-1.252076	0.607762	-2.175449
H	-0.83176	1.531132	-2.161846
H	-2.065966	0.62171	-1.544681
F	-2.391991	0.0	0.0
