14

C	0.0	0.0	0.0
C	-0.376985	0.066758	-1.478087
F	1.358592	0.0	0.0
H	-1.465272	0.093946	-1.487678
H	-0.002018	-0.858036	-1.93019
C	-0.485687	1.130455	0.793434
N	-0.583524	2.110263	1.435672
N	-0.410272	-1.298294	0.656068
O	-0.459501	-2.292256	-0.06125
O	-0.51185	-1.298661	1.876695
N	0.22679	1.278038	-2.033168
H	-0.374973	1.654056	-2.751558
H	1.131809	1.08274	-2.438027
F	-2.421481	0.0	0.0
