14

C	0.0	0.0	0.0
C	-0.451322	0.186101	-1.455622
F	1.350502	0.0	0.0
H	0.460079	0.108642	-2.060678
H	-1.128104	-0.629159	-1.693144
C	-0.470985	1.013377	0.950584
N	-0.53274	1.882258	1.740484
N	-0.36987	-1.379198	0.526984
O	-0.583267	-1.500881	1.725667
O	-0.276575	-2.301982	-0.27659
N	-1.054622	1.50667	-1.617158
H	-1.289122	1.624376	-2.596743
H	-1.929234	1.362823	-1.097383
F	-2.417765	0.0	0.0
