14

C	0.0	0.0	0.0
C	-0.405636	-0.28377	-1.476615
F	1.353672	0.0	0.0
H	-0.956035	-1.218133	-1.476662
H	0.544935	-0.424843	-2.004584
C	-0.47854	1.28758	0.50861
N	-0.54728	2.413352	0.843621
N	-0.37625	-1.102847	0.969746
O	-0.436261	-0.798576	2.156527
O	-0.444434	-2.241657	0.525077
N	-1.213604	0.711607	-2.150383
H	-0.760777	1.618022	-2.090759
H	-2.03857	0.730069	-1.537334
F	-2.385907	0.0	0.0
