14

C	0.0	0.0	0.0
C	-0.400034	0.051711	-1.487785
F	1.35649	0.0	0.0
H	-1.458419	-0.192078	-1.511754
H	-0.268036	1.100358	-1.775578
C	-0.522113	1.118334	0.786413
N	-0.589339	2.110117	1.417551
N	-0.416932	-1.301039	0.65145
O	-0.548209	-2.278042	-0.078559
O	-0.457521	-1.318533	1.87576
N	0.498905	-0.765618	-2.315565
H	0.397978	-0.450645	-3.273888
H	0.158972	-1.718609	-2.275358
F	-2.406939	0.0	0.0
