14

C	0.0	0.0	0.0
C	-0.370739	-0.063906	-1.506374
F	1.35748	0.0	0.0
H	-1.401988	-0.39158	-1.549243
H	-0.327945	0.971589	-1.859403
C	-0.504394	1.179232	0.698377
N	-0.582499	2.227286	1.228658
N	-0.400842	-1.247686	0.751802
O	-0.455169	-2.291828	0.10721
O	-0.495219	-1.165013	1.969888
N	0.509885	-0.884182	-2.327684
H	1.474071	-0.627228	-2.159237
H	0.399034	-1.841885	-2.018791
F	-2.343557	0.0	0.0
