14

C	0.0	0.0	0.0
C	-0.412262	0.090907	-1.49411
F	1.3707	0.0	0.0
H	0.525987	0.022811	-2.0538
H	-1.024573	-0.777753	-1.703548
C	-0.466694	1.116788	0.822006
N	-0.566713	2.112539	1.43908
N	-0.368591	-1.312016	0.656498
O	-0.515738	-1.312959	1.872328
O	-0.338972	-2.306653	-0.059668
N	-1.159123	1.267322	-1.892159
H	-0.65651	2.103386	-1.615164
H	-1.987897	1.176721	-1.294859
F	-2.374107	0.0	0.0
