14

C	0.0	0.0	0.0
C	-0.443744	-0.183972	-1.456946
F	1.359194	0.0	0.0
H	-1.113304	-1.038383	-1.489405
H	0.471675	-0.403362	-2.020181
C	-0.467575	1.220897	0.663405
N	-0.546493	2.254502	1.217616
N	-0.36084	-1.200806	0.86003
O	-0.529298	-1.016715	2.058454
O	-0.299397	-2.296656	0.31053
N	-1.052145	1.050337	-1.945548
H	-1.938095	1.032374	-1.426787
H	-1.249262	0.931118	-2.933968
F	-2.408642	0.0	0.0
