15

C	0.0	0.0	0.0
C	-0.372407	-0.531804	-1.390275
Cl	1.851029	0.0	0.0
H	0.323095	-0.085152	-2.104202
H	-0.151656	-1.603948	-1.35286
C	-0.319158	1.435099	0.121706
N	-0.540096	2.585637	0.219672
N	-0.537827	-0.816394	1.035441
H	-0.523983	-0.335818	1.926581
H	-1.509628	-1.023669	0.807542
C	-1.802178	-0.25727	-1.830477
H	-1.970747	0.812407	-1.971127
H	-2.577042	-0.587507	-1.138433
H	-1.977614	-0.754239	-2.789223
Cl	-4.651883	0.0	0.0
