15

C	0.0	0.0	0.0
C	-0.49005	-0.456569	-1.375553
Cl	1.798454	0.0	0.0
H	0.005516	0.164314	-2.127445
H	-1.562849	-0.242982	-1.395068
C	-0.320746	1.438419	0.180501
N	-0.514805	2.58769	0.331302
N	-0.519307	-0.844782	1.031894
H	-0.307761	-0.444971	1.940169
H	-1.541399	-0.820673	0.913093
C	-0.244009	-1.936182	-1.637217
H	-0.572801	-2.185377	-2.649928
H	0.814374	-2.193164	-1.545738
H	-0.809871	-2.547783	-0.935339
Cl	-3.597213	0.0	0.0
