15

C	0.0	0.0	0.0
C	-0.45861	0.052576	-1.461177
Cl	1.802209	0.0	0.0
H	-1.547184	-0.045618	-1.414558
H	-0.048165	-0.842434	-1.944993
C	-0.364312	1.242326	0.705833
N	-0.579793	2.246611	1.274375
N	-0.497633	-1.122403	0.749178
H	-0.349894	-1.95544	0.185953
H	-1.514498	-0.976761	0.803844
C	-0.076074	1.310245	-2.227929
H	-0.464397	1.251189	-3.248443
H	-0.518841	2.191705	-1.758511
H	1.006061	1.4493	-2.280791
Cl	-3.579758	0.0	0.0
