15

C	0.0	0.0	0.0
C	-0.480742	-0.41495	-1.391414
Cl	1.798556	0.0	0.0
H	-1.549969	-0.187877	-1.417868
H	0.029848	0.218749	-2.122068
C	-0.320272	1.431561	0.222351
N	-0.507237	2.577435	0.405201
N	-0.523725	-0.877413	1.002055
H	-0.317559	-0.50482	1.922873
H	-1.545196	-0.851153	0.877067
C	-0.254593	-1.890908	-1.687253
H	-0.857415	-2.507958	-1.023228
H	-0.55481	-2.103124	-2.71793
H	0.793369	-2.173962	-1.566567
Cl	-3.600136	0.0	0.0
