15

C	0.0	0.0	0.0
C	-0.514947	0.408426	-1.373419
Cl	1.851169	0.0	0.0
H	-1.602579	0.262985	-1.311181
H	-0.094933	-0.300284	-2.096949
C	-0.321527	1.00508	1.02456
N	-0.53219	1.802399	1.860603
N	-0.510355	-1.245494	0.37663
H	-0.237695	-1.565659	1.292077
H	-0.445019	-1.952704	-0.33694
C	-0.183389	1.840735	-1.766631
H	-0.529947	2.031282	-2.785187
H	-0.694825	2.544458	-1.107996
H	0.891484	2.041114	-1.727609
Cl	-3.906119	0.0	0.0
