15

C	0.0	0.0	0.0
C	-0.340642	-0.435101	-1.440971
Cl	1.805855	0.0	0.0
H	0.209842	0.219172	-2.124011
H	0.092131	-1.437446	-1.554679
C	-0.386707	1.402432	0.21633
N	-0.670019	2.53027	0.37752
N	-0.541335	-0.805923	1.053793
H	-0.495469	-1.781869	0.781473
H	-1.524741	-0.562589	1.177113
C	-1.819479	-0.439741	-1.77672
H	-2.402061	-1.113776	-1.153539
H	-2.281637	0.537759	-1.644664
H	-1.947282	-0.741282	-2.8207
Cl	-4.564398	0.0	0.0
