15

C	0.0	0.0	0.0
C	-0.537373	0.033045	-1.423308
Cl	1.856008	0.0	0.0
H	-0.058458	0.863492	-1.94812
H	-1.609617	0.240998	-1.303441
C	-0.308497	1.261538	0.693181
N	-0.503546	2.266138	1.268746
N	-0.51024	-1.077446	0.734179
H	-0.345527	-1.975874	0.309586
H	-0.273473	-1.062163	1.713683
C	-0.34929	-1.27605	-2.177629
H	-0.634876	-1.13853	-3.222476
H	-1.006539	-2.048574	-1.772908
H	0.68783	-1.621952	-2.152139
Cl	-3.935322	0.0	0.0
