12

C	-0.334457	-0.135026	-1.481138
C	0.0	0.0	0.0
Br	-0.315144	1.838459	-2.260401
H	1.09423	0.0	0.0
H	-1.368215	-0.374056	-1.728304
H	-0.381532	0.919972	0.440055
N	0.58713	-0.983128	-2.06444
H	0.520534	-1.067492	-3.067816
H	1.53823	-0.796486	-1.726653
C	-0.510164	-1.153205	0.724449
N	-0.947903	-2.069812	1.314914
H	2.801153	0.0	0.0
