12

C	-0.344477	-0.250112	-1.478804
C	0.0	0.0	0.0
Br	-0.673484	1.56361	-2.338219
H	1.093607	0.0	0.0
H	-1.314352	-0.732759	-1.616523
H	-0.392909	0.92941	0.408497
N	0.674146	-0.95374	-2.157567
H	0.44106	-1.92865	-2.270592
H	1.5788	-0.821564	-1.693229
C	-0.47407	-1.135377	0.772622
N	-0.861251	-2.077935	1.359014
H	2.819611	0.0	0.0
