12

C	-0.339523	0.033078	-1.475948
C	0.0	0.0	0.0
Br	-2.295358	-0.187151	-1.780707
H	1.097182	0.0	0.0
H	0.102454	-0.84654	-1.945838
H	-0.341746	-0.921592	0.479653
N	0.119439	1.204397	-2.173879
H	-0.236146	2.027254	-1.696003
H	1.133918	1.203569	-2.051202
C	-0.50863	1.154104	0.717154
N	-0.90055	2.10792	1.281611
H	2.763225	0.0	0.0
