12

C	-0.405523	0.024315	-1.44397
C	0.0	0.0	0.0
Br	-2.404937	-0.769501	-1.615076
H	1.097691	0.0	0.0
H	0.116099	-0.746475	-2.006097
H	-0.31236	-0.931922	0.473691
N	-0.297224	1.261838	-2.047012
H	-0.527014	1.267787	-3.028341
H	-0.754629	2.007848	-1.541884
C	-0.533	1.130407	0.73506
N	-0.957502	2.059788	1.317018
H	2.709831	0.0	0.0
