19

C	-0.286753	0.010143	-1.504991
C	0.0	0.0	0.0
Cl	-2.10296	0.087814	-1.771477
H	1.09952	0.0	0.0
N	0.282043	1.155839	-2.192384
H	-0.026851	2.01048	-1.742241
H	1.293527	1.095094	-2.057899
C	0.236611	-1.248896	-2.166101
H	1.315179	-1.296571	-1.983536
H	0.044028	-1.196842	-3.238869
H	-0.226885	-2.129151	-1.728504
N	-0.466197	-1.243264	0.609398
H	-1.423335	-1.126949	0.926436
H	0.112018	-1.436911	1.417892
C	-0.469123	1.247602	0.742602
H	-0.024647	2.16373	0.34711
H	-1.559685	1.341029	0.713398
H	-0.153293	1.169001	1.786246
Cl	3.490465	0.0	0.0
