19

C	-0.429753	-0.04754	-1.479276
C	0.0	0.0	0.0
Cl	-0.029122	1.535449	-2.26032
H	1.096515	0.0	0.0
N	0.314123	-1.064201	-2.204688
H	1.303759	-0.840183	-2.094797
H	0.169024	-1.915568	-1.665169
C	-1.917152	-0.28291	-1.669784
H	-2.132853	-0.33235	-2.737661
H	-2.508367	0.519224	-1.22259
H	-2.187416	-1.235121	-1.206701
N	-0.38297	-1.306345	0.577794
H	-1.190958	-1.198774	1.180488
H	0.387768	-1.630885	1.149774
C	-0.523295	1.167658	0.821248
H	-0.218407	2.126585	0.40295
H	-1.61828	1.149295	0.891878
H	-0.113731	1.096703	1.832582
Cl	3.476184	0.0	0.0
