19

C	-0.577275	0.010082	-1.426307
C	0.0	0.0	0.0
Cl	-0.125168	1.607271	-2.230508
H	1.094395	0.0	0.0
N	-0.007501	-1.055312	-2.184979
H	0.353977	-1.757477	-1.554188
H	-0.684598	-1.472909	-2.807367
C	-2.100463	-0.02329	-1.430277
H	-2.463841	-0.050181	-2.462273
H	-2.427157	-0.931705	-0.915899
H	-2.536236	0.853125	-0.948752
N	-0.363223	-1.303178	0.60347
H	-1.120216	-1.187211	1.266571
H	0.444775	-1.635697	1.115945
C	-0.450871	1.163088	0.87512
H	-0.217193	2.127658	0.42521
H	0.085323	1.09848	1.825302
H	-1.526995	1.121917	1.085099
Cl	3.496078	0.0	0.0
