19

C	-0.428815	0.006677	-1.479939
C	0.0	0.0	0.0
Cl	-0.047852	1.623502	-2.19852
H	1.101103	0.0	0.0
N	0.325679	-0.972347	-2.245355
H	0.192838	-1.8458	-1.739669
H	1.312974	-0.740534	-2.126956
C	-1.914933	-0.234908	-1.67709
H	-2.131271	-0.2477	-2.746099
H	-2.510706	0.547538	-1.201051
H	-2.178784	-1.204953	-1.247369
N	-0.377935	-1.329494	0.526713
H	0.393718	-1.665027	1.092199
H	-1.191365	-1.250816	1.128922
C	-0.525439	1.134264	0.866751
H	-0.223263	2.110568	0.484831
H	-1.62125	1.109476	0.936886
H	-0.114614	1.025504	1.875593
Cl	3.4737	0.0	0.0
