19

C	-0.48641	0.030068	-1.449492
C	0.0	0.0	0.0
Cl	0.144544	-1.556086	-2.249183
H	1.099388	0.0	0.0
N	-1.904168	0.065062	-1.488319
H	-2.248011	-0.101337	-2.425826
H	-2.247587	-0.655604	-0.860648
C	0.152764	1.138525	-2.259418
H	1.23649	1.103818	-2.13186
H	-0.090051	1.025316	-3.319444
H	-0.23186	2.101604	-1.917545
N	-0.578818	-1.18056	0.665338
H	-0.042327	-1.988825	0.365905
H	-0.401583	-1.083268	1.659574
C	-0.456242	1.245177	0.752814
H	-0.050964	1.206628	1.768773
H	-1.545667	1.30376	0.799051
H	-0.064083	2.152583	0.292439
Cl	3.560274	0.0	0.0
