19

C	-0.310973	-0.061901	-1.518804
C	0.0	0.0	0.0
Cl	-0.066447	1.660219	-2.249055
H	1.098468	0.0	0.0
N	0.605048	-0.982561	-2.084148
H	0.557495	-0.991901	-3.095182
H	1.557892	-0.770043	-1.784822
C	-1.739566	-0.413223	-1.891639
H	-1.962944	-1.430097	-1.563935
H	-1.8665	-0.366245	-2.976056
H	-2.444582	0.28613	-1.439235
N	-0.410617	-1.23288	0.675542
H	0.058283	-2.012762	0.230038
H	-1.411197	-1.37136	0.579582
C	-0.565585	1.187448	0.751298
H	-0.145831	2.127347	0.399846
H	-0.314747	1.059648	1.805093
H	-1.658024	1.237628	0.662543
Cl	3.51699	0.0	0.0
