9
Coordinates from ORCA-job run
  C   -0.93878239616610     -0.95929447650092     -0.07061580709695
  C   -0.12098893456658      0.09568706615392     -0.05331041541187
  H   -1.96869145540200     -0.84736944670778     -0.38589886128298
  H   -0.56937931590089     -1.93074649302877      0.23272708119440
  N   1.29477505068554     -0.06050256989474      0.37981903955835
  O   1.66404258930755     -1.18281661627340      0.69385516906518
  O   1.97200664398353      0.96235754762886      0.38313623294801
  C   -0.49075692377636      1.42311601124745     -0.43021717502381
  N   -0.84222525816469      2.49856897737538     -0.74949526395034
