9
Coordinates from ORCA-job run
  C   -0.94780754344840     -0.94717942026592     -0.10140743305150
  C   -0.11944068245732      0.09872517705163     -0.05167744956414
  H   -0.59595962591376     -1.92657817360054      0.19671035252482
  H   -1.96937709319940     -0.81950712118835     -0.43723431773489
  N   1.28721591707872     -0.08091992629911      0.40122985531246
  O   2.00593267630245      0.91070233336187      0.32886646996118
  O   1.60949554524594     -1.19007993226926      0.80111640541023
  C   -0.46788359416584      1.43580921108404     -0.41533954880427
  N   -0.80217559944237      2.52002785212565     -0.72326433405390
