9
Coordinates from ORCA-job run
  C   -1.07609679892078     -0.76305008387544      0.25547784681747
  C   -0.10404064585758      0.08253281804121     -0.09414907129917
  H   -2.07660423316517     -0.63856883134802     -0.13937637856812
  H   -0.86359262201578     -1.57517350346757      0.93914552321616
  N   1.27113101647118     -0.08958862828145      0.44990426916295
  O   2.11175642282516      0.70878833711726      0.04861314291266
  O   1.44961842159097     -1.00258261599383      1.24280543487746
  C   -0.26404884779073      1.18859603957356     -0.98410623566024
  N   -0.44812271313728      2.08804646823427     -1.71831453145918
