9
Coordinates from ORCA-job run
  C   -1.07517391241768     -0.72962585084217      0.34168243407242
  C   -0.10798841313136      0.08357927389821     -0.08913228155060
  H   -2.09579055769940     -0.58966217654099      0.00776544739153
  H   -0.83769770237004     -1.53298154032602      1.02755134500588
  N   1.29461041628891     -0.11057036608254      0.37077491673582
  O   2.12068933676913      0.67969217028829     -0.07421769459617
  O   1.50747299135148     -1.03145540208954      1.14598403054938
  C   -0.29910416101111      1.17353178739943     -0.99261411907440
  N   -0.50801799777992      2.05849210429533     -1.73779407853387
