9
Coordinates from ORCA-job run
  C   -1.07327327097249     -0.73502864503848      0.33757259497408
  C   -0.10672110130714      0.07810088015200     -0.09481914796370
  H   -0.84244251907829     -1.50916396926582      1.05837309617226
  H   -2.08603683194696     -0.62339563865340     -0.02897265725997
  N   1.28506226118028     -0.07718265123510      0.40990749832286
  O   1.49076956979467     -0.96768857672534      1.22160701591634
  O   2.11086798155402      0.71111759248111     -0.03928199978082
  C   -0.28831132139223      1.13316789668492     -1.04089512991455
  N   -0.48891476783186      1.98807311160011     -1.82249127046651
