9
Coordinates from ORCA-job run
  C   -0.93526575329282     -0.96205995462417     -0.07161538000887
  C   -0.12053411068515      0.09537285812134     -0.05362573858602
  H   -0.56506868341413     -1.93281351907977      0.23272185398890
  H   -1.96475991580818     -0.85280657776243     -0.38924407580657
  N   1.29478369193647     -0.05589571890871      0.38248890556152
  O   1.66180952808712     -1.17314604090367      0.71606236786407
  O   1.97398797085282      0.96564178450811      0.36803256828376
  C   -0.49460991800650      1.42132244280266     -0.43172964106454
  N   -0.85134280966964      2.49438472584665     -0.75309086023224
