9
Coordinates from ORCA-job run
  C   -1.00998998626993     -0.87712037280498     -0.12748376756380
  C   -0.11803227196284      0.11028445835716     -0.01932956012868
  H   -2.05767537795872     -0.65169146887160     -0.28321903701022
  H   -0.68411191173282     -1.90727539387503     -0.05939097116228
  N   1.32224450450401     -0.20038110345804      0.19513158580145
  O   2.07315549176492      0.76567362930466      0.28400539626778
  O   1.63668708612325     -1.37960594137898      0.26421342482378
  C   -0.42766043683078      1.50302532321241     -0.09322808487297
  N   -0.73361709763709      2.63609086951441     -0.16069898615506
