9
Coordinates from ORCA-job run
  C   -1.09426707712368     -0.74585698882593      0.22653756862478
  C   -0.09980992165440      0.08394696678960     -0.09709942591247
  H   -2.08058914592727     -0.60804524763371     -0.19868017445493
  H   -0.91349110077696     -1.56010318534195      0.91672748596943
  N   1.25588741249024     -0.10621921815257      0.48807303652585
  O   2.11068125758977      0.70120961641858      0.13809737928084
  O   1.40614769459457     -1.04098593057095      1.26130897244023
  C   -0.21753256287680      1.18964912703592     -0.99413250760120
  N   -0.36502655631549      2.08640486028100     -1.73983233487253
