9
Coordinates from ORCA-job run
  C   -1.10114113658229     -0.71918713536518      0.27571545146611
  C   -0.10744848159107      0.10826876697502     -0.05617300963202
  H   -2.13023499898753     -0.43896808612813      0.08855983075768
  H   -0.87695355333132     -1.67424765785078      0.73347142579432
  N   1.30747601321271     -0.27738454285217      0.20058719930659
  O   2.15744911101742      0.54124773792505     -0.13486645252983
  O   1.50574950712577     -1.36576239124655      0.72067838449797
  C   -0.27965286200934      1.38967398858534     -0.66399475022158
  N   -0.47324359885434      2.43635931995738     -1.16297807943924
