9
Coordinates from ORCA-job run
  C   -0.91788958871161     -0.97235491895531     -0.13237334928929
  C   -0.11857671149195      0.09442321575422     -0.05981336649381
  H   -0.55315830556009     -1.94127744785280      0.18419103379537
  H   -1.92864261436657     -0.87301877956128     -0.50839376213115
  N   1.27138063031818     -0.04329996436738      0.45626206902637
  O   1.93515451657402      0.98754276464175      0.49552376232530
  O   1.63465134852564     -1.16009053505630      0.79540187945209
  C   -0.48629719408229      1.41899712488380     -0.44906335627738
  N   -0.83662208120534      2.49007854051331     -0.78373491040749
