14

C	-0.427729	-0.031759	-1.477386
C	0.0	0.0	0.0
Cl	0.026509	1.55146	-2.200626
H	1.093729	0.0	0.0
H	-0.365068	0.906956	0.486841
C	0.309459	-1.140778	-2.216926
H	1.380897	-0.997796	-2.057283
H	0.075205	-1.114209	-3.282439
H	0.013301	-2.109207	-1.806308
C	-1.880587	-0.163659	-1.622318
N	-3.044124	-0.287885	-1.732177
C	-0.49898	-1.175837	0.703553
N	-0.900819	-2.13175	1.255111
Cl	3.321742	0.0	0.0
