14

C	-0.401728	0.0763	-1.477758
C	0.0	0.0	0.0
Cl	-2.200326	0.253071	-1.646635
H	1.094962	0.0	0.0
H	-0.365552	-0.920686	0.459862
C	0.290134	1.244399	-2.164847
H	1.36869	1.127861	-2.022891
H	-0.032612	2.177896	-1.700245
H	0.045083	1.267494	-3.227639
C	-0.058868	-1.188898	-2.13171
N	0.185165	-2.20969	-2.659425
C	-0.487785	1.152956	0.745032
N	-0.886969	2.08141	1.342598
Cl	3.293822	0.0	0.0
