13

C	-0.385619	0.053537	-1.467571
C	0.0	0.0	0.0
Br	-2.327049	0.360707	-1.760169
H	1.095971	0.0	0.0
H	0.099203	0.902202	-1.954051
H	-0.358184	-0.932775	0.443719
C	-0.054702	-1.169416	-2.190021
N	0.18376	-2.155555	-2.782361
C	-0.463182	1.212072	0.796419
H	-0.141896	2.136359	0.308127
H	-1.547663	1.24594	0.922507
H	0.005217	1.188424	1.782485
Cl	3.436844	0.0	0.0
