15

C	0.012577	-0.014943	-0.040734
C	-0.39854	0.142515	-1.51951
Br	1.997159	0.1081	0.089343
H	0.288844	-0.469288	-2.116744
H	-0.201145	-1.048389	0.240974
C	-0.646803	0.955048	0.906718
H	-0.34268	0.753373	1.936815
H	-0.381788	1.984703	0.655344
H	-1.739292	0.819737	0.816655
C	-0.181953	1.534998	-1.957166
N	-0.00209	2.640916	-2.30809
N	-1.757259	-0.268723	-1.812224
H	-1.792724	-1.282458	-1.764509
H	-2.457383	0.055359	-1.090695
H	-3.560198	0.217088	0.127131
