15

C	0.008526	-0.009558	-0.036798
C	-0.414593	0.275613	-1.492655
Br	1.991742	0.13009	0.095009
H	0.2746	-0.271752	-2.147516
H	-0.188691	-1.067312	0.150853
C	-0.65874	0.860836	0.9982
H	-1.749699	0.720705	0.90221
H	-0.408446	1.912533	0.840278
H	-0.345385	0.570506	2.004055
C	-0.216832	1.704053	-1.804898
N	-0.04241	2.837498	-2.056791
N	-1.771892	-0.12366	-1.809512
H	-1.794468	-1.137855	-1.856499
H	-2.46617	0.12271	-1.051321
H	-3.579437	0.166163	0.157988
