12

C	-0.461583	-0.003141	-1.439746
C	0.0	0.0	0.0
F	-0.081932	1.200731	-2.018051
H	1.09136	0.0	0.0
H	0.019043	-0.81245	-1.988087
H	-0.393232	0.860632	0.539777
C	-1.929486	-0.10865	-1.579897
N	-3.099223	-0.153871	-1.671612
N	-0.466114	-1.204248	0.676777
O	-0.606779	-2.228143	-0.006505
O	-0.638077	-1.161734	1.895249
F	2.516856	0.0	0.0
