12

C	-0.548067	0.079805	-1.400075
C	0.0	0.0	0.0
F	0.217889	-0.632001	-2.309712
H	1.08827	0.0	0.0
H	-1.563691	-0.329297	-1.470384
H	-0.314584	0.844977	0.61326
C	-0.587419	1.489563	-1.839481
N	-0.662818	2.602559	-2.203852
N	-0.477511	-1.206918	0.676276
O	-0.824808	-2.16992	-0.013635
O	-0.459735	-1.216465	1.907591
F	2.497912	0.0	0.0
