12

C	-0.396212	-0.010522	-1.439854
C	0.0	0.0	0.0
F	-1.786641	-0.039771	-1.638362
H	1.091674	0.0	0.0
H	-0.021523	0.892516	-1.923799
H	-0.398709	-0.844879	0.558611
C	0.163416	-1.195459	-2.110652
N	0.537489	-2.146811	-2.685658
N	-0.476768	1.220768	0.654737
O	-0.786164	1.146332	1.845146
O	-0.489854	2.269289	0.005225
F	2.505392	0.0	0.0
