12

C	-0.396994	0.012699	-1.439765
C	0.0	0.0	0.0
F	-1.787812	-0.011483	-1.639168
H	1.091656	0.0	0.0
H	-0.022326	0.923278	-1.909048
H	-0.398543	-0.853929	0.544348
C	0.163567	-1.161375	-2.129037
N	0.53623	-2.107565	-2.71245
N	-0.476598	1.209207	0.67661
O	-0.78566	1.113544	1.865818
O	-0.488605	2.269698	0.046194
F	2.505774	0.0	0.0
