12

C	-0.378775	0.000561	-1.465694
C	0.0	0.0	0.0
F	-0.06406	1.252315	-1.981556
H	1.09137	0.0	0.0
H	0.214948	-0.743502	-1.996621
H	-0.419828	0.854196	0.527809
C	-1.814737	-0.226976	-1.727936
N	-2.960457	-0.368626	-1.940525
N	-0.462808	-1.220011	0.644962
O	-0.65543	-1.203317	1.861156
O	-0.575886	-2.23208	-0.060619
F	2.515847	0.0	0.0
