12

C	-0.409591	-0.033638	-1.456732
C	0.0	0.0	0.0
F	-0.052429	1.181011	-2.029109
H	1.091501	0.0	0.0
H	0.131067	-0.826279	-1.973858
H	-0.402681	0.874485	0.508345
C	-1.863526	-0.198615	-1.668406
N	-3.024412	-0.284605	-1.825174
N	-0.47255	-1.192215	0.686048
O	-0.622648	-2.220082	0.009779
O	-0.636984	-1.139151	1.905084
F	2.513985	0.0	0.0
