14
Coordinates from ORCA-job run
  C   1.09891569519637      0.57499357477701      0.03249265220759
  C   -0.33506614420631      0.13901222347628     -0.32130152796858
  Cl  1.34283014378164      0.78902948100710      1.78621941057604
  H   -0.29998207808242     -0.07451358587683     -1.40272480897389
  H   1.29699019780339      1.54982866049864     -0.42127050429401
  C   2.06974279003468     -0.38671322991079     -0.48482238123668
  N   2.81371536938716     -1.17835664301497     -0.93073495915195
  N   -1.23687308359092      1.22951504165706      0.01275803672532
  H   -1.23137897768152      1.93931885847412     -0.70947054897234
  H   -2.18448815005580      0.88681916782283      0.10242654738865
  C   -0.74930507017416     -1.12935298733993      0.40443246722361
  H   -0.86185839238475     -0.93263147459086      1.47118811356651
  H   -0.01644052654159     -1.92638824304876      0.26638594924508
  H   -1.70680177348579     -1.48156084393088      0.01242155366464
