14
Coordinates from ORCA-job run
  C   1.04583427754725      0.28592442596109     -0.57185142770629
  C   -0.48773275011766      0.12355395306023     -0.44668463565920
  Cl  1.45636191695110      1.88672304795703     -1.26081413173303
  H   -0.88343846170376      0.30062216191490     -1.45293463706388
  H   1.45031869940860     -0.45491712602166     -1.26580490742349
  C   1.68689250090970      0.13293730224218      0.72962165658615
  N   2.13672275484995     -0.01135701109553      1.80501860687579
  N   -1.12951298056321      1.06010454637354      0.44845310899078
  H   -0.80455283153192      0.92796162515712      1.39975826463990
  H   -0.94347623042170      2.01700992665723      0.17568845165908
  C   -0.81374920125219     -1.30089926400291     -0.01920014498659
  H   -0.44533581487249     -1.49996169416524      0.99127152533019
  H   -0.37289127209973     -2.03685630607361     -0.69597097170017
  H   -1.89644060710393     -1.42984558796438     -0.01655075780926
