14
Coordinates from ORCA-job run
  C   1.01626994642482      0.59523027243935     -0.03238746011205
  C   -0.39701906458600      0.07902184562784     -0.40392500133610
  Cl  1.13059586181379      1.02160270303034      1.70350371781394
  H   -0.34075837895389     -0.12617414637618     -1.48065612354792
  H   1.21200424220214      1.52146309535887     -0.57902326418700
  C   2.05152749808003     -0.37568578872629     -0.37013963760937
  N   2.84865230966372     -1.18020015147093     -0.68176791262724
  N   -1.44738806870071      1.05708816464553     -0.20557292146902
  H   -1.26979214729954      1.90415063892340     -0.73218567508640
  H   -1.52032562787388      1.30306344308871      0.77465177326314
  C   -0.74680910866241     -1.21011342305067      0.32146250559839
  H   -0.82796762168623     -1.04095725742984      1.39736589983291
  H   0.00268635650846     -1.98517019698787      0.15123397126321
  H   -1.71167619693030     -1.56431919907225     -0.04155987179648
