14
Coordinates from ORCA-job run
  C   1.09428296421165      0.33307113356696     -0.51197989877915
  C   -0.42175112668061      0.16492608135005     -0.39259405450514
  Cl  1.50653498764738      1.99509107766021     -1.04552570653031
  H   -0.82650512315275      0.40246161068175     -1.38973961263532
  H   1.47734957977490     -0.33055159876075     -1.29101279141365
  C   1.77492759006418      0.03361838070342      0.74430072399013
  N   2.33160857428601     -0.26082081452877      1.73496771592720
  N   -0.90892565542202      1.03696145307413      0.66191397952490
  H   -1.87675028528438      0.82422161142157      0.86851511794939
  H   -0.85671718844840      2.00782887584174      0.37900962139206
  C   -0.75319980600402     -1.28061493624290     -0.05020990558400
  H   -0.32342131825976     -1.97295069229449     -0.77811925087692
  H   -1.83682411630319     -1.42477355994665     -0.05589612940314
  H   -0.37960907642900     -1.52846862252628      0.94537019094394
