14
Coordinates from ORCA-job run
  C   1.11263220409862      0.58132533548733     -0.05464207226056
  C   -0.31758556767131      0.15119506473724     -0.40644645731318
  Cl  1.25910198965515      1.04143530153044      1.67235043094996
  H   -0.27914472693774     -0.07572508559841     -1.47937651209327
  H   1.34425791031403      1.48228525388627     -0.62510094339668
  C   2.07979043512965     -0.46666450686468     -0.36169449076427
  N   2.82806598756689     -1.32723740695813     -0.64205429424260
  N   -1.17528605131392      1.32030832115571     -0.25544302621987
  H   -2.06815003825471      1.14372106691061     -0.69996370925142
  H   -1.35585608737950      1.48735073805292      0.72843910871759
  C   -0.76422093890790     -1.09902599731096      0.34525705397784
  H   -1.76647053427657     -1.38168817605924      0.01433818491500
  H   -0.80202077358085     -0.91213748141163      1.42072391311245
  H   -0.09611380844184     -1.94514242755747      0.16361281386901
