14
Coordinates from ORCA-job run
  C   1.06866060252741      0.30496876202048     -0.51621301942383
  C   -0.46489016743719      0.10338455381627     -0.47629301174907
  Cl  1.47655561339386      1.90440370230963     -1.20962422172377
  H   -0.80619631246413      0.25255244807963     -1.50669068717210
  H   1.53166349046615     -0.43630379157023     -1.17213342200232
  C   1.63692885764605      0.19089203419459      0.82257829272245
  N   2.02723357953649      0.07672673982454      1.92450959890345
  N   -1.18135599936898      1.03705533138654      0.36342529673409
  H   -0.91148111545258      0.92633901627882      1.33452072868266
  H   -1.00137009730499      1.99423160406769      0.08728500267933
  C   -0.77800517475787     -1.32199347357780     -0.04235915285989
  H   -0.28224272270616     -2.05691957617277     -0.68122723028788
  H   -0.46087533192094     -1.49535119271271      0.99001821306097
  H   -1.85562522215710     -1.47898615794468     -0.09679638756408
