14
Coordinates from ORCA-job run
  C   1.02097795755974      0.58506246286869     -0.07768582624334
  C   -0.40413225861099      0.06877398560145     -0.40068649467058
  Cl  1.17174838692430      1.08776287018558      1.63447305308978
  H   -0.37147678482963     -0.17867195711578     -1.46954996170211
  H   1.21760640515045      1.48280848037790     -0.66961526320232
  C   2.03968820823741     -0.41170271210309     -0.38880289157313
  N   2.82203277512020     -1.23914176697762     -0.67643771709179
  N   -1.44189554468416      1.06341854741836     -0.21958429999739
  H   -1.26343733531983      1.89197904210695     -0.77453236122946
  H   -1.49913776210867      1.34043670938785      0.75325490177446
  C   -0.75000377402505     -1.18798960580827      0.38122338173384
  H   -0.79636757747850     -0.97930272192072      1.45240694877729
  H   -1.73008212861927     -1.54081718520163      0.05961781046432
  H   -0.01652056731599     -1.97961614881967      0.21691871987042
