15
Coordinates from ORCA-job run
  C   -0.60047573190978      0.36184628232397      0.61750829867964
  C   0.79299689454962      0.18087032829520     -0.03228040136614
  Cl  -0.25039761626131      0.92543940916009      2.33780117784532
  H   1.41745502623196      1.03856358868858      0.21005064421058
  N   -1.30925979708099     -0.85818538714813      0.55214932648593
  H   -0.82375271236327     -1.56351833933790      1.09467185901105
  H   -2.26241733633999     -0.76345833604490      0.87832259681544
  C   -1.38868821071382      1.43312954814079      0.00689062832245
  N   -2.07237896911011      2.27100485028687     -0.45210614196907
  N   0.61172487910337      0.25046996198623     -1.55240474665458
  O   0.49980007569497     -0.81110609618901     -2.15691224247989
  O   0.59076670294651      1.37653709361588     -2.04026877725247
  N   1.36366430098828     -1.04790363591359      0.38807817858945
  H   1.05898406342977     -1.78837427519279     -0.23450923249479
  H   2.37297843083481     -1.00631499267128      0.38300883225709
