15
Coordinates from ORCA-job run
  C   -0.81339024114327      0.13705986173777      0.28041134018957
  C   0.55727516898983     -0.36697489223070     -0.21829597326356
  Cl  -1.75831956407366      0.83953973813917     -1.07233313686590
  H   1.03948065661243     -0.89105019493296      0.61071033365825
  N   -0.63846582851315      1.16309005631977      1.26558429861066
  H   -1.52903915845787      1.43802971563747      1.66104906454241
  H   -0.01016991059022      0.86471110639825      2.00315620464847
  C   -1.55667952180447     -1.04775895379902      0.74838194170126
  N   -2.13445598247698     -1.95491003943728      1.22320248210321
  N   1.45005113712082      0.85539334148960     -0.43902919440530
  O   2.13745792118968      1.20912150732905      0.51467811290390
  O   1.41662437514630      1.37224947722702     -1.55034059223379
  N   0.42625226838658     -1.21433432292842     -1.33635969565949
  H   0.12649716215287     -0.69954528119247     -2.15443792988690
  H   1.28588151746110     -1.70662111975724     -1.53637725604277
