15
Coordinates from ORCA-job run
  C   -0.71986630531618      0.19675591222311      0.34918052648778
  C   0.55905973229424     -0.30003914469442     -0.38809157938009
  Cl  -1.38949178436948      1.65482263509534     -0.44955793963335
  H   0.83937367559456     -1.25238687470022      0.06788624575874
  N   -0.41729266789859      0.53044832884176      1.70560683786475
  H   -1.25530384121408      0.73071800320502      2.23667103424839
  H   0.12712910278437     -0.19268949203705      2.16121839973473
  C   -1.71959393538304     -0.87498731610014      0.17158997759630
  N   -2.46812751940729     -1.77697403247142      0.07396050475246
  N   1.67834479927473      0.64311810060439     -0.03023737092954
  O   2.37218009742116      0.32729423136136      0.93277242769610
  O   1.79230364346037      1.64807070404778     -0.71989556004120
  N   0.49834588259566     -0.44085008413369     -1.79726871768629
  H   -0.00377464709068     -1.27377661768174     -2.07055454522591
  H   0.10971376725425      0.37847564643990     -2.24428024124287
