12
Coordinates from ORCA-job run
  C   -1.21898369483945     -0.41931965133756      0.24930014571102
  C   0.03014616832069      0.15516746052889     -0.41158100671805
  Cl  -2.70256958095675      0.22746290529045     -0.48856074593486
  H   -0.04759090891419     -0.01677197936848     -1.49041483391004
  H   -1.24008663042485     -0.17568770027665      1.31206990297034
  H   -1.23204364712757     -1.50225762767936      0.12219466782270
  C   1.29087168561223     -0.52878251002295      0.12897431518888
  H   1.24943628378149     -1.60216415048423     -0.06781725340818
  H   1.38441915360866     -0.37307810261022      1.20561820656297
  H   2.18265063486313     -0.12500814765290     -0.35202835492239
  C   0.10558012037892      1.60330608516772     -0.20216185942276
  N   0.19617041569769      2.75713341844529     -0.00659318393961
