12
Coordinates from ORCA-job run
  C   -1.29814803808591     -0.25515629263613      0.15364970423551
  C   0.05363601533132      0.14511594506511     -0.44101714121557
  Cl  -1.58519792483246     -2.00204375974730     -0.04526818413222
  H   0.07047460850033     -0.17113161787944     -1.48989634542260
  H   -1.32682713047878     -0.03114614073267      1.22060111867133
  H   -2.11109232661861      0.26680536722000     -0.34964518157775
  C   1.24404503112021     -0.47128182667884      0.29685790530604
  H   1.23982851786570     -0.16754092572244      1.34612908369207
  H   1.19544634604617     -1.55901048251484      0.24595548162462
  H   2.18290361855663     -0.14374241057796     -0.15183043342287
  C   0.13829677731416      1.60871046684935     -0.41656203961425
  N   0.19563450528125      2.78042167735516     -0.36897396814431
