12
Coordinates from ORCA-job run
  C   -1.28133864399892     -0.25270663200847      0.26174220659807
  C   0.01609898033200      0.14905287474142     -0.44280056701138
  Cl  -1.59065654855992     -1.99696029404235      0.07228300540482
  H   -0.05778728376614     -0.15791623991071     -1.49195930774218
  H   -1.21793609387852     -0.03845672076447      1.32922378941046
  H   -2.13246627563166      0.27620972576371     -0.16549917274545
  C   1.26308470026643     -0.47744264758103      0.18515468982172
  H   1.20671996990482     -1.56447332380762      0.12932183300861
  H   2.16114322721235     -0.14836153709024     -0.33944378454723
  H   1.34967265610868     -0.18297424479374      1.23344924584340
  C   0.10832488812064      1.61199437215686     -0.41284851249084
  N   0.17514042389022      2.78303466733666     -0.35962342554998
