12
Coordinates from ORCA-job run
  C   -1.20201117633605     -0.44158738459549      0.27609474772179
  C   0.02353137108699      0.14792432337719     -0.41515035592248
  Cl  -2.71135841656147      0.14887934036393     -0.45668403277212
  H   -0.06589074124300     -0.04810374615364     -1.48892791032182
  H   -1.21534699525673     -0.17244308243445      1.33268628461424
  H   -1.18870026641414     -1.52719161434666      0.17524583399918
  C   1.30732423478384     -0.49667956731313      0.11973525826572
  H   2.18336069258518     -0.07578806353640     -0.37557943474882
  H   1.40792123734576     -0.32573035844807      1.19357063759987
  H   1.29159262898545     -1.57314290865767     -0.06413219155968
  C   0.06604099908084      1.60136062190995     -0.23556394545517
  N   0.10353643194333      2.76150243983442     -0.06129489142070
