12
Coordinates from ORCA-job run
  C   -1.20278269033612     -0.43718832404851      0.29207820043979
  C   0.01337378641195      0.15524966222866     -0.41284664802512
  Cl  -2.72116408348469      0.18284408706541     -0.39654162238977
  H   -0.09908845760662     -0.02030206732177     -1.48788748432698
  H   -1.19130191952880     -0.18981205510274      1.35406752499486
  H   -1.20263626461941     -1.52067023469560      0.16902195077733
  C   1.30268811177860     -0.50859906688749      0.08418670699331
  H   2.17168675062843     -0.08418296463633     -0.42043301821606
  H   1.42564827720585     -0.35909930964596      1.15891810507494
  H   1.27527786398156     -1.58123343073448     -0.11989080303304
  C   0.07422420354082      1.60446279183227     -0.20661810527111
  N   0.15407442202845      2.75953091194655     -0.01405480701815
