16

C	-0.468839	0.108251	-1.451486
C	0.0	0.0	0.0
Cl	-0.15121	-1.433761	-2.329281
H	1.096388	0.0	0.0
H	-1.556792	0.231213	-1.498072
C	0.249349	1.23565	-2.174154
H	-0.070226	2.20242	-1.775987
H	0.021226	1.214351	-3.242005
H	1.324847	1.124851	-2.015278
C	-0.538666	-1.182815	0.652734
N	-1.00117	-2.108472	1.211719
C	-0.395901	1.248881	0.799431
H	0.209972	2.09532	0.472658
H	-1.459236	1.494512	0.698683
H	-0.175169	1.086144	1.856209
H	2.811365	0.0	0.0
