16

C	-0.484826	-0.013362	-1.451706
C	0.0	0.0	0.0
Cl	0.111251	1.451212	-2.318892
H	1.095662	0.0	0.0
H	0.009737	-0.847326	-1.954381
C	-1.990807	-0.087625	-1.633458
H	-2.385102	-0.971928	-1.126459
H	-2.470301	0.800441	-1.217512
H	-2.247064	-0.145357	-2.694137
C	-0.440523	-1.244143	0.617196
N	-0.814057	-2.246327	1.108064
C	-0.450152	1.196852	0.835064
H	-0.119881	2.117776	0.352155
H	0.045957	1.141234	1.806441
H	-1.532033	1.23633	0.993021
H	2.775121	0.0	0.0
