16

C	-0.463587	0.113147	-1.453623
C	0.0	0.0	0.0
Cl	-0.155181	-1.431417	-2.332425
H	1.096398	0.0	0.0
H	-1.550744	0.24515	-1.505075
C	0.267759	1.235618	-2.170614
H	-0.046133	2.203887	-1.772428
H	0.045503	1.218113	-3.239969
H	1.341188	1.116104	-2.004219
C	-0.542355	-1.183355	0.648497
N	-1.011164	-2.108119	1.203602
C	-0.395467	1.248385	0.800142
H	-0.186938	1.081155	1.858762
H	-1.455959	1.50187	0.689086
H	0.219739	2.091605	0.482761
H	2.813594	0.0	0.0
