19

C	0.0	0.0	0.0
C	-0.236983	-0.023491	-1.576661
Cl	1.805782	0.0	0.0
H	0.040345	0.979039	-1.913731
N	-0.618826	1.137074	0.592394
H	-1.638759	0.908925	0.518643
H	-0.430463	1.966015	0.036575
C	-0.504183	-1.246	0.69721
H	-1.597324	-1.205677	0.6182
H	-0.099426	-2.144479	0.23422
H	-0.204308	-1.200816	1.746959
C	-1.593053	-0.425233	-2.119701
H	-1.716509	-1.504472	-2.015971
H	-1.63103	-0.163745	-3.183309
H	-2.398858	0.022638	-1.520173
N	0.744616	-0.892605	-2.327783
O	1.439095	-0.349464	-3.188978
O	0.752246	-2.100205	-2.096377
F	-3.109712	0.0	0.0
