19

C	0.0	0.0	0.0
C	-0.243495	-0.086905	-1.562898
Cl	1.799445	0.0	0.0
H	0.512459	0.577273	-1.990496
N	-0.580702	1.269293	0.366663
H	-0.366846	1.425332	1.348959
H	-1.602616	1.036921	0.312342
C	-0.509332	-1.130496	0.879524
H	-1.597366	-1.117129	0.748422
H	-0.268905	-0.871714	1.917063
H	-0.070096	-2.094731	0.64505
C	-1.580149	0.340055	-2.149111
H	-1.548979	0.171945	-3.226277
H	-1.687389	1.408687	-1.965862
H	-2.418485	-0.137289	-1.639832
N	0.146286	-1.42126	-2.184644
O	0.099898	-1.468934	-3.415074
O	0.514899	-2.366789	-1.49054
F	-3.047583	0.0	0.0
