19

C	0.0	0.0	0.0
C	-0.291935	0.037241	-1.553631
Cl	1.80445	0.0	0.0
H	0.466723	-0.589728	-2.027221
N	-0.545472	1.066761	0.764845
H	-0.330855	1.956429	0.327064
H	-1.579684	0.854572	0.643536
C	-0.412829	-1.314597	0.645312
H	-1.504014	-1.320503	0.628687
H	-0.037151	-1.302928	1.670761
H	-0.003128	-2.170014	0.109065
C	-0.242388	1.445808	-2.107103
H	-1.11356	2.000481	-1.760606
H	0.675587	1.938138	-1.778571
H	-0.260515	1.433516	-3.197664
N	-1.55791	-0.64029	-2.034358
O	-2.373994	0.017311	-2.668481
O	-1.596022	-1.861331	-1.904631
F	-2.779015	0.0	0.0
