13

C	0.0	0.0	0.0
C	-0.498261	-0.089349	-1.4542
Cl	1.767905	0.0	0.0
H	0.160408	0.558026	-2.040001
H	-0.369412	-0.776921	0.664448
H	-0.299898	-1.121182	-1.769097
N	-0.414877	1.304783	0.627308
O	-0.29501	2.312244	-0.062689
O	-0.804854	1.262582	1.788833
N	-1.859073	0.26295	-1.732059
H	-2.570096	-0.218955	-1.181112
H	-2.015332	1.249084	-1.567257
Cl	-4.54157	0.0	0.0
