13

C	0.0	0.0	0.0
C	-0.572685	0.057041	-1.395976
Cl	1.766025	0.0	0.0
H	-1.647141	0.208525	-1.26051
H	-0.352333	-0.874323	0.539135
H	-0.150479	0.916468	-1.922221
N	-0.396914	1.196072	0.824957
O	-0.563179	2.256344	0.232409
O	-0.453778	1.031592	2.03736
N	-0.310231	-1.225013	-2.049305
H	0.356365	-1.112923	-2.799268
H	-1.17508	-1.577528	-2.436875
Cl	-3.660036	0.0	0.0
