13

C	0.0	0.0	0.0
C	-0.59998	0.007855	-1.385039
Cl	1.765784	0.0	0.0
H	-1.647291	0.288338	-1.239839
H	-0.35971	-0.841433	0.584772
H	-0.0939	0.759962	-1.994774
N	-0.371555	1.242855	0.769486
O	-0.534978	1.120484	1.978041
O	-0.417467	2.293419	0.13658
N	-0.4996	-1.344475	-1.931347
H	0.056659	-1.351976	-2.775303
H	-1.432188	-1.672221	-2.150396
Cl	-3.667814	0.0	0.0
