13

C	0.0	0.0	0.0
C	-0.484513	-0.249169	-1.43441
Cl	1.768549	0.0	0.0
H	0.081735	0.43272	-2.072575
H	-0.364633	-0.720316	0.730344
H	-0.152594	-1.265156	-1.677653
N	-0.437387	1.348072	0.505643
O	-0.375671	2.282709	-0.287069
O	-0.789662	1.410718	1.678098
N	-1.88129	-0.107236	-1.714382
H	-2.189644	0.850848	-1.614176
H	-2.503852	-0.634057	-1.107131
Cl	-4.560133	0.0	0.0
