19

C	-0.501347	0.016254	-1.452734
C	0.0	0.0	0.0
Cl	0.316182	-1.293412	-2.392173
H	1.096315	0.0	0.0
C	-2.006768	-0.202196	-1.59366
H	-2.274428	-1.185529	-1.207354
H	-2.55265	0.565079	-1.039481
H	-2.296347	-0.151023	-2.644377
C	-0.155639	1.280159	-2.108402
N	0.043853	2.308084	-2.642084
C	-0.450366	-1.250534	0.750897
H	-0.233652	-2.159537	0.187007
H	-1.517237	-1.228449	0.999252
H	0.115212	-1.308493	1.682885
C	-0.434968	1.258783	0.751517
H	-1.523276	1.332468	0.860399
H	-0.064358	2.164955	0.268175
H	0.002129	1.227082	1.752585
Br	3.603998	0.0	0.0
