12

C	0.0	0.0	0.0
C	-0.739618	0.009101	-1.308345
Br	1.932096	0.0	0.0
H	-1.804408	0.250216	-0.882781
H	-0.322566	-0.884638	0.545999
H	-0.289001	0.879004	0.578332
N	-0.831943	-1.332107	-1.897405
H	-1.774128	-1.648213	-1.650804
H	-0.790704	-1.269714	-2.909377
C	-0.297647	1.021383	-2.238169
N	0.013526	1.860055	-3.005489
H	-3.01556	0.0	0.0
