12

C	0.0	0.0	0.0
C	-0.740863	0.05822	-1.307891
Br	1.932313	0.0	0.0
H	-1.805812	0.287055	-0.875829
H	-0.32208	-0.90544	0.510825
H	-0.28871	0.855961	0.612027
N	-0.838321	-1.262157	-1.942943
H	-0.809842	-1.165185	-2.951283
H	-1.777022	-1.583811	-1.698441
C	-0.289346	1.096368	-2.204701
N	0.066954	1.947723	-2.936386
H	-3.022672	0.0	0.0
