12

C	0.0	0.0	0.0
C	-0.615532	0.065253	-1.381244
Br	1.9396	0.0	0.0
H	-1.71523	0.140322	-1.075503
H	-0.321545	0.85302	0.59678
H	-0.339867	-0.91062	0.491926
N	-0.442685	-1.115771	-2.215379
H	0.523585	-1.427828	-2.169172
H	-1.037825	-1.840936	-1.826935
C	-0.209819	1.262435	-2.10876
N	0.118157	2.231165	-2.690126
H	-2.981204	0.0	0.0
