13

C	0.0	0.0	0.0
C	-0.485596	-0.342428	-1.385947
Br	1.926445	0.0	0.0
H	0.319631	-0.292166	-2.128288
H	-0.341028	0.987885	0.26759
H	-0.356525	-0.7277	0.711982
N	-1.491358	0.643277	-1.930096
O	-2.371933	0.25691	-2.676855
O	-1.166244	1.812959	-1.748293
N	-0.959831	-1.765091	-1.521357
O	-1.071104	-2.476562	-0.532393
O	-1.104253	-2.146111	-2.684473
F	-2.348843	0.0	0.0
