13

C	0.0	0.0	0.0
C	-0.486276	-0.152587	-1.420017
Br	1.92917	0.0	0.0
H	0.311401	0.018109	-2.15215
H	-0.363727	-0.813973	0.608572
H	-0.33721	0.946278	0.396392
N	-1.518328	0.880312	-1.815076
O	-2.407388	0.579426	-2.590406
O	-1.196603	2.023234	-1.499705
N	-0.941555	-1.549973	-1.74618
O	-1.030297	-2.389482	-0.860826
O	-1.10951	-1.768401	-2.945953
F	-2.364551	0.0	0.0
