16

C	-0.297048	0.088224	-1.475217
C	0.0	0.0	0.0
Cl	-2.174451	0.615739	-1.696205
H	1.095974	0.0	0.0
H	-0.413105	-0.935846	0.410346
C	0.535024	1.17311	-2.112482
H	0.428383	1.185285	-3.201353
H	1.562436	0.941544	-1.802242
H	0.24873	2.139027	-1.700236
N	-0.11334	-1.154076	-2.105399
H	-0.665006	-1.878764	-1.665711
H	-0.323828	-1.110021	-3.093183
N	-0.40274	1.207788	0.710686
H	-1.333812	1.121049	1.09613
H	0.260496	1.351448	1.460882
F	2.71625	0.0	0.0
