16

C	-0.224156	0.009215	-1.521663
C	0.0	0.0	0.0
Cl	-0.112675	-1.735438	-2.066971
H	1.093374	0.0	0.0
H	-0.461465	-0.860825	0.495
C	-1.570574	0.526446	-1.983813
H	-1.693707	1.546841	-1.613935
H	-1.615217	0.518682	-3.074973
H	-2.379783	-0.091489	-1.584819
N	0.85649	0.724219	-2.174521
H	1.709363	0.484965	-1.638003
H	0.681912	1.706775	-1.975359
N	-0.403372	1.305506	0.553731
H	-1.237337	1.219095	1.12205
H	0.351975	1.617861	1.152583
F	2.734518	0.0	0.0
