16

C	-0.218873	0.083948	-1.495721
C	0.0	0.0	0.0
Cl	-2.07052	0.744831	-1.847441
H	1.094472	0.0	0.0
H	-0.44137	-0.922318	0.395923
C	0.697103	1.107197	-2.121759
H	1.694917	0.844531	-1.738835
H	0.65033	1.083663	-3.214504
H	0.435053	2.109018	-1.782292
N	-0.090431	-1.169841	-2.096886
H	-0.24242	-1.143529	-3.095413
H	-0.681748	-1.864708	-1.661804
N	-0.400847	1.158667	0.787748
H	0.379212	1.803574	0.796979
H	-1.203818	1.617691	0.376579
F	2.718076	0.0	0.0
