16

C	-0.158529	0.051467	-1.541798
C	0.0	0.0	0.0
Cl	-0.047525	-1.672297	-2.178619
H	1.095247	0.0	0.0
H	-0.350191	0.978785	0.36153
C	-1.479596	0.591068	-2.054837
H	-1.49618	0.587888	-3.146914
H	-2.313388	-0.010756	-1.683039
H	-1.609843	1.617131	-1.69658
N	0.961766	0.77226	-2.108801
H	1.788602	0.525357	-1.527474
H	0.787787	1.759399	-1.948106
N	-0.600076	-1.068804	0.777274
H	0.000364	-1.877643	0.686191
H	-1.503183	-1.327384	0.395952
F	2.752371	0.0	0.0
