16

C	-0.049089	-0.023549	-1.52356
C	0.0	0.0	0.0
Cl	-1.771857	-0.281373	-2.165764
H	1.097597	0.0	0.0
H	-0.388889	-0.948174	0.379121
C	0.445506	1.295444	-2.096401
H	0.48458	1.246704	-3.188829
H	1.455494	1.413138	-1.687898
H	-0.183265	2.142246	-1.809538
N	0.774104	-1.143122	-1.915439
H	1.643534	-1.006471	-1.37398
H	1.004804	-1.061299	-2.899318
N	-0.587625	1.132718	0.689292
H	0.030797	1.928614	0.598339
H	-1.480796	1.374794	0.27275
F	2.744442	0.0	0.0
