16

C	-0.302843	-0.100265	-1.504202
C	0.0	0.0	0.0
Cl	-0.048436	1.574372	-2.172852
H	1.093398	0.0	0.0
H	-0.459082	0.898192	0.424698
C	0.723119	-1.013902	-2.149554
H	0.527213	-2.048288	-1.839978
H	0.671952	-0.957645	-3.23823
H	1.704794	-0.723118	-1.750212
N	-1.656411	-0.467858	-1.903721
H	-2.316333	0.049761	-1.334509
H	-1.786017	-1.455984	-1.721541
N	-0.391634	-1.196288	0.753918
H	0.39813	-1.83011	0.748327
H	-1.189152	-1.666084	0.341698
F	2.743836	0.0	0.0
