16

C	-0.581507	0.018081	-1.386489
C	0.0	0.0	0.0
Cl	-2.343847	0.047831	-1.434227
H	1.093219	0.0	0.0
N	-0.074323	1.251111	-2.150857
O	0.651319	2.031272	-1.54961
O	-0.419348	1.313536	-3.324597
N	-0.04649	-1.128479	-2.280915
O	1.166522	-1.073706	-2.425685
O	-0.828698	-1.914515	-2.776864
N	-0.3083	-1.224602	0.70101
O	-0.382822	-2.262767	0.019456
O	-0.275147	-1.187303	1.940219
C	-0.435317	1.143863	0.767621
N	-0.767946	2.087445	1.386512
H	2.295144	0.0	0.0
