16

C	-0.408881	-0.004442	-1.488422
C	0.0	0.0	0.0
Cl	0.132897	1.543083	-2.234835
H	1.114418	0.0	0.0
N	0.221936	-1.146979	-2.20753
O	-0.341853	-2.28494	-1.851288
O	0.261532	-0.954895	-3.527478
N	-1.894666	-0.058971	-1.698251
O	-2.222103	-0.20817	-2.958983
O	-2.505829	0.929276	-1.090076
N	-0.488515	-1.190828	0.748301
O	-1.763456	-1.089366	1.018157
O	0.27924	-1.428502	1.791689
C	-0.354727	1.244617	0.860912
N	0.216187	1.457965	1.890783
H	2.494864	0.0	0.0
