16

C	-0.518039	-0.001074	-1.412832
C	0.0	0.0	0.0
Cl	-2.212924	0.429882	-1.597687
H	1.089856	0.0	0.0
N	0.283923	1.036887	-2.23549
O	0.527186	0.744222	-3.397794
O	0.566564	2.074404	-1.660735
N	-0.210833	-1.326034	-2.129867
O	-1.0665	-1.820067	-2.840035
O	0.935299	-1.707522	-1.957107
N	-0.399147	-1.176481	0.748314
O	-0.934388	-2.129537	0.155078
O	-0.066873	-1.176326	1.941631
C	-0.386564	1.179128	0.739882
N	-0.690666	2.12874	1.364223
H	2.312162	0.0	0.0
