16

C	0.0	0.0	0.0
C	-0.569308	-0.00289	-1.417699
F	1.366809	0.0	0.0
H	-1.679799	0.079581	-1.248719
C	-0.391311	1.258067	0.701591
N	-0.629636	2.213743	1.341951
N	-0.505429	-1.177791	0.623876
H	-0.210288	-1.171799	1.594567
H	-1.538942	-1.011996	0.57291
N	-0.223437	-1.292734	-2.085314
O	-1.136208	-2.084607	-2.288882
O	0.958639	-1.461073	-2.377806
N	-0.0356	1.070994	-2.297876
O	0.524552	2.032334	-1.779587
O	-0.245477	0.931342	-3.500611
F	-2.728721	0.0	0.0
