16

C	0.0	0.0	0.0
C	-0.575413	0.000184	-1.412168
F	1.393544	0.0	0.0
H	-1.683407	0.124148	-1.225947
C	-0.364818	1.242874	0.735382
N	-0.572595	2.135195	1.469674
N	-0.510047	-1.172344	0.628221
H	-0.238226	-1.147333	1.605178
H	-1.543902	-1.002133	0.563652
N	-0.314655	-1.306155	-2.082757
O	0.847492	-1.695986	-2.142565
O	-1.29233	-1.8837	-2.554339
N	-0.00993	1.059548	-2.288395
O	0.227624	0.773402	-3.460382
O	0.117889	2.172872	-1.785786
F	-2.733871	0.0	0.0
