16

C	0.0	0.0	0.0
C	-0.591759	0.010618	-1.406512
F	1.364747	0.0	0.0
H	-1.706106	0.066482	-1.208647
C	-0.395531	1.249121	0.719223
N	-0.602759	2.170607	1.417652
N	-0.507109	-1.181581	0.620334
H	-0.223312	-1.17002	1.595327
H	-1.541619	-1.021141	0.563842
N	-0.227997	-1.251422	-2.111632
O	0.942915	-1.361994	-2.473566
O	-1.112769	-2.084142	-2.273849
N	-0.121585	1.119969	-2.276372
O	-0.426247	1.031847	-3.462499
O	0.487719	2.054122	-1.765852
F	-2.751096	0.0	0.0
