15
Coordinates from ORCA-job run
  C   0.41149576266961     -0.27603044350408      0.78041505686900
  C   -0.50023061072148     -0.17539544152598     -0.44202183395003
  Cl  -0.17415913021025      0.80344594968109      2.08801528658051
  H   -0.02472836426486     -0.81650844142337     -1.20315764700847
  H   0.34020552739003     -1.28942373155158      1.18724675901989
  C   1.85154920857814      0.06133045158858      0.45275185616117
  H   2.47881822970525     -0.02234660349798      1.34122371907270
  H   2.23017936058366     -0.63010680927274     -0.30594967869877
  H   1.91018293460790      1.07538518302492      0.06041713825561
  N   -0.48610157434930      1.16983670388637     -0.97199021562141
  H   -1.07925473756348      1.74636479099960     -0.38508436865157
  H   -0.86764478734566      1.18117079449974     -1.90955210964958
  N   -1.84938273885506     -0.61347400945703     -0.09602266768241
  H   -1.83404783408011     -1.52738759470497      0.34377185036283
  H   -2.40688124614441     -0.68686079874257     -0.93906314505947
