15
Coordinates from ORCA-job run
  C   0.41629149439679     -0.29704881777928      0.76920756439439
  C   -0.49607669893087     -0.16986295152125     -0.45031977104419
  Cl  -0.19664404496987      0.71526919232765      2.11765529923031
  H   -0.00579732647861     -0.77253889645598     -1.23315929359796
  H   0.36840830694909     -1.32717942512581      1.13545249641320
  C   1.84846472011869      0.08708192478525      0.45917139418240
  H   2.47801007987092     -0.02743376755579      1.34258931838605
  H   2.24079000240897     -0.55730088615744     -0.33325840790295
  H   1.88548476781548      1.12011632026396      0.11704642109146
  N   -0.50855987181707      1.19401427394855     -0.92997802124725
  H   -0.89207977109571      1.23308773231590     -1.86601845635953
  H   -1.11244770255876      1.73600899203125     -0.32138459793453
  N   -1.83652616266970     -0.64862282720208     -0.12367882693838
  H   -2.38723430813587     -0.71090143768272     -0.97217270668402
  H   -1.80108348490347     -1.57468942619220      0.28884758801100
