15
Coordinates from ORCA-job run
  C   0.52698641736575     -0.42925535971964      0.67244373800215
  C   -0.74031542658441      0.01050839089228     -0.06297674586690
  Cl  0.13034652778871     -0.69476719560170      2.39885592090496
  H   -1.20897877368641      0.81087213164117      0.52846929368062
  H   0.82718998134375     -1.40241458952917      0.27559594814766
  C   1.67296454744919      0.55972417537740      0.57301252791070
  H   2.51327390504819      0.23237130645071      1.18588017985729
  H   1.36354232254997      1.54652909727443      0.92865854154356
  H   2.01311289674957      0.63260408719832     -0.46138166938951
  N   -1.67431705616327     -1.08945911672687     -0.11115479287495
  H   -2.60648315949543     -0.76672517386136     -0.33543191731169
  H   -1.37747209612995     -1.74267864312617     -0.82784558129282
  N   -0.35502188815021      0.43715242563361     -1.41539548375865
  H   -1.20028307620710      0.56068413652572     -1.96133290149486
  H   0.11445487812166      1.33585432757125     -1.38939705805756
