15
Coordinates from ORCA-job run
  C   0.40531918615540      0.12554808779614      0.72957424448067
  C   -0.49181164698324      0.28769047383126     -0.50562268620932
  Cl  0.54472819404903      1.71220144239706      1.56607282110760
  H   0.01378292134383      0.98430281837325     -1.18368101310229
  H   -0.09940231318108     -0.53260612609080      1.44640053363253
  C   1.79448736105181     -0.38817370171031      0.40785069600386
  H   2.39922533107427     -0.46366052958196      1.31300708389549
  H   2.29315149645571      0.29552608232605     -0.28283330247175
  H   1.72246434814366     -1.36553376563903     -0.06780768264103
  N   -1.82030682189849      0.83502961041119     -0.25999250157547
  H   -2.28371487662552      0.29776157920651      0.46642010362184
  H   -1.75356256664721      1.79088032966735      0.06954101466423
  N   -0.55507136818571     -1.00689146493723     -1.16344600108891
  H   -1.14223722953968     -0.90318960286333     -1.98363917764732
  H   -1.02705201521278     -1.66788523318616     -0.55284413267013
