15
Coordinates from ORCA-job run
  C   0.38301170674108      0.21118017439118      0.76912892538249
  C   -0.50334197790496      0.45884950738619     -0.45849915462881
  Cl  0.82808418528881      1.77558513367719      1.52161723083443
  H   0.04080188663287      1.14078285185649     -1.12208640168314
  H   -0.20322068382045     -0.32808074442865      1.52279957991992
  C   1.65621340435187     -0.55392690776089      0.45466363158762
  H   2.28394496598587     -0.62937585227804      1.34296757367256
  H   2.22769641366255     -0.03737127727082     -0.32064615629592
  H   1.42758276502282     -1.56586093851391      0.11539875572987
  N   -1.72273521376026      1.11945436669494     -0.04965555068845
  H   -2.32333088381300      1.19862238462329     -0.86169747712774
  H   -2.21077611576529      0.55136304948656      0.63486080807269
  N   -0.77872975058051     -0.75120438245277     -1.23422633378058
  H   0.05877030168023     -1.11071152842991     -1.67593991580989
  H   -1.16197100372164     -1.47730583698085     -0.63768551518507
