15
Coordinates from ORCA-job run
  C   0.45237873397599     -0.34764058977448      0.74409647147832
  C   -0.45142539908709     -0.28988376574144     -0.48352788949434
  Cl  -0.27989500725911      0.63166463651025      2.07563215556406
  H   0.05632967338623     -0.89155716625380     -1.24718680204072
  H   0.44067478285890     -1.37410571742207      1.11213391553487
  C   1.86025269548078      0.13954653188161      0.48040433257280
  H   1.84549803035307      1.17336493065187      0.13951013765693
  H   2.47198339734253      0.05919365201502      1.38023883770917
  H   2.31283059736622     -0.47623355468991     -0.30251236907067
  N   -0.50422263693880      1.07239284504984     -0.99642953925521
  H   -1.01149995885877      1.66342649386791     -0.34748799036597
  H   -0.99549796604486      1.08897963726052     -1.88174349606193
  N   -1.70254152349143     -0.97587657613128     -0.18618880168991
  H   -2.21050975640127     -0.46713476113875      0.52881685995485
  H   -2.28335566268237     -1.00613659608529     -1.01575582249226
