15
Coordinates from ORCA-job run
  C   0.44552202856589     -0.36387246419740      0.63977702731519
  C   -0.50318911259143     -0.18998523934135     -0.55279005192957
  Cl  -0.24920358918210      0.44942517564254      2.09366134148206
  H   -0.02596463587110     -0.73499409522227     -1.37784917728300
  H   0.46900948727508     -1.42493463693582      0.90096186351776
  C   1.84329781622910      0.15998910515849      0.38518750708801
  H   1.81485804406234      1.22883579200509      0.18128148148638
  H   2.49344576641956     -0.03194328521455      1.24026855096696
  H   2.26212078516329     -0.34379173265747     -0.49100220337419
  N   -0.56076612140690      1.20573745182385     -0.92949152763494
  H   -0.94064731743922      1.74609895319068     -0.15965284908836
  H   -1.20826459052335      1.29192702217621     -1.70393827338160
  N   -1.82714114816885     -0.78073928452636     -0.38803363051817
  H   -2.25554754981581     -0.42299687309274      0.45911231236536
  H   -1.75852986271651     -1.78875588880889     -0.29549237101191
