15
Coordinates from ORCA-job run
  C   0.26585078499504     -0.09994073938086      0.92732984891688
  C   -0.90612832520191      0.07427167030287     -0.05049231195838
  Cl  0.24488725576990      1.26963957338452      2.10250844376245
  H   -1.81589739504766      0.17226194555431      0.56246788401008
  H   0.06656576741133     -0.98816214728512      1.53315238465567
  C   1.63105620698273     -0.18647210217765      0.27720466338606
  H   1.83458002892923      0.71066611041962     -0.30475507672217
  H   2.40628857521283     -0.30942683522764      1.03475833751720
  H   1.67139989507870     -1.05098828323761     -0.39009339120989
  N   -1.11296622673082     -1.06305072776761     -0.92746502008023
  H   -0.30501299093598     -1.18380143879720     -1.52598315843886
  H   -1.27357509799460     -1.91308150561371     -0.40166067464048
  N   -0.66040505920310      1.21186001056514     -0.91601567766703
  H   -0.60319084306208      2.06202217227727     -0.36878615058903
  H   -1.44345257620361      1.29420229698367     -1.55317010094225
