15
Coordinates from ORCA-job run
  C   0.28502113726611     -0.09893030413812      0.93089287834582
  C   -0.90594968877746      0.00938859009681     -0.03856194150891
  Cl  0.16330074495245      1.23919837709578      2.12577825980434
  H   -1.81263856783571      0.09952678059504      0.57801381174043
  H   0.17112554007233     -1.01421450291994      1.51975386086402
  C   1.64137242516742     -0.06847682028996      0.26034555221810
  H   1.68223827679573     -0.85030515635001     -0.49951242534258
  H   2.43458683472542     -0.23147112665989      0.99121203502278
  H   1.81843992265023      0.89916183725019     -0.21193464417613
  N   -0.88686481041624     -1.17741568272147     -0.88249846963281
  H   -1.08668200841315     -2.00588553845759     -0.33432376607985
  H   -1.62029741755221     -1.07338430144907     -1.57420725558042
  N   -0.90190040988852      1.14442536754703     -0.93428209077479
  H   -0.90921899391201      2.01174691110757     -0.41289278938149
  H   -0.07353298483440      1.11563556929362     -1.51678301551853
