15
Coordinates from ORCA-job run
  C   0.36806975049087     -0.12004217638085      1.00178298794839
  C   -0.87379290322382      0.04670801931359      0.12230238327682
  Cl  0.39222434173766      1.15328839977332      2.26150548102057
  H   -1.72605398410097      0.17433260617416      0.79517258883456
  H   0.25894785197389     -1.06493919709884      1.53408491709415
  C   1.67620981577783     -0.08666418749468      0.23472537967065
  H   1.69279642423953     -0.86404392453473     -0.53524586921880
  H   1.82383017509766      0.89111597519414     -0.22590513686886
  H   2.51500694004688     -0.27116205621766      0.90692887805565
  N   -1.08567790982799     -1.22032845967345     -0.58218924041300
  H   -0.41994027099470     -1.31013282171060     -1.34193826365365
  H   -2.01024284254402     -1.22406208934706     -0.99697135324550
  N   -0.77578158759438      1.25998376923620     -0.67341143137232
  H   -1.68402624606425      1.51533588989686     -1.03953050405794
  H   -0.15456955501417      1.11961025286959     -1.46131081707072
