15
Coordinates from ORCA-job run
  C   0.47328237116481     -0.43116939395532      0.49552801636011
  C   -0.84356643250511      0.09926475753599     -0.10437460440642
  Cl  0.15758023712279     -1.09476928034479      2.14094892464531
  H   -1.18978676235173      0.90691922236281      0.55273866691984
  H   0.80331691381240     -1.28606895305559     -0.10477734238785
  C   1.56313965295389      0.61809750773707      0.60485291315354
  H   1.20862743541174      1.47027022473719      1.19026732950366
  H   2.44623284463058      0.21132956038653      1.09884706598265
  H   1.85906802707499      0.96820585847656     -0.38566214120747
  N   -1.90203825374283     -0.89114805964376     -0.20682046835851
  H   -1.87225688938400     -1.54293026524895      0.56605161305755
  H   -1.81163864881911     -1.39730780924849     -1.07798874883886
  N   -0.63427745577485      0.66141028680794     -1.42880309573583
  H   0.02190644912351      0.10309979508205     -1.96343301723692
  H   -0.28058948871707      1.60579654837075     -1.37737511145081
