15
Coordinates from ORCA-job run
  C   0.30281473714947     -0.14226620799085      0.94233172377413
  C   -0.92036185072994      0.14213266078957      0.05599428346422
  Cl  0.34653399425782      1.01481921025125      2.31140147901458
  H   -1.77094661962062      0.30290075793571      0.72493832372199
  H   0.15976750828196     -1.12312737738509      1.40298117967641
  C   1.63056251249131     -0.09429986791826      0.20975376761945
  H   1.62254974776195     -0.76603521395046     -0.65423091106896
  H   2.44158665965754     -0.40899545129511      0.86739860725463
  H   1.84057470702909      0.92258022758317     -0.12308833631513
  N   -1.28103190140849     -0.98662977099383     -0.80586449387650
  H   -1.51859589832431     -1.80311051870217     -0.25267609256633
  H   -0.50622031103694     -1.23530270142552     -1.41094756093330
  N   -0.71900727094098      1.36238971359229     -0.69150240002536
  H   -1.59022836798633      1.60385842221303     -1.14812150119432
  H   -0.03699764658154      1.21008611729625     -1.42636806854550
