16
Coordinates from ORCA-job run
  C   -0.75467219685581     -0.06385273197601     -0.25116674015742
  C   0.76761251607432      0.11755970102060     -0.29269886576801
  F   -0.97566811242391     -0.89067072089871     -1.42934903246053
  H   1.01997776973787      0.70452899029620     -1.18206516784728
  N   -1.15058795290343     -0.73432217285452      0.91595975219515
  H   -2.06515074264125     -1.15121880908429      0.80174059277179
  H   -0.46656188092680     -1.43825348356437      1.16391221196982
  N   -1.42886880372953      1.16412049257213     -0.40487379483627
  H   -2.37745061182624      1.11950183008371     -0.06110579789961
  H   -1.40871529754457      1.48529265215238     -1.36253767881266
  N   1.39965355499990     -1.16727695752568     -0.16998010560949
  H   1.13008585488006     -1.72920213995448     -0.96748729695106
  H   2.40762917342781     -1.07923766927897     -0.15062944511914
  N   1.19430771783449      0.99878609280668      0.85432723813640
  O   1.29977683837612      2.19457816792184      0.59635613055851
  O   1.40663217352099      0.46966675828348      1.93959799982978
