16
Coordinates from ORCA-job run
  C   -0.67146818311745     -0.13255604735705      0.16019959301296
  C   0.77802829169094      0.14474578348691     -0.32219186840958
  F   -0.61229783864615     -0.12071374352815      1.56532016807053
  H   0.73584508573454      0.58786385088605     -1.32414683215182
  N   -1.56104711830313      0.83645441828531     -0.35719688312820
  H   -1.19292108743395      1.77043065028580     -0.22061683189163
  H   -2.46433435510217      0.75043867133155      0.09350130054305
  N   -1.07663867801106     -1.47358191702479     -0.18409456105912
  H   -1.53290425566444     -1.90348676172341      0.60905824246267
  H   -1.70213164957375     -1.44608133549286     -0.97738089996241
  N   1.59059398735902     -0.99516937824347     -0.15903041977010
  H   2.37843986020185     -1.00935510446913     -0.78771895358614
  H   1.02012525148388     -1.82481865701397     -0.25785000764839
  N   1.31450479156779      1.31010124295936      0.52774874249276
  O   2.23735781786665      1.11338785444754      1.29828284161509
  O   0.75784807994742      2.39334047317034      0.33411636941033
