16
Coordinates from ORCA-job run
  C   -0.68985212881097     -0.27486109513106      0.11978427219955
  C   0.79226075335091      0.03372933524034     -0.22799627275870
  F   -0.71043407165883     -0.74483534896620      1.41784290619084
  H   0.87556052620033      0.19573408938299     -1.30438117938900
  N   -1.61488776870366      0.82643546067802      0.10817604420497
  H   -1.57275812391293      1.32897709407457     -0.76958629520297
  H   -1.41228665992730      1.47412830987095      0.86093989563478
  N   -1.08012703497848     -1.36210734854616     -0.72978092330530
  H   -2.03446830195651     -1.61118246689200     -0.49108871927461
  H   -1.06769062451929     -1.07282332293944     -1.70089025543072
  N   1.75374161460392     -0.93309212276311      0.20625958260227
  H   1.59595942453635     -1.78771478952543     -0.31372979076326
  H   1.59211805251145     -1.13338559011789      1.18634644193097
  N   1.12985929877857      1.35680114835063      0.38682945039337
  O   1.01617006273418      2.35218583969418     -0.32706021536081
  O   1.42783498175229      1.35301080758959      1.57733505832864
