16
Coordinates from ORCA-job run
  C   -0.82732987434941      0.20582266147938     -0.15675614614604
  C   0.70949339487709      0.30356355539064     -0.20408137626029
  F   -1.25537609676167      1.48061274887979      0.24462432333102
  H   0.99458429670486      1.07467634031686     -0.92030511057783
  N   -1.42127361485572     -0.02498803219249     -1.43805319819666
  H   -0.99407685301446     -0.84256138683098     -1.85539128040004
  H   -1.26437098733959      0.77621759120789     -2.03650762434193
  N   -1.23702971462689     -0.82396100003934      0.71507782687495
  H   -0.94156684363564     -0.65817837662313      1.66780033944295
  H   -2.24050686429375     -0.93275049012583      0.65303948249630
  N   1.25923384411929     -0.95677235091042     -0.54111355302828
  H   2.26623585623158     -0.93283845476808     -0.62455632929680
  H   0.96797780030399     -1.66038960506726      0.12504549393158
  N   1.20522598705731      0.86421505772354      1.12986350266176
  O   1.63011615329275      2.01489644959764      1.13663886106084
  O   1.15066351629025      0.11143529196178      2.10367478844845
