16
Coordinates from ORCA-job run
  C   -0.77553515390742      0.24618518861279     -0.04263555916886
  C   0.75256084450916      0.33596901175054     -0.17710454380830
  F   -1.26703056876332      1.53109458626292      0.17855326188193
  H   0.99481957501968      1.11220461055548     -0.91365507329881
  N   -1.27931725512780     -0.24445327626397     -1.30014569077903
  H   -1.27970344750088      0.50599883764711     -1.98337795037618
  H   -2.23268553421160     -0.56813407572404     -1.18904797023966
  N   -1.09028942740822     -0.54434115683769      1.08820938266862
  H   -2.07292001917356     -0.77683213486964      1.13744569589433
  H   -0.51071970180545     -1.37330985544157      1.11005474262042
  N   1.25910343351113     -0.98201491832270     -0.41291153189697
  H   0.83067682507775     -1.33978288747367     -1.25701527383588
  H   2.26666672613562     -0.98803303996057     -0.49648614736684
  N   1.32895627133558      0.88425220845751      1.10918841043191
  O   1.77062033444762      0.09347596679483      1.93396894163194
  O   1.30479709786169      2.10672093481267      1.21495930564138
