16
Coordinates from ORCA-job run
  C   -0.74036362944976     -0.09261884876658      0.07906179435062
  C   0.74179811568253      0.00718009718530     -0.31210428283179
  F   -0.77146072265055     -0.52227298078657      1.41839953196157
  H   0.81543582826877      0.24820804468018     -1.37219571048045
  N   -1.37175780113635      1.19072578168033      0.09237175813860
  H   -2.19427492961319      1.15892781298295      0.68066515051627
  H   -1.63180375185776      1.45993012417201     -0.84713014526720
  N   -1.34107476492224     -1.04355043424855     -0.78614739048475
  H   -0.81083538939179     -1.90715759089648     -0.77093164356423
  H   -2.29921124949342     -1.21767922589990     -0.50821750101989
  N   1.39566329531633     -1.21832261007736     -0.00825398297975
  H   2.34251177134316     -1.23205683013287     -0.36281070269656
  H   1.41105831839569     -1.34995240971817      0.99579019695747
  N   1.33818485003017      1.21405676820841      0.39497686870381
  O   1.41741665232337      2.25179892592810     -0.25386047406286
  O   1.69871340715505      1.05278337568918      1.55738653275913
