16
Coordinates from ORCA-job run
  C   -0.72628220472777     -0.08714078043882      0.16729624393787
  C   0.70121476118161     -0.00846138154451     -0.39487947873662
  F   -0.60279802393180     -0.45961029922369      1.51848908129492
  H   0.65268086414226      0.18570040830665     -1.46600494919524
  N   -1.35429503988594      1.19768743641993      0.19858214370654
  H   -1.72105443230972      1.42681763111674     -0.71569839348900
  H   -2.10452522714511      1.19251117625145      0.87747153338267
  N   -1.42051460546613     -1.07235420862244     -0.58206305096838
  H   -2.33858049463353     -1.23381489677358     -0.18595659943568
  H   -0.88887691032670     -1.93535342406668     -0.59057486958267
  N   1.38810014468001     -1.22169261992921     -0.11486096397109
  H   2.28828328493501     -1.25297160979032     -0.57446761285600
  H   1.51914136557960     -1.30930960005876      0.88559205950139
  N   1.37157688328798      1.22629828570752      0.18562837750887
  O   1.37212515196515      2.23475568667273     -0.51229742934811
  O   1.86380448265509      1.11493819597298      1.30474390825053
