16
Coordinates from ORCA-job run
  C   -0.67328035978277     -0.08227641496697      0.14189154401486
  C   0.79318478264350      0.07421530557738     -0.30228494386625
  F   -0.65952597801105     -0.46665943871441      1.49105513270254
  H   0.81504428936364      0.25795260155636     -1.37553056351734
  N   -1.36272384353038      1.16738389004294      0.11198309511213
  H   -1.55835355921714      1.44333470883904     -0.84120435548266
  H   -2.22508636857932      1.10311627377078      0.63787260364852
  N   -1.26548789612767     -1.10325088270267     -0.66160947758616
  H   -2.23516394063033     -1.22936347287298     -0.39599865696643
  H   -0.78025689840838     -1.98299514290727     -0.53059389268702
  N   1.65007195182139     -1.00995075050406      0.04373186792221
  H   1.41404281987375     -1.41615431684820      0.93693916097213
  H   1.73174736272219     -1.70053314939369     -0.68487920733038
  N   1.32615658112114      1.33920093931612      0.32299742630471
  O   1.37148624775885      2.33384854084617     -0.39512664538600
  O   1.65714480898258      1.27313130896147      1.49975691214515
