16
Coordinates from ORCA-job run
  C   -0.78979904526414      0.20716987612482     -0.10873213042372
  C   0.72084616080410      0.42311123391362     -0.24980608615513
  F   -1.30287786797165      1.36246512845107      0.49142563004566
  H   0.88204147653238      1.28278962638461     -0.89757094966252
  N   -1.33937334245143      0.15852930138614     -1.42805947977649
  H   -0.97390060036122     -0.65547898785111     -1.90505143679244
  H   -2.35035652885674      0.10953756029275     -1.38284863871335
  N   -1.06408600066221     -0.94605391184795      0.68314406614700
  H   -2.05678895218794     -1.14319796024401      0.68064285067136
  H   -0.74231419429406     -0.82564917416647      1.63616904548210
  N   1.32603022360740     -0.75193213358720     -0.75633551777457
  H   2.31310454059646     -0.63291012659761     -0.93766884632618
  H   1.16137686524329     -1.53265953422951     -0.13417750095134
  N   1.26671604808399      0.87523772197796      1.10540251973586
  O   1.60902728948271      2.04774128130775      1.21362595997561
  O   1.33935392769908      0.02030009868512      1.98984051451815
