16
Coordinates from ORCA-job run
  C   -0.68282062627768     -0.25522935409575      0.18852547169456
  C   0.77280441262128      0.00372671231289     -0.28821046259986
  F   -0.61081560358632     -0.64286249425226      1.51205084484355
  H   0.77895667411281      0.09083535274669     -1.37639017819131
  N   -1.59070346033803      0.86025244089246      0.17743226498642
  H   -1.60561805364610      1.31019960711706     -0.72929656655337
  H   -1.32378143573249      1.54630151874731      0.87409384272778
  N   -1.15149885597074     -1.38590649720950     -0.55834648137736
  H   -2.08907293244579     -1.60078822414853     -0.23496905758385
  H   -1.20710758237016     -1.15814334286336     -1.54422054407240
  N   1.75281675175218     -0.94789498604089      0.13823034661218
  H   1.65870341590013     -1.08499462785417      1.13781155442547
  H   1.55227349449744     -1.83088186533219     -0.31535575947496
  N   1.17141012382916      1.35924186010373      0.20845848370921
  O   1.02095367933135      2.30607845641506     -0.56242445058848
  O   1.55349999832297      1.43006544346144      1.37261069144242
