16
Coordinates from ORCA-job run
  C   -0.78956902481925     -0.12221251958494      0.25977110786990
  C   0.63399821048826     -0.02167019939184     -0.33758197529325
  F   -0.53768706385347     -0.45582295059224      1.61738829254202
  H   0.56274578808379      0.17993339861944     -1.40736644666252
  N   -1.50530552029104      1.05514984210736      0.12718173665405
  H   -1.07306261471589      1.90001366958606     -0.19372319353092
  H   -2.50538057820835      0.98700420691029      0.13352817259857
  N   -1.54428694273097     -1.22763004789315     -0.24514433245700
  H   -1.01169415560432     -2.08229428684861     -0.14130035269905
  H   -1.75137629072284     -1.07994414062549     -1.22419433433933
  N   1.35115985621056     -1.21314386264898     -0.07495856769973
  H   1.47981538256234     -1.32102326685794      0.92291441294068
  H   2.25331676382441     -1.21465523530776     -0.53058809671242
  N   1.31739791162153      1.22990678964936      0.23003399072393
  O   1.03687692154850      2.30173115692289     -0.30940554074104
  O   2.08505135660673      1.08365744595554      1.17344512680613
