16
Coordinates from ORCA-job run
  C   -0.73323889919158      0.00416807722252     -0.07972104535748
  C   0.72219585109051      0.48415903025144     -0.20426157940421
  F   -1.43938541754919      1.11250795551310      0.47402717233167
  H   0.75183298336527      1.29630942955050     -0.92990066662034
  N   -1.21312281392315     -0.26216043670052     -1.39486598932397
  H   -1.96254906119091     -0.94100240007732     -1.38671140032663
  H   -1.54091562776518      0.59470535294077     -1.82196252524378
  N   -0.84703321087316     -1.14422349612062      0.73509524573471
  H   -1.82068869762426     -1.39216408010568      0.86227951420784
  H   -0.42547740821696     -0.97148928736453      1.63949406784493
  N   1.67873079905943     -0.52542507148564     -0.53506091412080
  H   1.65562103424336     -0.68045258780601     -1.53372469781641
  H   1.42322826043200     -1.39278255581330     -0.07805230617866
  N   1.14183621339603      1.12276920911093      1.09369594701674
  O   1.19894038376106      0.37963161643621      2.07365731040214
  O   1.41102561098673      2.31744924444816      1.08601186685427
