16
Coordinates from ORCA-job run
  C   -0.77949813246097      0.23784092263905     -0.00955648976242
  C   0.74102745347023      0.34628425108783     -0.20135934507832
  F   -1.27560841773021      1.51465161290859      0.24616218554879
  H   0.94653568036727      1.13337134491335     -0.93749142726278
  N   -1.32603389954056     -0.24284457050432     -1.25327279288851
  H   -2.27111631006890     -0.57787608822158     -1.10950635451949
  H   -1.36138465383586      0.51680361801910     -1.92539836761338
  N   -1.04221562403703     -0.57015686692705      1.12222194334105
  H   -0.45036707629901     -1.39068463387240      1.11302106476837
  H   -2.01894597672419     -0.81828829071156      1.20279359819134
  N   1.25257619954657     -0.96339766379143     -0.47215600643324
  H   0.79749937749739     -1.31423003692867     -1.30522957752717
  H   2.25633071789648     -0.95590752881495     -0.59370868232484
  N   1.36079595556193      0.88598610272712      1.06817728604479
  O   1.84218281479672      0.09063603946121      1.86589098026778
  O   1.32822189156013      2.10681178801568      1.18941198524803
