16
Coordinates from ORCA-job run
  C   -0.87041538825967      0.23838872175224     -0.00225153003828
  C   0.65258594045608      0.36208745242202     -0.20751166763807
  F   -1.33347958504812      1.45507640245251      0.44243947944256
  H   0.83234013778979      1.13116152376405     -0.95929781787067
  N   -1.57016907249855     -0.01750036764917     -1.23554755993202
  H   -1.50361246787977      0.78830763296243     -1.84776712249062
  H   -1.14500043059738     -0.81342282519294     -1.69632653817397
  N   -1.13568698400684     -0.72727162475336      1.01571751798800
  H   -2.14326148408054     -0.79781763408459      1.10988391087276
  H   -0.79249926132131     -1.63526883664677      0.72666190086083
  N   1.19686882053542     -0.90173272663264     -0.59780454334066
  H   2.06618135557955     -0.77629820943734     -1.09990412409805
  H   1.40666536986562     -1.43396697989516      0.24072777706528
  N   1.29383200366971      0.90922530329834      1.06138191498459
  O   1.76527427204785      0.09198078571947      1.84777706179671
  O   1.28137677374817      2.12705138192090      1.20182134057162
