16
Coordinates from ORCA-job run
  C   -0.65722328987124     -0.21060170791625     -0.29505200981975
  C   0.83049182099377      0.18570132285936     -0.38335409953461
  F   -0.88648122491203     -0.93416316406450     -1.48267494947652
  H   0.99587357169655      0.73720000674298     -1.30936935328819
  N   -0.87505935393624     -1.15786644745765      0.75706217070088
  H   -1.72162916302621     -1.68307167620491      0.58021295102177
  H   -0.92806431948683     -0.68549889337910      1.64974672617238
  N   -1.46989415048652      0.94475530515435     -0.21235649929413
  H   -2.45208751896389      0.70244554614414     -0.18875059461191
  H   -1.29348415046885      1.59596535399766     -0.96770710851904
  N   1.74093008325377     -0.89874925977230     -0.25500522035615
  H   1.30826410319635     -1.62685338642998      0.30246124027254
  H   1.98585445261805     -1.26345794306060     -1.16370405965540
  N   1.08444628535964      1.18701982333797      0.71738433661870
  O   1.24949611812466      2.35834517732857      0.38803865147680
  O   1.08856673590903      0.75082994272026      1.86406781829262
