16
Coordinates from ORCA-job run
  C   -0.80424796607376     -0.13221123133403     -0.40899621787382
  C   0.72869977792988      0.09439277258104     -0.41782241275380
  F   -1.05019161176853     -0.65249583254227     -1.68846302775652
  H   1.00857052922638      0.62246321352144     -1.32933859530596
  N   -1.29133627373148     -1.11316092849791      0.50382198511986
  H   -0.88742863564096     -2.01564715989368      0.29137966742433
  H   -1.08542022176551     -0.84209935917855      1.45656204149059
  N   -1.47776880063495      1.08034739292970     -0.16008082470135
  H   -1.22229999933764      1.80930931610778     -0.81289733165745
  H   -2.47616724590519      0.91979052345006     -0.17468194838284
  N   1.42520627477674     -1.13901212224963     -0.30499661989811
  H   1.39340438469597     -1.46683406523521      0.65231884286287
  H   2.39175950788978     -1.04181512318793     -0.58519355574145
  N   1.04592801091367      1.05933593764401      0.71175104489984
  O   1.09560053394172      0.57692390419395      1.84266087995625
  O   1.20869173548387      2.24071276169123      0.42397607231756
