16
Coordinates from ORCA-job run
  C   -0.80265254159551     -0.14788575509509      0.08525751264572
  C   0.67924565319334      0.04957255091022     -0.31812288793590
  F   -0.71517233507235     -0.48047365918942      1.46170370727167
  H   0.72594169177970      0.40596706368885     -1.34742204184934
  N   -1.69129891908965      0.96035443721550      0.01745558322849
  H   -1.84290739563192      1.21840521104808     -0.94776715109134
  H   -1.33692268247577      1.75782245656293      0.52692594940865
  N   -1.32230109872949     -1.18469552311586     -0.71063553007552
  H   -0.71936467675153     -1.99527593365253     -0.69299990865597
  H   -2.26294230300776     -1.40601834925751     -0.41187680662549
  N   1.39747675715300     -1.16160948724853     -0.14717497007727
  H   1.44305930061383     -1.39120828488062      0.83786913555855
  H   2.33879363754930     -1.09134377578715     -0.50950601755460
  N   1.24029671404841      1.20323666914346      0.51620767422135
  O   0.88280950417829      2.33536318631670      0.19236740294433
  O   1.98693869383813      0.92678919334097      1.44871834858668
