16
Coordinates from ORCA-job run
  C   -0.78911959613163      0.26072802429010     -0.16409268729421
  C   0.75308852316996      0.22156519914013     -0.12986206537147
  F   -1.11399089761809      1.60031844753011      0.07607563704620
  H   1.14581619860784      0.88205365918469     -0.91192240990767
  N   -1.18851446298235     -0.18111331939987     -1.45320977078744
  H   -2.19680951071472     -0.27617181436383     -1.46456253959604
  H   -0.89775365578952      0.47376577268662     -2.16862770916617
  N   -1.48960002199279     -0.50979257051141      0.80904026153725
  H   -1.18305296543911     -1.47316968761024      0.74862951181686
  H   -1.24376140740528     -0.17559923224770      1.73252044211037
  N   1.19270669396570     -1.14219490379330     -0.16318382968645
  H   0.70306258007189     -1.60601365594359     -0.91998462755977
  H   2.18860503769961     -1.20027850060902     -0.33627464762290
  N   1.24639181400460      0.87555622065721      1.13717088821374
  O   0.90108647551588      0.39020795346313      2.21002486175893
  O   1.97184519503801      1.85813840752695      0.99525868450878
