16
Coordinates from ORCA-job run
  C   -0.70889939176696     -0.10953248826409      0.11338636427629
  C   0.74817895415485      0.02769737291010     -0.35440337417093
  F   -0.66246121767803     -0.48401215858752      1.49418584598011
  H   0.74437808220866      0.03564685525354     -1.44287970532239
  N   -1.41639171360112      1.10430608585848     -0.04980108009352
  H   -2.41462781004560      0.95144394304405     -0.09310167217343
  H   -1.19538809883199      1.73968601223377      0.70544989826663
  N   -1.31339652642617     -1.15352817489998     -0.63835226552343
  H   -0.74827923216799     -1.98994752241462     -0.56112407100378
  H   -2.22698048023262     -1.36496741178591     -0.25256389665431
  N   1.63760947716218     -0.94940885872771      0.16776161183106
  H   1.33109845874057     -1.33807521632059      1.04523988928179
  H   1.94514669195433     -1.63857567304170     -0.49611862730288
  N   1.27907166374236      1.39636877432617      0.02300470733352
  O   1.88455392033721      2.01401675478803     -0.84631410942642
  O   1.11538722245031      1.75988170562799      1.18563048470168
