16
Coordinates from ORCA-job run
  C   -0.74853726276157     -0.14155609653398      0.16376546308359
  C   0.72865397934592      0.01341964587555     -0.26315014416443
  F   -0.72945015157484     -0.51021290746633      1.52130252707241
  H   0.77260046026388      0.00125708944494     -1.35150185363699
  N   -1.47940678563570      1.03891874361758     -0.07968623831380
  H   -1.15291578458024      1.79837118244369      0.50365360482147
  H   -2.45810742565803      0.86274942067404      0.11121946885667
  N   -1.41175797950003     -1.22439698596141     -0.50185457678301
  H   -0.91202648436904     -2.09195589490913     -0.35921836492541
  H   -1.49499071363741     -1.02904660756555     -1.49075119657174
  N   1.61618608340064     -0.94280181815476      0.30377919899367
  H   1.88573867301114     -1.67691630390241     -0.32868898050454
  H   1.29218058501412     -1.29117174118806      1.19273209080014
  N   1.23406882032408      1.39499894838588      0.10060381032134
  O   1.72254573686094      2.07186023489637     -0.79970711415461
  O   1.13521824949614      1.72548309034358      1.28050230510524
