16
Coordinates from ORCA-job run
  C   -0.72429901531281      0.09821802357047     -0.09965753675083
  C   0.78603695198367      0.35068956463887     -0.23432975484194
  F   -1.27067019151744      1.35034495718272      0.31000441370460
  H   0.94129919476206      1.06467139475616     -1.04250248540484
  N   -1.22162230527571     -0.24236990808172     -1.39089752865754
  H   -1.41685312513817      0.59947440877431     -1.91741646972037
  H   -2.06143661738553     -0.80233937773694     -1.33000567754105
  N   -1.01201647752250     -0.92403394312732      0.83197313634128
  H   -0.58290216224590     -0.71179776151426      1.72430986170949
  H   -2.01276844410119     -1.01771768990078      0.95596639414508
  N   1.59094872329790     -0.81524919489445     -0.42586389722615
  H   1.20055076999068     -1.58390578521160      0.10630519175848
  H   1.56985766310271     -1.06924296211777     -1.40400072162498
  N   1.27820159487687      1.06455367226315      0.99764016250239
  O   1.21028543265593      0.43830916070778      2.05539790374885
  O   1.72438800782944      2.19739544069137      0.86507700785751
