16
Coordinates from ORCA-job run
  C   -0.74572942662375     -0.21892268162096     -0.09150613621394
  C   0.64871891254093      0.42036038386774      0.05328395943309
  F   -0.50376127011379     -1.62183694740954     -0.09826022860614
  H   0.54792300920666      1.40358023469265      0.51625870616596
  N   -1.58199413328580      0.12100369599815      1.00977655976087
  H   -1.13272853892024     -0.14041848921696      1.87965866098087
  H   -2.45334656896193     -0.39342114541938      0.93614036911470
  N   -1.30842444557373      0.11463648906690     -1.35143704827880
  H   -0.88510613869862      0.93848052586314     -1.75078095612472
  H   -2.31103346722196      0.22000780417894     -1.29156752564775
  N   1.31508804428337      0.49821624146190     -1.19032303213009
  H   1.36332428096633     -0.41321885177127     -1.62833018844291
  H   2.25104226803059      0.86530359867923     -1.08801252810768
  N   1.41434810926801     -0.40466988770600      1.10582548351120
  O   0.99336041159850     -0.34415208395336      2.25895245134890
  O   2.38731895350541     -1.04494888671116      0.73132145323643
