16
Coordinates from ORCA-job run
  C   -0.73579186741974     -0.08848402813831     -0.41343852073721
  C   0.80271498594432      0.04177699204407     -0.41696783630896
  F   -1.07068177722816     -0.38565152612263     -1.74813185649223
  H   1.10747952498356      0.37684322468577     -1.40611567893544
  N   -1.14710463652838     -1.12823547357371      0.45571150226839
  H   -2.15753065846864     -1.18637019036072      0.47341636738455
  H   -0.75741622989212     -2.01168968231569      0.14921369255749
  N   -1.35436460741722      1.17721802214974     -0.14559269988693
  H   -1.48034158950916      1.30197587807372      0.85031958804484
  H   -2.24484952442087      1.22622630076838     -0.62184684522200
  N   1.43666363912155     -1.18105751703439     -0.05701591074199
  H   2.42496859349193     -1.16314766541915     -0.27071884268662
  H   1.30526224836478     -1.35082395380298      0.93360810949790
  N   1.18840195860846      1.18491245462901      0.50734001726158
  O   1.68486603955439      2.18541031577939      0.00112866027688
  O   0.99672390081528      1.00109684863751      1.70909025371974
