16
Coordinates from ORCA-job run
  C   -0.72760786811830      0.07822288815139     -0.09354139577786
  C   0.77450049295018      0.37797346844392     -0.22005401710867
  F   -1.30807082166454      1.29602487257861      0.36915961692055
  H   0.91015454095834      1.12432148877275     -1.00210434869476
  N   -1.21945994800037     -0.22461432010467     -1.39562205289040
  H   -1.42433381914828      0.63222087732459     -1.89357904050499
  H   -2.05381194814659     -0.79462355763108     -1.35405256749286
  N   -0.98177359724909     -0.98899272337474      0.79734261320804
  H   -1.97894362238159     -1.12251665897044      0.91359488194432
  H   -0.56347818945796     -0.79202621055911      1.69843212354992
  N   1.60895238127370     -0.75881261718805     -0.44725444886720
  H   1.64972613985447     -0.94955396485674     -1.43845205995605
  H   1.21228541189130     -1.56762053532235      0.01583197990855
  N   1.24571316983808      1.06685762434743      1.03654954574421
  O   1.18049425119770      0.41305562354444      2.07731119968498
  O   1.67665342620295      2.20908374484404      0.93643797033223
