16
Coordinates from ORCA-job run
  C   -0.80843276885354      0.10499255835670     -0.08460337217595
  C   0.70323809087489      0.40513722507160     -0.12976620262587
  F   -1.39203337496229      1.29185328890336      0.38577570422335
  H   0.87941161700615      1.19911416118389     -0.85588390132244
  N   -1.39419583827158     -0.12350204430095     -1.37113909228430
  H   -0.97999309401167     -0.93384366582138     -1.81041345864123
  H   -1.28866342397934      0.68899554449180     -1.96437651545953
  N   -1.07613924545799     -1.02080087628210      0.72082356500215
  H   -2.06715573700896     -1.22241014514742      0.69940172353975
  H   -0.74505911207011     -0.88493674705275      1.66726328047045
  N   1.50730530636660     -0.73902583586141     -0.36779756045167
  H   1.96524815281672     -0.74245759032221     -1.26304056858549
  H   1.01970212255168     -1.59952351305229     -0.16635079277443
  N   1.11842570703818      1.04074168405248      1.18990659961043
  O   1.58227730860229      2.17524772919567      1.14626651872318
  O   0.97606428935897      0.36141822658501      2.20393407275159
