16
Coordinates from ORCA-job run
  C   -0.65604741971600     -0.21800199830903     -0.38578534024406
  C   0.82886721548421      0.17038928329294     -0.39559401005978
  F   -0.86456788777711     -0.87866916046017     -1.58583880424903
  H   1.01484580520662      0.69982423631808     -1.32962505085926
  N   -0.91734373228069     -1.19442937012882      0.63692058605375
  H   -0.81420589221029     -0.76293789850813      1.54700696803175
  H   -1.85791800350513     -1.55557266436497      0.53188049413682
  N   -1.46242051015102      0.97595239204148     -0.46755031507405
  H   -2.36846175794033      0.73591728541599     -0.85230133163848
  H   -1.58933057553242      1.37417930476222      0.45391009668411
  N   1.71468114058826     -0.91478085311925     -0.16712076701697
  H   1.20005662030301     -1.73476883085658      0.12586951424232
  H   2.30817449761993     -1.10506924923772     -0.95768616254137
  N   1.07813228424461      1.22194528112346      0.67555133664340
  O   1.94942029817433      2.04900443081153      0.44397766549648
  O   0.43811791749200      1.13601781121894      1.72738512039439
