16
Coordinates from ORCA-job run
  C   -0.78709397936248      0.22713437148570     -0.08752178877184
  C   0.72511534094289      0.41744720311904     -0.24714718092213
  F   -1.26570637733054      1.36978701696017      0.56344958859341
  H   0.89346910786103      1.29729982545388     -0.86531829547435
  N   -1.35941926825981      0.23819927821283     -1.39791339964026
  H   -2.37016448268208      0.20237193899757     -1.33725941424389
  H   -1.01504374941165     -0.56240627769287     -1.91191737669724
  N   -1.07217222312769     -0.94839060085316      0.66686355321074
  H   -2.06864674965071     -1.12521228021814      0.67475587004004
  H   -0.73199920428460     -0.86924016646250      1.61779930076483
  N   1.29719496711341     -0.75012734084606     -0.80644354590574
  H   2.28370378665929     -0.64513962641012     -0.99919173561311
  H   1.12571605230754     -1.54960414976927     -0.21045296875190
  N   1.30269210998722      0.80840715637943      1.11432730324613
  O   1.67141795295093      1.96891079569607      1.25899177892991
  O   1.37193671628725     -0.07943714405257      1.96597831123540
