15

C	-0.493701	-0.087191	-1.424737
C	0.0	0.0	0.0
F	-0.337162	1.119101	-2.115562
H	1.096967	0.0	0.0
H	-1.567928	-0.326221	-1.462677
H	0.070195	-0.849349	-1.973476
C	-0.431653	-1.266888	0.732575
H	-0.071822	-2.161247	0.213217
H	-1.523584	-1.337389	0.8316
H	0.009301	-1.281898	1.732528
C	-0.510525	1.251485	0.695871
H	-1.608651	1.27794	0.737605
H	-0.124998	1.291084	1.718662
H	-0.163554	2.145458	0.175383
H	3.088836	0.0	0.0
