15

C	-0.493703	0.087195	-1.424736
C	0.0	0.0	0.0
F	-0.337162	-1.119094	-2.115566
H	1.096967	0.0	0.0
H	-1.56793	0.326223	-1.462673
H	0.070191	0.849357	-1.973473
C	-0.510524	-1.251487	0.695868
H	-0.163556	-2.145458	0.175375
H	-1.60865	-1.277941	0.737605
H	-0.124994	-1.291091	1.718657
C	-0.431653	1.266886	0.732579
H	-0.071822	2.161246	0.213223
H	0.009303	1.281893	1.732532
H	-1.523583	1.337386	0.831605
H	3.088835	0.0	0.0
