17

C	0.0	0.0	0.0
C	-0.465244	-0.09284	-1.476228
F	1.356662	0.0	0.0
H	0.276251	-0.781373	-1.899001
C	-0.478877	1.167592	0.741685
N	-0.746955	2.178477	1.277337
N	-0.353909	-1.270615	0.774089
O	-0.202638	-2.318869	0.156013
O	-0.652056	-1.158468	1.956345
C	-0.305411	1.281189	-2.11599
H	0.672409	1.724646	-1.906784
H	-0.426293	1.169531	-3.19433
H	-1.086208	1.955423	-1.754967
N	-1.768935	-0.617412	-1.745972
H	-1.837115	-1.583416	-1.455752
H	-2.536622	-0.129694	-1.273651
Cl	-4.336963	0.0	0.0
