17

C	0.0	0.0	0.0
C	-0.496141	0.285162	-1.457291
F	1.361413	0.0	0.0
H	0.382171	-0.018901	-2.04021
C	-0.463738	0.90643	1.050615
N	-0.694688	1.713442	1.872511
N	-0.365773	-1.432808	0.378199
O	0.163447	-2.289377	-0.324793
O	-1.130202	-1.618345	1.312723
C	-0.746963	1.777975	-1.619589
H	-0.88809	1.99003	-2.679897
H	-1.664585	2.04621	-1.091093
H	0.078848	2.383233	-1.236669
N	-1.629928	-0.448747	-1.9353
H	-2.476568	-0.259668	-1.383823
H	-1.453314	-1.444716	-1.925779
Cl	-4.123325	0.0	0.0
