17

C	0.0	0.0	0.0
C	-0.646871	0.25699	-1.350595
F	1.356675	0.0	0.0
H	-1.728246	0.277522	-1.136708
C	-0.405276	0.9916	1.011079
N	-0.572185	1.806878	1.838731
N	-0.363504	-1.393749	0.533687
O	0.333382	-2.312662	0.106774
O	-1.295056	-1.480165	1.320507
C	-0.347351	-0.825607	-2.381379
H	-0.790153	-1.783882	-2.109785
H	0.729235	-0.965196	-2.511562
H	-0.781909	-0.511499	-3.333452
N	-0.2104	1.595009	-1.740921
H	0.587925	1.539577	-2.36018
H	-0.964234	2.069487	-2.217307
Cl	-3.863802	0.0	0.0
