16

C	-0.468911	-0.060984	-1.424867
C	0.0	0.0	0.0
F	-1.83831	-0.0913	-1.556289
H	1.108796	0.0	0.0
N	-0.011161	1.218008	-2.137786
O	-0.819898	2.13733	-2.171402
O	1.130458	1.219877	-2.572683
C	0.079179	-1.200589	-2.171824
N	0.426937	-2.136046	-2.791159
C	-0.490267	-1.175061	0.691232
N	-0.869649	-2.115046	1.289304
C	-0.403066	1.291106	0.713779
H	-0.135421	1.187299	1.76604
H	-1.467608	1.527601	0.633002
H	0.187616	2.117169	0.314624
F	2.478018	0.0	0.0
