16

C	-0.290001	0.028132	-1.475688
C	0.0	0.0	0.0
F	0.070383	-1.137858	-2.067014
H	1.108222	0.0	0.0
N	-1.799309	0.18747	-1.748775
O	-2.44507	-0.831843	-1.953411
O	-2.24332	1.328628	-1.650293
C	0.376257	1.146749	-2.160007
N	0.889149	2.020674	-2.753642
C	-0.568861	-1.184981	0.60044
N	-1.028693	-2.128141	1.133386
C	-0.373395	1.278843	0.744287
H	0.014128	1.192671	1.761468
H	0.13451	2.12521	0.277143
H	-1.448034	1.477953	0.781876
F	2.474683	0.0	0.0
