16

C	-0.344585	-0.076508	-1.472149
C	0.0	0.0	0.0
F	0.006497	1.076891	-2.095283
H	1.108316	0.0	0.0
N	0.456001	-1.206166	-2.141472
O	0.211248	-2.326465	-1.71462
O	1.226252	-0.900456	-3.034787
C	-1.765033	-0.342293	-1.77069
N	-2.909462	-0.512038	-1.977363
C	-0.545941	-1.113812	0.743962
N	-0.991917	-1.963719	1.424987
C	-0.449084	1.332082	0.600135
H	-1.529926	1.503224	0.529381
H	-0.162424	1.33944	1.65324
H	0.087762	2.141316	0.105282
F	2.490444	0.0	0.0
