16

C	-0.294051	0.239901	-1.454159
C	0.0	0.0	0.0
F	0.11896	-0.804587	-2.214773
H	1.107418	0.0	0.0
N	-1.810883	0.368836	-1.709185
O	-2.31139	1.453333	-1.422211
O	-2.40341	-0.629064	-2.094095
C	0.316735	1.480195	-1.954328
N	0.787031	2.461738	-2.39349
C	-0.54769	-1.268508	0.425429
N	-0.981283	-2.283831	0.833558
C	-0.386646	1.148368	0.927041
H	-1.46273	1.336574	0.982229
H	0.122323	2.058231	0.600262
H	-0.009428	0.908454	1.922998
F	2.472959	0.0	0.0
