14
Coordinates from ORCA-job run
  C   -0.20952347506457     -0.27679525621442      0.39257585163817
  C   1.17143873812759     -0.44045446090738     -0.25162870930290
  Cl  -0.05353854221942     -1.14282363611934      2.02799434032216
  H   1.93995804912108     -0.05543401986845      0.42230300079327
  H   1.38146081705262     -1.50315691373910     -0.40567662109332
  C   -0.54575685136338      1.17015593704076      0.69217732657313
  H   0.21909782346368      1.62246746245894      1.32381604721788
  H   -1.50028874739906      1.23227441073860      1.21876443449317
  H   -0.62107072099754      1.72343746755283     -0.24615100273529
  N   -1.19593996341280     -0.85830150324904     -0.43788183171032
  H   -1.03123753346934     -1.84431648236583     -0.59776485186366
  H   -2.12676815531231     -0.73415508670998     -0.06057266320535
  C   1.24879601191712      0.26254675397241     -1.53099476985473
  N   1.32437254955635      0.84455532741001     -2.54696055127221
