14
Coordinates from ORCA-job run
  C   -0.22545636157205     -0.24582159291021      0.52229983264851
  C   1.16720435018617     -0.44038851256389     -0.11949648318197
  Cl  -0.07127166046114     -0.93789081889564      2.18047906293047
  H   1.93334333180029      0.09186006527240      0.45061170769011
  H   1.42558882823666     -1.50307464732385     -0.10855528232842
  C   -0.58682913242749      1.22250891394086      0.63897373151592
  H   -1.54582664375577      1.31396015441889      1.14827200170372
  H   0.17239977856685      1.76582420892938      1.20288721652781
  H   -0.67012983880647      1.66766506521031     -0.35680836329234
  N   -1.29065847658392     -0.94968283445364     -0.14055077689802
  H   -1.48365827343590     -0.52582386710642     -1.04094356358637
  H   -1.06238224688891     -1.92764286307480     -0.27476216346414
  C   1.15395651692932      0.03790823684311     -1.49991186007308
  N   1.08371982821234      0.43159849171349     -2.60349506019219
