14
Coordinates from ORCA-job run
  C   -0.18336464959679     -0.34507121006060      0.32108789026177
  C   0.79406086605668     -0.49468079222434     -0.85097026705683
  Cl  0.60167873560967     -1.02823887262968      1.78410892618445
  H   0.27753471980748     -0.20849149581324     -1.77432660323891
  H   1.06772222462146     -1.54801729685467     -0.93600803081748
  C   -0.52471752371743      1.10967856149934      0.60863784186169
  H   0.36077784226480      1.68997328058252      0.87161721427720
  H   -0.98562679798395      1.55530394493100     -0.27911062167494
  H   -1.23599204098934      1.16545393449960      1.43475017986200
  N   -1.32245322391401     -1.19504814762284      0.01960806712904
  H   -1.91878417037646     -1.26706945833851      0.83658607263413
  H   -1.86663205217863     -0.76528066105011     -0.72246384020114
  C   1.99189562243235      0.32753765064099     -0.71141669391902
  N   2.94490044796417      1.00295056244054     -0.60110013530195
