14
Coordinates from ORCA-job run
  C   -0.07299008453102     -0.06865716795114      0.39224020265415
  C   0.94201250575462      0.16833828782722     -0.73026302807139
  Cl  0.83663451262848     -0.36244548827428      1.91439068265393
  H   1.56639634846894      1.03025269594764     -0.48249648933645
  H   0.39600414540942      0.41162241562242     -1.64950836697659
  C   -0.92633723844706      1.17724817924314      0.59999556887673
  H   -1.49803618051327      1.38216962380976     -0.31065099683173
  H   -1.62815872577999      1.01436950398540      1.41997438502875
  H   -0.31557824448149      2.05040389288601      0.83857412363284
  N   -0.80919501187422     -1.27775251514980      0.10049909479237
  H   -1.43812254142944     -1.50024355234702      0.86337214898250
  H   -1.35947876282302     -1.14815554254585     -0.74225388506042
  C   1.79719123121487     -0.98759292216417     -0.98647679785449
  N   2.50865804640319     -1.88855741088933     -1.22639664249022
