14
Coordinates from ORCA-job run
  C   -0.12693708580216     -0.38907301925819      0.43483340284317
  C   1.16243376914837     -0.48337605120152     -0.39343224756958
  Cl  0.13810057136208     -1.41147538853226      1.89235171292055
  H   2.01141594999735     -0.11597339172699      0.18798319942668
  H   1.33703776860307     -1.53258494090983     -0.64107381289138
  C   -0.39781639858737      1.03187098715149      0.90955543743935
  H   -0.56379275635269      1.68060392378178      0.04491579046698
  H   0.43645198686184      1.42648559568358      1.49329887791016
  H   -1.29290184651409      1.04847673938297      1.53426424505185
  N   -1.19650524001112     -1.00214147759185     -0.32333084046848
  H   -1.38431509513268     -0.44475314519158     -1.15138095681498
  H   -2.04222456325479     -1.03008082401869      0.23515709083431
  C   1.03751326107120      0.29346312041524     -1.62470186878170
  N   0.88153967861099      0.92855787201584     -2.59944003036689
