14
Coordinates from ORCA-job run
  C   -0.13990266444977     -0.21118302994664      0.56578098901143
  C   1.18826551947884     -0.33374287036644     -0.21469255165918
  Cl  0.26663945763792     -0.70978290582395      2.25085526171893
  H   1.94864073948491      0.32629200692026      0.21130406780427
  H   1.56058272468825     -1.35935136858952     -0.13806262878809
  C   -0.64412591124968      1.21902528512467      0.58943355123013
  H   -1.54702020136053      1.26855236136340      1.19748227303543
  H   -0.88171977518799      1.54851443266478     -0.42630051627813
  H   0.10768658220594      1.88938522599708      1.00774143640085
  N   -1.18740924485024     -1.08031061535225      0.10046214807254
  H   -1.52385150703239     -0.77061601089186     -0.80425572831319
  H   -0.86897827231281     -2.03932980106497      0.02686318032861
  C   0.97637545076587     -0.00481175781247     -1.62234272919309
  N   0.74581710218168      0.25635904777790     -2.74326875337049
