17

C	-0.382071	0.009252	-1.459939
C	0.0	0.0	0.0
Cl	0.040917	-1.474464	-2.330663
H	1.096767	0.0	0.0
H	0.106189	0.837545	-1.972567
N	-1.860311	0.258977	-1.623945
O	-2.645343	-0.663401	-1.420173
O	-2.186145	1.423559	-1.867291
C	-0.496757	-1.197627	0.79123
H	-1.586188	-1.207855	0.901768
H	-0.042918	-1.157661	1.785644
H	-0.185235	-2.13628	0.330436
C	-0.412327	1.318034	0.648794
H	-0.070849	2.173938	0.060038
H	0.073722	1.382353	1.625891
H	-1.495927	1.406233	0.790009
H	2.83887	0.0	0.0
