16

C	-0.624063	-0.003205	-1.382272
C	0.0	0.0	0.0
Cl	-0.063707	-1.503718	-2.172685
H	1.089521	0.0	0.0
H	-0.329042	-0.89008	0.5374
C	-2.137906	0.021315	-1.380995
H	-2.494545	0.978477	-1.001872
H	-2.512151	-0.112349	-2.395587
H	-2.503525	-0.79163	-0.747722
N	-0.085492	1.13706	-2.248933
O	1.051442	1.516764	-2.024133
O	-0.829758	1.536928	-3.142551
N	-0.475392	1.152632	0.81182
O	-0.757409	2.19797	0.221507
O	-0.54261	0.989503	2.026699
Br	3.505373	0.0	0.0
