16

C	-0.548558	0.000242	-1.408336
C	0.0	0.0	0.0
Cl	0.168069	-1.333006	-2.344824
H	1.086053	0.0	0.0
H	-0.402712	0.8512	0.550799
C	-2.05386	-0.032874	-1.554191
H	-2.331824	0.03827	-2.604516
H	-2.441705	-0.957355	-1.130269
H	-2.484345	0.805464	-0.999556
N	-0.064924	1.300422	-2.080233
O	0.661297	2.039309	-1.425593
O	-0.456736	1.506302	-3.224374
N	-0.458692	-1.226369	0.702307
O	0.359993	-2.131834	0.850558
O	-1.601851	-1.223911	1.179727
Br	2.758095	0.0	0.0
