16

C	-0.553682	0.004629	-1.417216
C	0.0	0.0	0.0
Cl	0.158143	-1.299636	-2.374648
H	1.08605	0.0	0.0
H	-0.384123	0.862824	0.537921
C	-2.066075	-0.054221	-1.512104
H	-2.435454	-0.989541	-1.094095
H	-2.36086	0.012062	-2.559726
H	-2.501705	0.776183	-0.950422
N	-0.156314	1.338587	-2.072229
O	-0.313104	1.424991	-3.283192
O	0.200132	2.242864	-1.325742
N	-0.525066	-1.1921	0.719266
O	0.097607	-2.246109	0.641294
O	-1.578117	-1.034716	1.347806
Br	3.489947	0.0	0.0
