16

C	-0.528218	0.031973	-1.431619
C	0.0	0.0	0.0
Cl	0.071602	-1.355921	-2.336031
H	1.088459	0.0	0.0
H	-0.391476	0.85926	0.539721
C	-2.035636	0.135746	-1.58511
H	-2.279726	0.248836	-2.64354
H	-2.510597	-0.764218	-1.200692
H	-2.401818	0.997491	-1.024655
N	0.026904	1.325098	-2.058425
O	-0.116463	2.325981	-1.361248
O	0.470291	1.296216	-3.195055
N	-0.528054	-1.200744	0.698042
O	-1.691849	-1.124874	1.116243
O	0.197453	-2.18486	0.812749
Br	3.500652	0.0	0.0
