16

C	-0.474171	-0.024478	-1.433486
C	0.0	0.0	0.0
Cl	-0.064182	1.482009	-2.253154
H	1.088315	0.0	0.0
H	-0.362388	-0.889824	0.517216
C	0.183984	-1.188895	-2.15409
H	-0.103889	-2.124568	-1.671398
H	1.26679	-1.065832	-2.089468
H	-0.131064	-1.201849	-3.199108
N	-1.990575	-0.257697	-1.504929
O	-2.392522	-1.173232	-0.791468
O	-2.670971	0.389215	-2.284029
N	-0.529597	1.156924	0.769206
O	0.14548	1.566541	1.704925
O	-1.639276	1.589304	0.444904
Br	3.495213	0.0	0.0
