16

C	-0.436917	0.079354	-1.452291
C	0.0	0.0	0.0
Cl	-2.209886	0.354999	-1.579796
H	1.088968	0.0	0.0
H	-0.399214	-0.882909	0.486196
C	0.324823	1.074098	-2.287124
H	0.146752	2.070234	-1.889546
H	0.011208	1.017558	-3.32777
H	1.391488	0.847951	-2.191453
N	-0.243036	-1.333408	-2.04578
O	0.021828	-1.399493	-3.240642
O	-0.425835	-2.292003	-1.303157
N	-0.461808	1.157185	0.806355
O	-0.307399	2.29236	0.362645
O	-0.951569	0.897477	1.906226
Br	3.433693	0.0	0.0
