14

C	0.0	0.0	0.0
C	-0.441292	-0.090935	-1.484063
Cl	1.783023	0.0	0.0
H	0.253102	-0.793153	-1.95901
H	-0.353604	0.921056	0.465314
C	-0.450103	-1.159494	0.765597
N	-0.730379	-2.130288	1.364047
C	-0.203383	1.214229	-2.108293
N	-0.017122	2.242904	-2.643107
C	-1.871986	-0.580061	-1.703483
H	-2.631372	-0.006264	-1.167219
H	-2.098721	-0.544833	-2.771799
H	-1.96042	-1.61459	-1.368017
Br	-4.901897	0.0	0.0
