14

C	0.0	0.0	0.0
C	-0.53952	-0.048188	-1.43872
Cl	1.782975	0.0	0.0
H	-0.07201	-0.909825	-1.930429
H	-0.331265	0.917513	0.49159
C	-0.449297	-1.159335	0.76818
N	-0.739957	-2.123138	1.373239
C	-0.094045	1.156959	-2.143203
N	0.258543	2.150528	-2.660851
C	-2.065214	-0.179303	-1.46066
H	-2.571825	0.611431	-0.905883
H	-2.389315	-1.118438	-1.013924
H	-2.430113	-0.151187	-2.488035
Br	-5.194944	0.0	0.0
