17

C	-0.36193	-0.136358	-1.476888
C	0.0	0.0	0.0
Cl	-0.368066	1.542008	-2.334184
H	1.098627	0.0	0.0
H	-1.401246	-0.442363	-1.626001
N	0.52644	-1.044014	-2.089298
H	1.490779	-0.818781	-1.851021
H	0.409524	-1.090264	-3.091895
C	-0.466639	-1.271061	0.711844
H	-0.094231	-2.159654	0.201541
H	-0.083522	-1.280406	1.735637
H	-1.56257	-1.319355	0.75552
C	-0.547058	1.237728	0.690137
H	-0.088365	2.14667	0.304066
H	-1.633408	1.317664	0.562187
H	-0.331966	1.179446	1.760712
Cl	3.525718	0.0	0.0
