17

C	-0.278199	0.030381	-1.490715
C	0.0	0.0	0.0
Cl	-2.069584	0.191764	-1.868205
H	1.101157	0.0	0.0
H	-0.042915	-0.948863	-1.920494
N	0.421154	1.127497	-2.103693
H	0.444342	1.007743	-3.110004
H	1.380147	1.112085	-1.753697
C	-0.501882	-1.274337	0.659546
H	-0.165817	-1.311825	1.70012
H	-0.106417	-2.161541	0.155149
H	-1.596793	-1.32422	0.646401
C	-0.482681	1.251673	0.71995
H	-0.048016	1.283832	1.7227
H	-0.173102	2.149942	0.184374
H	-1.573295	1.26142	0.811144
Cl	3.512184	0.0	0.0
