17

C	-0.482448	0.016519	-1.441099
C	0.0	0.0	0.0
Cl	0.225571	-1.413327	-2.367824
H	1.094968	0.0	0.0
H	-0.054538	0.878576	-1.956168
N	-1.911018	0.057475	-1.555583
H	-2.303894	-0.791697	-1.164889
H	-2.176698	0.09374	-2.53251
C	-0.487067	-1.212841	0.785241
H	-0.006388	-1.216211	1.766299
H	-0.217964	-2.146178	0.287305
H	-1.571948	-1.191477	0.948418
C	-0.437865	1.298624	0.679003
H	-0.00914	1.344289	1.683752
H	-0.065809	2.167656	0.128649
H	-1.526494	1.372946	0.747451
Cl	3.579463	0.0	0.0
