17

C	-0.38115	-0.009301	-1.464568
C	0.0	0.0	0.0
Cl	-2.270682	-0.353369	-1.618658
H	1.097573	0.0	0.0
H	0.026293	-0.889392	-1.960432
N	-0.022407	1.14795	-2.162073
H	-0.409212	1.986842	-1.757034
H	-0.239552	1.096629	-3.146138
C	-0.440464	-1.271468	0.717226
H	0.090174	-1.343781	1.669903
H	-1.516916	-1.284825	0.906828
H	-0.184148	-2.159323	0.132128
C	-0.477407	1.247049	0.734377
H	-1.564049	1.365402	0.665213
H	0.012952	2.147441	0.355497
H	-0.206517	1.169609	1.790044
Cl	3.549907	0.0	0.0
