17

C	-0.383743	-0.158367	-1.478325
C	0.0	0.0	0.0
Cl	-0.493117	1.454534	-2.318524
H	1.098333	0.0	0.0
H	-1.394319	-0.57004	-1.576203
N	0.530101	-0.983186	-2.227486
H	1.480249	-0.778287	-1.921185
H	0.339843	-1.957724	-2.029501
C	-0.438173	-1.272203	0.729289
H	-1.532204	-1.341421	0.789228
H	-0.037328	-1.272182	1.745917
H	-0.058362	-2.171139	0.237877
C	-0.554397	1.229261	0.701332
H	-1.643354	1.295531	0.590452
H	-0.114546	2.143613	0.306296
H	-0.321064	1.178293	1.768448
Cl	3.517617	0.0	0.0
