17

C	-0.257752	0.008655	-1.500765
C	0.0	0.0	0.0
Cl	-2.043649	0.119212	-1.874246
H	1.100546	0.0	0.0
H	0.048299	-0.956282	-1.910758
N	0.4289	1.034767	-2.254075
H	0.198776	1.9407	-1.860037
H	1.426412	0.887274	-2.084744
C	-0.506732	-1.268559	0.668937
H	-0.130831	-1.327157	1.694499
H	-0.152286	-2.158218	0.139448
H	-1.601462	-1.296079	0.696589
C	-0.480425	1.249085	0.724051
H	-0.129841	1.222689	1.759084
H	-1.572542	1.319084	0.728187
H	-0.073713	2.160522	0.278707
Cl	3.501528	0.0	0.0
