14

C	-0.518599	-0.050087	-1.420058
C	0.0	0.0	0.0
F	-1.874089	-0.184986	-1.442205
H	1.093172	0.0	0.0
H	-0.050646	-0.855815	-1.97915
N	-0.176315	1.233046	-2.137304
O	-0.965889	2.164006	-2.01622
O	0.860775	1.22116	-2.78897
N	-0.361455	-1.307934	0.661993
O	-0.625574	-1.286676	1.857359
O	-0.298667	-2.308437	-0.045442
C	-0.54309	1.106214	0.768708
N	-0.97132	2.020398	1.369036
Cl	3.102086	0.0	0.0
