14

C	-0.464309	-0.081582	-1.432733
C	0.0	0.0	0.0
F	-1.824818	0.021509	-1.532277
H	1.090747	0.0	0.0
H	-0.13049	-1.001985	-1.899365
N	0.103011	1.040511	-2.25633
O	0.597746	0.721676	-3.333578
O	-0.036154	2.179847	-1.821359
N	-0.355347	-1.295172	0.69974
O	-0.415096	-1.265672	1.921625
O	-0.481235	-2.294876	-0.002709
C	-0.560311	1.107026	0.753424
N	-1.031307	1.991495	1.365912
Cl	3.096638	0.0	0.0
