14

C	-0.512852	-0.140009	-1.41879
C	0.0	0.0	0.0
F	-1.858839	-0.339364	-1.439285
H	1.093018	0.0	0.0
H	-0.003856	-0.945112	-1.942903
N	-0.229929	1.133964	-2.180643
O	0.854066	1.183448	-2.748031
O	-1.102147	1.997717	-2.159852
N	-0.353604	-1.268314	0.739441
O	-0.274427	-2.309135	0.094955
O	-0.629265	-1.177115	1.929069
C	-0.5511	1.148179	0.696835
N	-0.98424	2.100641	1.230019
Cl	3.101545	0.0	0.0
