14

C	-0.511728	-0.07915	-1.424362
C	0.0	0.0	0.0
F	-1.855213	-0.284861	-1.451889
H	1.092895	0.0	0.0
H	0.001663	-0.858775	-1.979449
N	-0.228977	1.221854	-2.132628
O	-1.108547	2.075557	-2.102361
O	0.867053	1.299772	-2.67394
N	-0.36495	-1.2972	0.677574
O	-0.648328	-1.2591	1.867277
O	-0.284309	-2.306997	-0.014296
C	-0.552043	1.118761	0.743807
N	-0.991748	2.033903	1.333914
Cl	3.098399	0.0	0.0
