14

C	-0.522299	-0.080494	-1.417898
C	0.0	0.0	0.0
F	-1.877326	-0.22097	-1.432135
H	1.091379	0.0	0.0
H	-0.053537	-0.89509	-1.96318
N	-0.186823	1.191024	-2.157991
O	-0.986202	2.116529	-2.058415
O	0.856923	1.176955	-2.800261
N	-0.357022	-1.295257	0.691453
O	-0.617469	-1.249978	1.88699
O	-0.290319	-2.31018	0.00575
C	-0.544797	1.120407	0.746129
N	-0.971587	2.048363	1.326043
Cl	3.104265	0.0	0.0
