16

C	-0.582344	-0.011766	-1.392698
C	0.0	0.0	0.0
F	-0.05341	0.988427	-2.150957
H	1.087755	0.0	0.0
N	-0.168162	-1.2969	-2.135518
O	0.84523	-1.855787	-1.746554
O	-0.831671	-1.559245	-3.132688
C	-2.046397	0.101476	-1.433148
N	-3.203979	0.302154	-1.474316
N	-0.472504	-1.123383	0.750663
O	-1.219679	-1.946977	0.177991
O	0.008464	-1.25871	1.885713
N	-0.327568	1.275297	0.672345
O	0.237169	2.262754	0.195215
O	-1.105349	1.278602	1.62794
H	2.319692	0.0	0.0
