16

C	-0.364696	-0.072353	-1.457737
C	0.0	0.0	0.0
F	0.12306	-1.224989	-1.976624
H	1.116687	0.0	0.0
N	-1.897884	-0.085811	-1.698037
O	-2.313648	-0.822356	-2.576394
O	-2.538681	0.696603	-1.012523
C	0.14049	1.034101	-2.283119
N	0.501796	1.789057	-3.108457
N	-0.470356	-1.164521	0.723681
O	-1.320124	-1.893268	0.186339
O	0.074741	-1.384528	1.807803
N	-0.342532	1.240026	0.656731
O	-0.038142	2.257067	0.018191
O	-0.791893	1.227634	1.80494
H	2.305468	0.0	0.0
