16

C	-0.402382	0.12408	-1.442545
C	0.0	0.0	0.0
F	0.206549	-0.839815	-2.171445
H	1.117721	0.0	0.0
N	-1.934009	-0.058838	-1.642318
O	-2.299749	-0.725733	-2.593573
O	-2.627171	0.551663	-0.841809
C	-0.112889	1.4199	-2.072153
N	0.052223	2.360587	-2.757434
N	-0.409225	-1.264543	0.566242
O	-1.118196	-2.023161	-0.117045
O	0.088722	-1.547211	1.660196
N	-0.355469	1.134646	0.829851
O	0.05874	2.220568	0.400392
O	-0.943967	0.967501	1.899143
H	2.295087	0.0	0.0
