16

C	-0.575016	-0.072643	-1.390852
C	0.0	0.0	0.0
F	-1.929289	0.069613	-1.40578
H	1.089521	0.0	0.0
N	-0.007174	1.069859	-2.274966
O	1.172326	0.95677	-2.564715
O	-0.789837	1.94016	-2.614546
C	-0.194198	-1.301892	-2.092761
N	0.115747	-2.248065	-2.715861
N	-0.38572	-1.147589	0.79875
O	0.128902	-1.20029	1.921016
O	-1.077492	-2.041208	0.2818
N	-0.353163	1.258559	0.6522
O	0.071305	2.257246	0.055457
O	-0.967682	1.269705	1.719872
H	2.314274	0.0	0.0
