16

C	-0.597942	-0.181027	-1.372112
C	0.0	0.0	0.0
F	-1.955059	-0.133388	-1.384536
H	1.115258	0.0	0.0
N	-0.114365	0.919646	-2.357082
O	-0.97388	1.528748	-2.966806
O	1.097488	1.010437	-2.466592
C	-0.135896	-1.424907	-2.00693
N	0.236253	-2.362381	-2.610436
N	-0.299043	-1.145131	0.847307
O	-1.00888	-2.055251	0.380991
O	0.272625	-1.182202	1.940727
N	-0.371182	1.259658	0.600269
O	-0.381769	1.378166	1.827863
O	-0.543337	2.198007	-0.200006
H	2.256247	0.0	0.0
