16

C	-0.500553	-0.096441	-1.42348
C	0.0	0.0	0.0
F	0.213073	0.722049	-2.230218
H	1.115724	0.0	0.0
N	-0.270232	-1.530786	-1.960629
O	0.758065	-1.712781	-2.587464
O	-1.150262	-2.34146	-1.709782
C	-1.937588	0.171244	-1.586916
N	-3.090508	0.331563	-1.749882
N	-0.342403	-1.171573	0.815801
O	0.340801	-2.172379	0.571692
O	-1.234099	-1.09586	1.662677
N	-0.388553	1.233324	0.61648
O	-0.846589	2.134962	-0.1142
O	-0.03502	1.380324	1.796039
H	2.289304	0.0	0.0
