17

C	-0.536705	-0.028248	-1.391999
C	0.0	0.0	0.0
F	-1.891145	-0.053042	-1.470517
H	1.092958	0.0	0.0
N	-0.063861	1.197254	-2.168694
O	1.060322	1.117352	-2.646165
O	-0.825706	2.156227	-2.191121
N	-0.05282	-1.194243	-2.23535
O	0.778697	-1.95906	-1.764008
O	-0.552184	-1.245888	-3.357842
C	-0.424541	-1.200505	0.852143
H	-1.509927	-1.280021	0.952618
H	0.017908	-1.069016	1.842346
H	-0.014493	-2.116008	0.430373
C	-0.442653	1.231102	0.636959
N	-0.757895	2.201695	1.222036
H	2.578225	0.0	0.0
