17

C	-0.527987	0.052397	-1.39262
C	0.0	0.0	0.0
F	-1.878188	0.141572	-1.491209
H	1.09059	0.0	0.0
N	0.018017	1.203624	-2.217806
O	-0.292064	1.175212	-3.406674
O	0.684411	2.055329	-1.64426
N	-0.10739	-1.19849	-2.147923
O	-0.949256	-2.085113	-2.247655
O	1.0547	-1.22332	-2.528419
C	-0.36886	-1.315139	0.695866
H	-1.438323	-1.533434	0.672835
H	0.188857	-2.133317	0.235785
H	-0.034363	-1.246311	1.732861
C	-0.496998	1.139215	0.749064
N	-0.900205	2.024991	1.410561
H	2.574466	0.0	0.0
