17

C	-0.407502	-0.048608	-1.431698
C	0.0	0.0	0.0
F	-0.293903	1.144279	-2.038679
H	1.094109	0.0	0.0
N	0.438407	-1.047838	-2.205815
O	0.273195	-2.218997	-1.884138
O	1.20831	-0.604432	-3.040227
N	-1.860768	-0.477232	-1.729602
O	-2.087698	-0.878526	-2.866854
O	-2.684526	-0.298515	-0.841786
C	-0.338899	-1.211709	0.869055
H	-1.410227	-1.338961	1.026073
H	0.087854	-2.10937	0.428454
H	0.155522	-1.055686	1.831022
C	-0.46609	1.233131	0.601381
N	-0.801754	2.224287	1.138705
H	2.550482	0.0	0.0
