17

C	-0.454882	0.008357	-1.428476
C	0.0	0.0	0.0
F	-1.764495	-0.297614	-1.618334
H	1.093858	0.0	0.0
N	-0.199664	1.37245	-2.062403
O	-1.162304	1.967014	-2.528716
O	0.963814	1.740928	-2.023268
N	0.291076	-0.984533	-2.312478
O	0.411923	-0.680092	-3.49573
O	0.635244	-2.035846	-1.789749
C	-0.543842	-1.165583	0.825817
H	-0.139314	-2.10837	0.465786
H	-1.636587	-1.196222	0.804544
H	-0.221011	-1.025097	1.859434
C	-0.443433	1.252417	0.597455
N	-0.785591	2.246337	1.128264
H	2.567729	0.0	0.0
