17

C	-0.474419	-0.121399	-1.404934
C	0.0	0.0	0.0
F	-1.731533	-0.603194	-1.555681
H	1.093643	0.0	0.0
N	-0.394317	1.165207	-2.209508
O	0.296448	2.075256	-1.77029
O	-1.01483	1.153255	-3.268494
N	0.460495	-1.070582	-2.14193
O	1.477113	-0.561092	-2.605297
O	0.187955	-2.268404	-2.067528
C	-0.337533	-1.249208	0.823386
H	0.114578	-2.126223	0.359705
H	-1.411807	-1.406005	0.93615
H	0.121482	-1.122735	1.806561
C	-0.513637	1.182805	0.655005
N	-0.931692	2.089648	1.277692
H	2.523813	0.0	0.0
