17

C	-0.514594	-0.005597	-1.396069
C	0.0	0.0	0.0
F	-1.858405	-0.145666	-1.512365
H	1.091743	0.0	0.0
N	-0.148096	1.230079	-2.198711
O	0.568008	2.071319	-1.672066
O	-0.616102	1.257674	-3.334413
N	0.122609	-1.152878	-2.165009
O	-0.504065	-2.208101	-2.188048
O	1.239926	-0.933342	-2.616872
C	-0.350483	-1.300074	0.734064
H	-0.035779	-1.188326	1.773302
H	0.230963	-2.120123	0.309018
H	-1.414107	-1.54276	0.697932
C	-0.513804	1.15044	0.715539
N	-0.928606	2.043066	1.360409
H	2.557399	0.0	0.0
