15
Coordinates from ORCA-job run
  C   -0.67904492551711      0.02021408256268     -0.08828629684256
  C   0.20752381907820     -0.12919378146181      1.14078510472100
  Cl  -2.38573084099248      0.03163922091663      0.42888450406608
  H   0.01544024192279     -1.12830959397350      1.54015975216867
  H   -0.10741380073361      0.59760237422599      1.89403130714820
  C   -0.45468819871972     -1.03733223590552     -1.13856495247508
  H   -0.66900749192806     -2.01490928980839     -0.70304424347811
  H   -1.10593780040646     -0.87677288148717     -1.99462863752230
  H   0.58836879584613     -1.00241635537822     -1.45284477428946
  N   -0.42586127132838      1.40132848832998     -0.69487215251296
  O   -0.68496114566159      1.55022190496691     -1.88239264638889
  O   -0.00963402461196      2.27518248528787      0.06157587980052
  N   1.60092562590091     -0.00829006766484      0.73842559817529
  H   1.91766463477573      0.94284336376034      0.86731115143222
  H   2.19035638237561     -0.62080771437095      1.28346040599737
