15
Coordinates from ORCA-job run
  C   -0.67916991233646      0.02335515327058     -0.08777774214809
  C   0.20806176182541     -0.14739437680040      1.13802530263299
  Cl  -2.38558439935472      0.03882677359197      0.43101779173957
  H   -0.10555663485325      0.56652418859826      1.90385482519635
  H   0.01786338704209     -1.15336288873751      1.52064598148392
  C   -0.46297670553371     -1.02192110602619     -1.15171616469774
  H   -0.68723721070989     -2.00318281905269     -0.72969497221725
  H   -1.11086827872900     -0.84419634919519     -2.00687510832737
  H   0.58095417979090     -0.99221123115203     -1.46373611178696
  N   -0.41646340667168      1.41103120501306     -0.67383589603979
  O   -0.64948147473654      1.57390256456948     -1.86500003336785
  O   -0.01942823996245      2.27666457590639      0.10210206250306
  N   1.60081432962014     -0.01771253346959      0.73456500749784
  H   2.19168165182287     -0.64104644563317      1.26563661400614
  H   1.91739095278628      0.93072328911702      0.88278844352518
