15
Coordinates from ORCA-job run
  C   -0.55730800732064     -0.03982401799188     -0.07266563138967
  C   0.68630415948392     -0.42025547487872      0.72621579519058
  Cl  -1.94990152347008      0.08808968187736      1.00437340695709
  H   1.46999532898306     -0.69421551748109      0.01308701871890
  H   0.42524922964568     -1.31475980841931      1.29669113242763
  C   -0.86102045864413     -0.99657785498913     -1.20866070395261
  H   -0.01619538418179     -1.02530927693949     -1.90003419372378
  H   -1.75721329027948     -0.67767164222310     -1.74293779519750
  H   -1.03309818310575     -1.99614938923406     -0.80643583561002
  N   -0.29124571865579      1.32315306963746     -0.71200583394965
  O   0.84540574887844      1.45398144765784     -1.16433014941125
  O   -1.19668466882746      2.13593624531732     -0.80363955803790
  N   1.06653787582540      0.65933814334681      1.61856462061944
  H   1.33988285035883      0.31200415462257      2.52515929913882
  H   1.82929204130978      1.19326023969742      1.22761842821991
