15
Coordinates from ORCA-job run
  C   -0.51866704636230     -0.00526181447783     -0.10989182757530
  C   0.72085424305879     -0.38356222090522      0.68966638035337
  Cl  -1.87356605664540      0.27766890935269      0.99699779420362
  H   0.48395049643554     -1.30780996461279      1.23509410470466
  H   1.51001700939244     -0.60360969169843     -0.03169470995516
  C   -0.91094005601621     -1.03876845995849     -1.14519838929754
  H   -1.79327103065631     -0.70835872327060     -1.69582441656236
  H   -1.14677073956533     -1.98009231650220     -0.64693463709057
  H   -0.08656464549966     -1.19040316569701     -1.84227445881093
  N   -0.17682906111116      1.29404282832497     -0.84127182643511
  O   -0.81804726748820      2.30887411650545     -0.62981672738703
  O   0.76332503375665      1.17666239579872     -1.62216815014015
  N   1.14335213031426      0.73429677504324      1.51265710049452
  H   2.11353595905783      0.63387669307448      1.77615240541932
  H   0.58762103132906      0.79244463902300      2.35550735807867
