15
Coordinates from ORCA-job run
  C   -0.51918213754029      0.15457280421944     -0.12995953489892
  C   0.73408646499224      0.31968686582729      0.72887893691628
  Cl  -1.92996302816517     -0.10024692769866      0.93411742023375
  H   0.57189588352988      1.16437640260698      1.40562619649853
  H   1.54985869983003      0.58499772197220      0.04736517434651
  C   -0.42956275808494     -0.96236741488157     -1.13523113933120
  H   -1.34459633507778     -1.03241374256315     -1.72070330133791
  H   0.40749781737827     -0.78331058923973     -1.81226024483728
  H   -0.25503147697691     -1.88915916061697     -0.59276258663428
  N   -0.74601333232637      1.49464037042094     -0.82648634306542
  O   -0.77349692557839      2.48818593407073     -0.10761259200028
  O   -0.85494914902417      1.49091957242969     -2.04918032087310
  N   1.05752158654442     -0.93907504582288      1.38207566135806
  H   2.03069815120505     -0.94476751866857      1.65604071911083
  H   0.50023653929412     -1.04503927205574      2.22009195451442
