13
Coordinates from ORCA-job run
  C   -0.58202765984374      0.05397791435662     -0.03510565348877
  C   0.45871032030975     -0.71317117181981      0.33108274474867
  H   0.25462815236308     -1.72548492639223      0.65453629587684
  N   -1.95441997890596     -0.49527197481036      0.07482705564844
  O   -2.86339604621587      0.19754089363326     -0.38983745064884
  O   -2.10857848374189     -1.58483034630276      0.61288816826734
  N   -0.54581410170556      1.36589092060209     -0.46927769196610
  H   0.22066394737718      1.56568285554289     -1.09305944230618
  H   -1.43595997815470      1.67612934402736     -0.83007123863243
  C   1.86040036572619     -0.18882958604801      0.29314913095677
  H   1.89164996733887      0.86231343744789      0.59526967492745
  H   2.50655181114618     -0.75501659629492      0.96482655573817
  H   2.29759168430646     -0.25893076394202     -0.71022814912135
