13
Coordinates from ORCA-job run
  C   -0.58398180971656      0.02055673239969     -0.03949888044673
  C   0.49634997861225     -0.69070638698208      0.32468554374030
  H   0.34835700086621     -1.71780302994608      0.63171478695622
  N   -1.92335385892197     -0.60748324705440      0.05141721586423
  O   -2.01833069477715     -1.71356801234013      0.56906393292095
  O   -2.86762101938997      0.04096822484525     -0.40680856301876
  N   -0.61902121877106      1.33901089370535     -0.45420513700241
  H   -1.52318488849930      1.60436239306390     -0.81593339832127
  H   0.13801482823570      1.58976735362674     -1.07110467321637
  C   1.86580626447011     -0.08642616419972      0.30602625000727
  H   2.31356821403241     -0.11618040703316     -0.69467168671451
  H   2.53864395229296     -0.62456687877210      0.97454223499621
  H   1.83375325156637      0.96006852868674      0.62377237423487
