13
Coordinates from ORCA-job run
  C   -0.58280203085733      0.04982470641149     -0.03632003534124
  C   0.46563559285534     -0.75905674690167      0.19267815888045
  H   0.27551074669213     -1.81849490705202      0.30407133240937
  N   -1.94619132592463     -0.52980363188757     -0.06796946430837
  O   -2.85885624409853      0.22786414092776     -0.40731686533498
  O   -2.09020604573322     -1.70652619845283      0.24055829603741
  N   -0.56367766829486      1.42238423141915     -0.19775031857774
  H   0.21582738357679      1.75658742406628     -0.74287702616807
  H   -1.45006563852616      1.78511215735385     -0.51635064128071
  C   1.85707554233155     -0.21500042593957      0.28875751089605
  H   2.30501878503632     -0.05710793982057     -0.69986128995150
  H   2.50842750668318     -0.90172870762450      0.83020015705601
  H   1.86430339625942      0.74594589750019      0.81218018568333
