13
Coordinates from ORCA-job run
  C   -0.53585313211847      0.39233465191771     -0.18988069063769
  C   0.74256223720084      0.08744193953974     -0.48600714050135
  H   1.17891068121369      0.69646728031916     -1.27594502803175
  N   -1.25643300736750     -0.31060891120060      0.88492194485055
  O   -2.17677742453968      0.30789508980952      1.42415690884294
  O   -0.89853740754420     -1.44653301694520      1.18597367671298
  N   -1.35741667980879      1.31372760424128     -0.82321686912887
  H   -1.99096488654535      1.77092628675281     -0.18356833084068
  H   -0.84591872588106      1.96768162873597     -1.39575406854088
  C   1.61302451221352     -0.98311666674431      0.10298787971948
  H   2.65571449173197     -0.78357046126344     -0.14852670958009
  H   1.35078131319445     -1.97071380475412     -0.28458444628297
  H   1.52390802825058     -1.04093162040852      1.18844287341832
