13
Coordinates from ORCA-job run
  C   -0.57856378201814      0.06215912197041     -0.06514871659101
  C   0.48163022010443     -0.76028855660521     -0.13808101457587
  H   0.29758200265907     -1.81047805064102     -0.32327254932782
  N   -1.93457058778972     -0.48908429274998     -0.29937798952800
  O   -2.88173141655682      0.27603994461718     -0.10065485045775
  O   -2.03852879210712     -1.65112327521075     -0.67260298616813
  N   -0.56807102086201      1.42695022007013      0.15438625705933
  H   0.09996305747215      1.72051165231292      0.85014673252527
  H   -1.49261419941541      1.79759962755621      0.31727914229804
  C   1.87648343712462     -0.24508233968526      0.03500462864690
  H   1.98721042239282      0.74164772094046     -0.42466257877544
  H   2.15037134363974     -0.15135204562196      1.09281770210659
  H   2.60083931535638     -0.91749972695313     -0.42583377721214
