13
Coordinates from ORCA-job run
  C   -0.58411595956433      0.02744566992575     -0.03184386086169
  C   0.48863895489636     -0.59501744815609      0.48532920758127
  H   0.32258157782131     -1.34894357294884      1.24369620379374
  N   -1.93747897932242     -0.38517265616928      0.40938661182562
  O   -2.04340902027693     -1.36296363821187      1.13965963142069
  O   -2.88149792772194      0.29650788658673      0.00159593817018
  N   -0.59646484348490      1.00776013298720     -1.00689395763350
  H   0.13600615842189      1.69257508964542     -0.90132695152576
  H   -1.50867738010207      1.42514810843058     -1.11927486453106
  C   1.87525911332384     -0.25634416282816      0.03400235969891
  H   2.56101821744182     -1.08162335156648      0.22876025827313
  H   1.89459453589797     -0.04217477072151     -1.03874225293429
  H   2.27254555266938      0.62280271302656      0.55565167672278
