13
Coordinates from ORCA-job run
  C   -0.58282824111534      0.04788385937743     -0.00389706593979
  C   0.48348658519710     -0.76895061570093     -0.03824753922515
  H   0.31147777569102     -1.82083581997627     -0.22584691278074
  N   -1.93844932527070     -0.53295673979393     -0.15931398893377
  O   -2.87422552275692      0.26712787914630     -0.23832764499208
  O   -2.05353870437685     -1.75179340618515     -0.19730114338670
  N   -0.58812074091117      1.41249830809286      0.22096740601984
  H   0.15179392153611      1.90283768469307     -0.25721769864348
  H   -1.49631904345219      1.82281833243783      0.06053859689531
  C   1.87096666735943     -0.24723110003741      0.16901050908005
  H   2.30728627297745      0.13554398742163     -0.76143105620810
  H   2.53244787918737     -1.03435401224911      0.53303670320677
  H   1.87702247593468      0.56741164277369      0.89902983490782
