13
Coordinates from ORCA-job run
  C   -0.45356854226936      0.43895644408632     -0.24221504543645
  C   0.85608221021542      0.16659670710330     -0.34507175293421
  H   1.37383025324960      0.84943825042795     -1.01357288197142
  N   -1.34739742314623     -0.43703724463941      0.56337105442035
  O   -0.86481039872171     -1.08122461578121      1.49228234030535
  O   -2.53231114201744     -0.45956940735204      0.22724896237716
  N   -1.07755320855337      1.50212501217842     -0.91864652635889
  H   -1.27708538008066      2.26652803628990     -0.28418993337724
  H   -1.95577825928768      1.19053604958194     -1.31494418353899
  C   1.66093877505056     -0.90401146016038      0.32338148251196
  H   2.61651012207457     -1.02230326223194     -0.18841960111979
  H   1.14218054278874     -1.86268272895567      0.33476669571806
  H   1.85896245069757     -0.64735178054719      1.36700938940410
