13
Coordinates from ORCA-job run
  C   -0.57648063433005      0.04766589924897     -0.09068100859560
  C   0.47514251855661     -0.77275537852924      0.07290653219662
  H   0.28246677006083     -1.83388847397550      0.16188406637027
  N   -1.93415060122556     -0.53669424193603     -0.20119170388460
  O   -2.04459403878218     -1.75489478200384     -0.26669148070107
  O   -2.87628747283419      0.25956689508708     -0.22220171269280
  N   -0.55457296812729      1.42272910010347     -0.23063522422759
  H   0.10271336524904      1.88234229084280      0.38022074952018
  H   -1.47794480554864      1.82824103674610     -0.18973507695241
  C   1.87304690933816     -0.24080797537918      0.13419947397166
  H   2.59588830862335     -1.01231819043210     -0.13331868545628
  H   2.13399947133817      0.11101934984034      1.13965493584614
  H   2.00077317768174      0.59979447038714     -0.55441086539453
