13
Coordinates from ORCA-job run
  C   -0.58454489870731      0.03002595946919     -0.01934563535150
  C   0.50150971289486     -0.75757207228177      0.05754683891112
  H   0.35085798858278     -1.81489372339670      0.23205959386011
  N   -1.92899058908748     -0.58637178844310      0.07672097832361
  O   -2.01340029481272     -1.80816806329215      0.10080738378220
  O   -2.88779010407324      0.18854616628689      0.12415554113281
  N   -0.61731658061312      1.39404180803040     -0.24224993137889
  H   0.09922989327827      1.90265297069695      0.25212399770507
  H   -1.53853247522543      1.78378873523305     -0.10723275672624
  C   1.88062972189099     -0.19421740360342     -0.08960794520219
  H   1.89921867966434      0.59917106780448     -0.84280694907646
  H   2.25185333339989      0.23154916176496      0.85046528817803
  H   2.58727561280817     -0.96755281826878     -0.39263640415767
