13
Coordinates from ORCA-job run
  C   -0.48776256066642      0.48940099296663     -0.00165895642098
  C   0.83860846145474      0.28126956746991     -0.11134117074966
  H   1.41529991565685      1.17120155196627     -0.35784196965340
  N   -1.41120959204340     -0.62144742459301      0.28565102766388
  O   -0.97832329032363     -1.60538629543048      0.88015629364945
  O   -2.57116923097883     -0.48686247687672     -0.11006007476285
  N   -1.16765247098019      1.69649217300816     -0.08010775924072
  H   -0.61706472099161      2.43024950410967     -0.49921715753980
  H   -2.07606655902399      1.60051870699172     -0.51055393527461
  C   1.60858239412402     -0.99117543520285      0.08566630764764
  H   2.60266352870707     -0.88616854586740     -0.35154566460909
  H   1.11790865602816     -1.84969983357615     -0.37424739335495
  H   1.72518546903724     -1.22839248496573      1.14610045264507
