13
Coordinates from ORCA-job run
  C   -0.49302222822134      0.46456142133515     -0.13494345299709
  C   0.81226839065042      0.32730466680870      0.16822355828735
  H   1.33448406869494      1.26643246879649      0.34323681814062
  N   -1.34999407328966     -0.71208678872543     -0.35842811046879
  O   -0.82533649596510     -1.75690060217494     -0.73533686871653
  O   -2.55365792293652     -0.56432333970753     -0.13595510076042
  N   -1.20056149457806      1.64220059590330     -0.32945274797083
  H   -0.72269961001967      2.45181328275766      0.03572174708243
  H   -2.15482814401366      1.57727354247377     -0.00566671930273
  C   1.62503789979908     -0.92959174406055      0.26964172024658
  H   1.09556651481360     -1.72526915105279      0.79499345139570
  H   1.87959693873439     -1.32272864476776     -0.71776324488529
  H   2.55314615633158     -0.72068570758605      0.80372894994901
