13
Coordinates from ORCA-job run
  C   -0.46678711977372      0.50927797538713      0.01185134811835
  C   0.85213095212730      0.25025816493278     -0.07805127852885
  H   1.47102866501204      1.12600416428239     -0.26606333464104
  N   -1.44237813166742     -0.57378347998783      0.22103388668175
  O   -2.58514908505989     -0.37056388186640     -0.19498273997097
  O   -1.06619822917947     -1.60326392533819      0.77572421130668
  N   -1.09334089567468      1.74692642589345     -0.02106524188673
  H   -1.99371700652680      1.71206292024619     -0.47695569367239
  H   -0.50190732989881      2.47638779851263     -0.38882077121961
  C   1.56311957556556     -1.06217617815987      0.07246626926137
  H   1.64147857617618     -1.35687363115738      1.12193284825257
  H   2.57179027650813     -0.97855786294531     -0.33482591959075
  H   1.04892975239157     -1.87469848979959     -0.44224358411037
