18

C	0.0	0.0	0.0
C	-0.468486	0.620136	-1.313631
Cl	1.900255	0.0	0.0
H	-1.560203	0.525153	-1.247193
N	-0.480589	0.764614	1.045978
H	-0.392173	1.758834	0.921952
H	-0.330995	0.410027	1.973474
C	-0.41868	-1.445331	0.136562
H	-0.01198	-2.037587	-0.67587
H	-1.512019	-1.450621	0.103011
H	-0.077609	-1.846127	1.092034
N	-0.002874	-0.160383	-2.450214
H	0.99054	-0.005537	-2.586873
H	-0.496436	0.137392	-3.284223
N	-0.148277	2.050946	-1.304653
H	-0.727811	2.523983	-1.987654
H	0.825803	2.173356	-1.564096
Br	-4.067306	0.0	0.0
