18

C	0.0	0.0	0.0
C	-0.454889	0.616007	-1.318587
Cl	1.900466	0.0	0.0
H	-1.54824	0.54144	-1.256798
N	-0.474254	0.776439	1.044696
H	-0.280163	0.430492	1.969059
H	-0.334022	1.76555	0.912049
C	-0.414724	-1.445142	0.143186
H	0.004395	-2.049575	-0.658229
H	-1.508153	-1.465419	0.106429
H	-0.075312	-1.835066	1.107261
N	-0.002042	-0.184518	-2.444543
H	-0.491048	0.111454	-3.280192
H	0.993592	-0.048822	-2.582423
N	-0.109181	2.039323	-1.32516
H	0.855798	2.146548	-1.619085
H	-0.705152	2.523277	-1.985186
Br	-4.068189	0.0	0.0
