18

C	0.0	0.0	0.0
C	-0.483171	-0.758197	-1.286185
Cl	1.854985	0.0	0.0
H	0.406367	-1.130541	-1.799893
N	-0.46993	1.328475	-0.016933
H	-0.325145	1.762535	-0.918054
H	-0.104422	1.880944	0.744398
C	-0.383185	-0.660565	1.313882
H	-1.47134	-0.689315	1.387505
H	0.012935	-0.060307	2.138102
H	0.020037	-1.667978	1.381934
N	-1.11726	0.193706	-2.208177
H	-2.037108	0.430348	-1.836337
H	-1.253981	-0.285438	-3.089086
N	-1.265717	-1.929917	-0.908749
H	-1.457485	-2.452871	-1.757237
H	-2.171269	-1.611232	-0.553181
Br	-4.143312	0.0	0.0
