18

C	0.0	0.0	0.0
C	-0.389801	-0.031251	-1.530593
Cl	1.794068	0.0	0.0
H	0.47629	0.391659	-2.047216
N	-0.434023	1.276663	0.539494
H	-0.155417	1.325263	1.514201
H	-1.453385	1.262708	0.522824
C	-0.483831	-1.198172	0.799525
H	-1.57957	-1.222299	0.776808
H	-0.082948	-2.126328	0.396142
H	-0.165796	-1.095249	1.840681
N	-1.523128	0.768777	-1.946314
H	-1.378989	1.73496	-1.678534
H	-2.391058	0.453045	-1.516713
N	-0.528032	-1.417659	-1.959113
H	-0.695912	-1.381134	-2.961327
H	-1.395474	-1.767664	-1.556479
Br	-4.240038	0.0	0.0
