18

C	0.0	0.0	0.0
C	-0.437549	0.220368	-1.505104
Cl	1.799737	0.0	0.0
H	0.465726	0.272055	-2.116994
N	-0.452323	1.011901	0.916955
H	-0.41163	1.903937	0.434115
H	-1.436759	0.822626	1.100954
C	-0.409036	-1.357272	0.557752
H	-1.49808	-1.423054	0.586932
H	-0.019147	-1.431823	1.574564
H	-0.019293	-2.166376	-0.055903
N	-1.081038	1.533047	-1.615728
H	-1.199586	1.741474	-2.601469
H	-2.0178	1.446865	-1.219739
N	-1.196028	-0.927621	-1.994232
H	-2.105984	-0.927715	-1.533121
H	-1.3751	-0.776992	-2.982014
Br	-3.958411	0.0	0.0
