18

C	0.0	0.0	0.0
C	-0.477445	0.060871	-1.463677
Cl	1.806695	0.0	0.0
H	-1.567731	-0.0261	-1.393166
N	-0.473651	1.190969	0.668836
H	-1.495929	1.146276	0.59602
H	-0.252445	1.111803	1.657043
C	-0.425532	-1.299223	0.668685
H	-0.019801	-2.162067	0.143082
H	-0.085099	-1.305975	1.709342
H	-1.517906	-1.336103	0.648895
N	0.015644	-1.091928	-2.20027
H	-0.443937	-1.067718	-3.103456
H	1.006629	-0.957196	-2.37588
N	-0.181457	1.32206	-2.13997
H	0.785423	1.567787	-1.937588
H	-0.744563	2.046424	-1.704542
Br	-3.897152	0.0	0.0
