18
Coordinates from ORCA-job run
  C   0.58385835942776      0.23542358448843      0.33809426602891
  C   -0.68470816307904     -0.32146198852842     -0.33417248960881
  F   0.26924747232104      1.54899917660240      0.75096159501763
  H   -0.44141482696471     -1.33203751714087     -0.68902407012303
  C   1.75936761245876      0.39342757473352     -0.61059358553944
  H   1.53043726128188      1.08676978258058     -1.41986439853401
  H   2.04429005645472     -0.57451026910582     -1.03044911048519
  H   2.61147688982973      0.80012251710074     -0.05959426041719
  N   0.89585928435402     -0.52400441432928      1.51022798159767
  H   1.87804262380903     -0.48015504690275      1.74491531781632
  H   0.60864842831777     -1.48859325288483      1.43240010768730
  N   -1.12432653282888      0.44520506994679     -1.49415828167287
  H   -1.21871088564576      1.41820139585612     -1.22451433436188
  H   -0.44412834660030      0.39625289391908     -2.24191665886860
  C   -1.84566188543454     -0.39678345787988      0.65232268593104
  H   -2.72479113111485     -0.77714268537891      0.13135520292123
  H   -2.06836201295820      0.60249256004539      1.03165571738930
  H   -1.63012420362843     -1.03220592312227      1.51135431522161
