18
Coordinates from ORCA-job run
  C   0.69798517574088      0.12632455141668      0.26080781619327
  C   -0.62250816606353     -0.25835763672377     -0.41093794415646
  F   0.51967711007198      1.48010151777863      0.69771238438951
  H   -0.45347215792737     -1.23527944737388     -0.87673969484927
  C   1.86859775991613      0.14029242959326     -0.69542606811573
  H   1.63319621687879      0.76618157245906     -1.55264815217944
  H   2.75016158587264      0.53970273062917     -0.18715088721726
  H   2.08289230085874     -0.87442643659259     -1.03434184792012
  N   0.96958797649461     -0.71708334467113      1.37197247697981
  H   1.88523115663698     -0.50981967540656      1.75156209164010
  H   0.28514839178612     -0.57814363557525      2.10417217566697
  N   -0.87864312527383      0.70260355833824     -1.48238572037390
  H   -1.71014997373951      0.42822791665578     -1.99147383468487
  H   -1.05600092088004      1.61046946603075     -1.06787687003205
  C   -1.76827127171400     -0.38369827719327      0.59564801455921
  H   -1.86949171218672      0.53986097978519      1.17197598035805
  H   -2.70758407829480     -0.55432881735499      0.06388467198084
  H   -1.62635626817707     -1.22262745179531      1.28124540776134
