18
Coordinates from ORCA-job run
  C   0.76935679304123      0.34941797887864     -0.01884452453841
  C   -0.62681994241737      0.22930179935375     -0.63396148777206
  F   1.43743074346805      1.33148652531580     -0.73529976235762
  H   -0.48434409170373      0.18254759569766     -1.72230264264726
  C   1.61224120904363     -0.91222389979567     -0.15987630590125
  H   2.64417279315477     -0.67032858419673      0.10252635750340
  H   1.59996133709255     -1.28162343356606     -1.19326627269254
  H   1.25471393041514     -1.70097631149043      0.50064309431494
  N   0.67802298080040      0.85076048255745      1.34022232463472
  H   1.41326511615592      0.46602079978001      1.90955197862066
  H   0.78039941005584      1.87174984932659      1.33462814145844
  N   -1.35956912608703      1.45629538752144     -0.32854735276135
  H   -1.55355351319260      1.45731772836079      0.66924829786345
  H   -2.25134164728457      1.44295943353266     -0.80694308229033
  C   -1.33434203404810     -1.03433923411111     -0.15577438646166
  H   -1.37954471804540     -1.04274742140038      0.93482781982201
  H   -0.84436331529714     -1.95254897196629     -0.49858417708565
  H   -2.35668592515161     -1.04406972379811     -0.53824801970949
