14
Coordinates from ORCA-job run
  C   -0.65092837839815     -0.47524684215572      0.14562082072116
  C   0.72296444243459      0.02265109364509     -0.30688018114061
  H   -0.85906909964736     -1.39686900133115     -0.40657929551393
  H   0.73871538730429      0.21107900754169     -1.38243834785984
  H   -0.58607890253540     -0.72657148450108      1.20760643664863
  C   -1.73697061615743      0.56415447701975     -0.10466835353284
  H   -1.55895157437275      1.47092690836946      0.47636152576978
  H   -2.71128059974523      0.16684050831420      0.18498677072192
  H   -1.78824151221371      0.83747030554066     -1.16121485131305
  N   1.72646888818843     -1.08282617655478     -0.07689722004904
  O   1.99634637133220     -1.77425671502654     -1.05368048579541
  O   2.13253566213650     -1.23697514841263      1.06876756634111
  C   1.14268282326788      1.21774808518259      0.41859548075489
  N   1.43080710840613      2.20287498236847      0.98842013424723
