14
Coordinates from ORCA-job run
  C   -0.66662208767296     -0.47329630007340      0.03741710305980
  C   0.74308782953504      0.04725615457815     -0.25029421151407
  H   -0.67887908204647     -0.86835199101179      1.05680186524724
  H   0.83408823740843      0.38606877174810     -1.28443313304239
  H   -0.85076367957521     -1.30484594869349     -0.64975477081660
  C   -1.71633101885890      0.61743065099056     -0.13987265529403
  H   -1.55902233885351      1.43833806648527      0.56261596129387
  H   -1.69704693771561      1.02397853754191     -1.15402547627515
  H   -2.71360223650757      0.21122143905727      0.03805466402659
  N   1.70900355209479     -1.10618301263629     -0.11852002357726
  O   2.03385904494811     -1.43338825891052      1.01680424707421
  O   2.03109129746874     -1.65889198763692     -1.16524525661797
  C   1.13311296959622      1.11568386307083      0.66434924562833
  N   1.39802445017889      2.00298001549032      1.38610244080743
