16

C	-0.552621	0.009235	-1.393329
C	0.0	0.0	0.0
Cl	0.215205	-1.379492	-2.321087
H	1.089538	0.0	0.0
H	-0.299833	-0.973314	0.414851
N	-1.969036	-0.011666	-1.473105
H	-2.315996	-0.777899	-0.91166
H	-2.273235	-0.111932	-2.433553
N	-0.135148	1.23711	-2.211386
O	0.726476	1.976038	-1.760292
O	-0.719874	1.388625	-3.285065
C	-0.532789	1.126095	0.879684
H	-1.624289	1.143943	0.96794
H	-0.195214	2.092637	0.504179
H	-0.10116	1.005603	1.876864
F	2.650024	0.0	0.0
