16

C	-0.557882	0.000768	-1.407714
C	0.0	0.0	0.0
Cl	0.135376	-1.367091	-2.306308
H	1.092249	0.0	0.0
H	-0.337459	-0.947265	0.442902
N	-1.993875	-0.05389	-1.598104
H	-2.321355	-0.881812	-1.112977
H	-2.395425	0.761207	-1.150409
N	-0.112044	1.303715	-2.087224
O	-0.885433	2.252514	-1.937196
O	0.969507	1.35647	-2.64569
C	-0.46345	1.175769	0.851537
H	-1.551416	1.315436	0.899628
H	-0.098875	1.013167	1.869069
H	-0.011492	2.105961	0.502086
F	2.636593	0.0	0.0
