16

C	-0.091887	0.045864	-1.520407
C	0.0	0.0	0.0
Cl	-1.671468	0.761216	-2.15785
H	1.094766	0.0	0.0
H	-0.326734	0.987252	0.337945
N	1.005492	0.744024	-1.998912
H	1.844289	0.526782	-1.399771
H	1.167516	0.594202	-2.984288
N	-0.176911	-1.413727	-2.126964
O	-1.126101	-2.124919	-1.815202
O	0.732778	-1.751555	-2.88035
C	-0.674714	-1.108473	0.777211
H	-0.525886	-0.91676	1.843742
H	-0.233616	-2.080683	0.557448
H	-1.748141	-1.171652	0.58293
F	2.735405	0.0	0.0
