16

C	-0.082422	0.194328	-1.507952
C	0.0	0.0	0.0
Cl	-1.61357	0.966425	-2.107557
H	1.096041	0.0	0.0
H	-0.465733	-0.927844	0.327444
N	1.036616	0.887103	-2.049635
H	1.851385	0.62685	-1.443453
H	0.871681	1.881355	-1.968288
N	-0.111939	-1.231858	-2.134617
O	-1.059887	-1.947825	-1.817988
O	0.816654	-1.565463	-2.859189
C	-0.471288	1.205271	0.793129
H	-0.16448	1.091831	1.836413
H	-1.556272	1.345848	0.759549
H	0.005701	2.115059	0.417856
F	2.716349	0.0	0.0
