16

C	-0.103836	0.136399	-1.51713
C	0.0	0.0	0.0
Cl	-1.646745	0.973439	-2.090955
H	1.098361	0.0	0.0
H	-0.335215	0.955979	0.411169
N	1.023489	0.796869	-1.972183
H	1.856993	0.544397	-1.379045
H	1.177874	0.696233	-2.964443
N	-0.272475	-1.290987	-2.180211
O	0.678064	-1.700833	-2.842632
O	-1.305985	-1.918857	-1.976639
C	-0.656841	-1.173593	0.693693
H	-0.217755	-2.12061	0.375465
H	-1.735058	-1.223239	0.522209
H	-0.478969	-1.080895	1.769113
F	2.74107	0.0	0.0
