15

C	-0.089635	-0.042773	0.001091
C	-0.596665	0.07293	-1.431268
Br	1.877375	0.129472	0.08993
H	-1.690571	0.141951	-1.296366
H	-0.509812	0.764238	0.598767
C	-0.430562	-1.335904	0.574921
N	-0.618065	-2.404314	1.026333
C	-0.187804	-1.042729	-2.364839
H	-0.511439	-1.994994	-1.940688
H	-0.667063	-0.913315	-3.333444
H	0.893733	-1.065327	-2.511969
N	-0.203519	1.415363	-1.977968
O	-0.145433	2.355995	-1.191996
O	-0.018659	1.503382	-3.192363
Cl	-3.22623	0.541362	0.33219
