15

C	-0.0839	-0.049849	0.001278
C	-0.573959	-0.03477	-1.441792
Br	1.884603	0.100903	0.100058
H	-1.66775	0.06246	-1.324788
H	-0.497744	0.805937	0.531592
C	-0.450055	-1.291866	0.665281
N	-0.657492	-2.328805	1.177342
C	-0.17487	-1.22454	-2.283319
H	-0.63624	-1.15781	-3.266824
H	0.90812	-1.279594	-2.410052
H	-0.525119	-2.135845	-1.795304
N	-0.151712	1.256101	-2.083062
O	0.054186	1.248509	-3.297228
O	-0.091981	2.253178	-1.370156
Cl	-3.213271	0.593209	0.25771
