13

C	0.0	0.0	0.0
C	-0.53967	-0.385877	-1.364349
Br	2.02303	0.0	0.0
H	-1.608428	-0.549841	-1.176928
H	-0.235856	1.042871	0.198301
H	-0.07992	-1.324963	-1.68597
N	-0.510192	-0.815973	1.012634
H	-0.290889	-1.794296	0.909388
H	-0.318154	-0.492076	1.946404
N	-0.303284	0.679904	-2.340373
H	-1.170925	1.189329	-2.456766
H	-0.066911	0.283193	-3.238725
Br	-4.116716	0.0	0.0
