13

C	0.0	0.0	0.0
C	-0.475201	0.17227	-1.427561
Br	1.966549	0.0	0.0
H	-1.566887	0.184316	-1.361803
H	-0.24107	0.906559	0.561781
H	-0.169712	-0.719702	-1.99263
N	-0.504584	-1.227074	0.543087
H	-1.5193	-1.187922	0.405989
H	-0.345651	-1.243013	1.544105
N	-0.023912	1.441157	-1.993646
H	-0.660222	1.716311	-2.729671
H	0.898221	1.33276	-2.396228
Br	-3.841922	0.0	0.0
