13

C	0.0	0.0	0.0
C	-0.507409	0.17878	-1.409781
Br	2.041378	0.0	0.0
H	-1.596166	0.220229	-1.282443
H	-0.216479	0.887316	0.589299
H	-0.263965	-0.725057	-1.992074
N	-0.515633	-1.140663	0.596492
H	-0.347355	-1.234201	1.583596
H	-0.362597	-1.996856	0.089457
N	-0.029781	1.422912	-1.998528
H	0.892877	1.291587	-2.392813
H	-0.661045	1.698811	-2.739019
Br	-4.141133	0.0	0.0
