13

C	0.0	0.0	0.0
C	-0.444145	0.382031	-1.402059
Br	1.977228	0.0	0.0
H	-0.130883	-0.421259	-2.090939
H	-0.274215	0.799514	0.687556
H	-1.53695	0.380498	-1.348916
N	-0.50738	-1.244576	0.484906
H	-0.447036	-1.937753	-0.253979
H	-1.504259	-1.087276	0.662086
N	0.014433	1.714017	-1.783952
H	-0.594923	2.080687	-2.503356
H	0.953719	1.664822	-2.156587
Br	-3.813111	0.0	0.0
