13

C	0.0	0.0	0.0
C	-0.425078	-0.2777	-1.435103
Br	2.004295	0.0	0.0
H	0.017546	0.470275	-2.107829
H	-0.254819	1.021158	0.281756
H	-1.51363	-0.159832	-1.429731
N	-0.500232	-0.919577	0.959913
H	-1.451145	-0.619176	1.176716
H	-0.578942	-1.815323	0.485164
N	-0.10385	-1.659064	-1.788307
H	0.854655	-1.725579	-2.104093
H	-0.714092	-1.973641	-2.530172
Br	-3.838314	0.0	0.0
