13

C	0.0	0.0	0.0
C	-0.410381	0.163251	-1.466167
Br	1.976753	0.0	0.0
H	-1.49671	0.042344	-1.485219
H	-0.283453	0.881682	0.576734
H	0.044322	-0.656061	-2.035889
N	-0.489906	-1.169161	0.658408
H	-1.478963	-0.98948	0.854318
H	-0.461642	-1.947092	0.00656
N	-0.072236	1.428862	-2.105394
H	0.896458	1.653853	-1.912365
H	-0.646757	2.156096	-1.695749
Br	-3.751484	0.0	0.0
