17

C	0.0	0.0	0.0
C	-0.353896	-0.261499	-1.497468
Br	1.976971	0.0	0.0
H	0.255852	0.438817	-2.079829
C	-0.361333	1.375257	0.348136
N	-0.596175	2.491566	0.635007
C	-0.619929	-0.991372	0.963886
H	-0.296465	-0.786508	1.985421
H	-1.709982	-0.870688	0.902928
H	-0.344145	-2.011253	0.691259
C	-1.822266	-0.055255	-1.856934
H	-1.93839	-0.142785	-2.9409
H	-2.165861	0.930069	-1.544744
H	-2.492814	-0.768387	-1.382379
C	0.08017	-1.613245	-1.862852
N	0.383404	-2.705861	-2.172437
Br	-4.669987	0.0	0.0
