14

C	0.0	0.0	0.0
C	-0.527304	0.004924	-1.411716
Cl	1.786476	0.0	0.0
H	-1.624465	-0.025167	-1.268656
H	-0.20918	0.934272	-1.892037
H	-0.148457	-0.845637	-1.976552
C	-0.527311	1.150393	0.818264
H	-0.209171	2.082136	0.342618
H	-0.148483	1.114093	1.838652
H	-1.624472	1.016584	0.759379
N	-0.383717	-1.317838	0.676933
O	-0.485335	-2.31011	-0.034862
O	-0.485231	-1.317224	1.898111
F	-2.890207	0.0	0.0
