19

C	0.0	0.0	0.0
C	-0.395664	0.046565	-1.525764
Br	1.909986	0.0	0.0
H	-1.354254	0.562765	-1.507105
N	-0.505176	1.229057	0.678819
O	-0.398061	1.304545	1.910846
O	-0.627149	2.229171	-0.059393
N	-0.334422	-1.280232	0.783516
O	0.01929	-2.316218	0.216619
O	-0.793483	-1.23933	1.914447
C	-0.632853	-1.309138	-2.179673
H	0.269453	-1.922513	-2.192448
H	-0.944518	-1.12717	-3.214394
H	-1.424007	-1.861605	-1.672682
C	0.52903	0.880568	-2.425362
H	-0.041387	1.099574	-3.335746
H	1.439773	0.353717	-2.718817
H	0.792893	1.828426	-1.960159
H	-2.042945	0.0	0.0
