16

C	-0.6039	-0.018935	-1.394414
C	0.0	0.0	0.0
Br	0.222111	1.385381	-2.465806
H	1.092715	0.0	0.0
H	-0.319732	0.949211	0.442692
N	-0.270736	-1.330733	-2.097419
O	-0.906481	-1.594237	-3.116426
O	0.603168	-2.035294	-1.60548
C	-2.107717	0.149276	-1.40229
H	-2.540738	-0.657756	-0.80882
H	-2.35662	1.107022	-0.941724
H	-2.498228	0.123694	-2.417264
N	-0.567661	-1.115608	0.773967
H	-0.640291	-0.828679	1.741468
H	0.11058	-1.867884	0.743165
Br	3.676914	0.0	0.0
