16

C	-0.396525	-0.048586	-1.467134
C	0.0	0.0	0.0
Br	-2.362102	-0.147268	-1.643701
H	1.096214	0.0	0.0
H	-0.366529	0.924271	0.449262
N	-0.037822	1.278299	-2.126354
O	0.404171	1.243245	-3.271014
O	-0.242637	2.299799	-1.477768
C	0.246164	-1.195358	-2.197305
H	-0.052982	-1.231437	-3.242795
H	-0.043456	-2.110627	-1.682421
H	1.330945	-1.070996	-2.11945
N	-0.439727	-1.217288	0.676874
H	0.314211	-1.537613	1.270136
H	-1.248976	-1.033461	1.253401
Br	3.564067	0.0	0.0
