16

C	-0.385392	-0.048585	-1.470648
C	0.0	0.0	0.0
Br	-2.351799	-0.104485	-1.66222
H	1.096547	0.0	0.0
H	-0.363488	0.931387	0.439761
N	0.017046	1.272511	-2.117758
O	0.594132	1.224157	-3.200709
O	-0.27501	2.301138	-1.515538
C	0.234691	-1.211384	-2.194252
H	-0.094501	-2.120427	-1.6945
H	1.319945	-1.124859	-2.100284
H	-0.048406	-1.227487	-3.245464
N	-0.449321	-1.210868	0.677155
H	0.265177	-1.486369	1.339
H	-1.308598	-1.037087	1.181429
Br	3.588215	0.0	0.0
