16

C	-0.407882	-0.0269	-1.463984
C	0.0	0.0	0.0
Br	-2.376102	-0.112995	-1.624877
H	1.094503	0.0	0.0
H	-0.363805	0.915993	0.467393
N	-0.049853	1.303519	-2.116232
O	-0.183805	2.317112	-1.437153
O	0.315449	1.281011	-3.28779
C	0.221005	-1.169224	-2.213831
H	-0.091425	-1.192045	-3.255594
H	-0.067035	-2.088815	-1.705583
H	1.307436	-1.051465	-2.147765
N	-0.439991	-1.227368	0.660612
H	-1.219883	-1.043135	1.274753
H	0.329247	-1.578431	1.214662
Br	3.559793	0.0	0.0
