13

C	-0.509796	-0.074277	-1.405669
C	0.0	0.0	0.0
F	-1.883822	-0.072097	-1.44196
H	1.089626	0.0	0.0
H	-0.136584	-0.929797	-1.960163
H	-0.395163	0.869634	0.518292
N	-0.076739	1.157777	-2.154649
O	0.520197	0.987746	-3.214081
O	-0.401753	2.236529	-1.665869
N	-0.450361	-1.203434	0.741799
O	-0.740173	-1.05661	1.926394
O	-0.471613	-2.274027	0.135547
Cl	3.248224	0.0	0.0
