13

C	-0.510785	-0.011553	-1.406947
C	0.0	0.0	0.0
F	-1.88384	-0.01933	-1.441878
H	1.089366	0.0	0.0
H	-0.13025	-0.835498	-2.002197
H	-0.39546	0.845085	0.557274
N	-0.089806	1.259519	-2.097232
O	-0.472488	2.308726	-1.583663
O	0.553351	1.14569	-3.136632
N	-0.447699	-1.234332	0.689097
O	-0.492217	-2.273157	0.031942
O	-0.711815	-1.14344	1.884921
Cl	3.237303	0.0	0.0
