13

C	-0.554786	0.072958	-1.398192
C	0.0	0.0	0.0
F	0.110231	0.941377	-2.183083
H	1.089106	0.0	0.0
H	-1.620114	0.30879	-1.426254
H	-0.350842	-0.893782	0.512112
N	-0.455552	-1.310447	-2.024446
O	-1.090114	-2.186357	-1.441383
O	0.184585	-1.438567	-3.055835
N	-0.473821	1.153375	0.807766
O	-0.290609	1.082477	2.018068
O	-1.009611	2.099451	0.226653
Cl	3.26229	0.0	0.0
