13

C	-0.566486	0.061047	-1.397713
C	0.0	0.0	0.0
F	-0.406551	1.309151	-1.907742
H	1.088702	0.0	0.0
H	-1.620397	-0.214035	-1.439115
H	-0.35867	0.883721	0.533392
N	0.136037	-0.926853	-2.300193
O	0.194141	-2.064133	-1.845781
O	0.513317	-0.54897	-3.398745
N	-0.55653	-1.164996	0.746383
O	-1.75668	-1.406954	0.588011
O	0.185073	-1.76401	1.512158
Cl	3.321823	0.0	0.0
