13

C	-0.589855	-0.122551	-1.374972
C	0.0	0.0	0.0
F	-1.928597	-0.39091	-1.312122
H	1.089534	0.0	0.0
H	-0.086386	-0.929475	-1.910341
H	-0.323345	-0.871437	0.570302
N	-0.403694	1.097109	-2.255854
O	0.759526	1.360312	-2.520387
O	-1.405905	1.669177	-2.66157
N	-0.503453	1.177223	0.748728
O	-0.718392	1.02291	1.948938
O	-0.637931	2.233778	0.133822
Cl	3.271754	0.0	0.0
