13

C	-0.598665	-0.225833	-1.356178
C	0.0	0.0	0.0
F	-1.955022	-0.382111	-1.272247
H	1.089523	0.0	0.0
H	-0.15933	-1.120417	-1.80267
H	-0.332576	-0.808855	0.649456
N	-0.319984	0.877855	-2.358648
O	0.862435	1.020484	-2.634747
O	-1.273185	1.480709	-2.834082
N	-0.490213	1.249401	0.631692
O	-0.575359	2.250612	-0.077471
O	-0.744991	1.205404	1.832927
Cl	3.277382	0.0	0.0
