13
Coordinates from ORCA-job run
  C   0.45257250156585      0.36423296184439     -0.46498542451396
  C   -0.96325166179810     -0.02635135793089     -0.06211219478965
  H   0.73465242148741     -0.14016246577491     -1.39048821532099
  H   -1.62614009098128      0.33317464075343     -0.85356289691393
  H   -1.22713186105025      0.49796761482347      0.86198515215550
  N   1.45057117136183     -0.13492648385481      0.56453469375527
  O   2.59189091208416     -0.31799703000678      0.16250637868413
  O   1.04425266680433     -0.29328821505584      1.71121528385259
  C   0.63082780582213      1.80850553184617     -0.58889685732210
  N   0.72304512185269      2.97484789342469     -0.68852378416742
  N   -1.02967010658432     -1.47738174078400      0.01794308867885
  H   -1.95187063449950     -1.80692342284587     -0.22961033789459
  H   -0.82874824606495     -1.78169792643905      0.96099511379631
