13
Coordinates from ORCA-job run
  C   0.55148360578610      0.21131750591071     -0.38069283358376
  C   -0.57703245676630     -0.61428387399892      0.25820524779946
  H   0.64617318728070     -0.04702989782291     -1.43493570490982
  H   -0.59023558495020     -0.39631451159810      1.33245187225969
  H   -0.31883822960972     -1.66892098892798      0.12934413995969
  N   1.84831390950339     -0.16959667149504      0.28230264961848
  O   2.06204590209350      0.29353821645648      1.39761294529123
  O   2.54506881434140     -0.97862349244778     -0.32370609765456
  C   0.30909144042769      1.63967036816042     -0.21615270570501
  N   0.06456048759051      2.78072230505988     -0.08897119852559
  N   -1.81039856487753     -0.30586426936709     -0.44006575849224
  H   -2.35345888299348      0.38566170199164      0.05509725676015
  H   -2.37577362782607     -1.13127639192133     -0.57148981281771
