11

C	0.0	0.0	0.0
C	-0.584832	-0.176371	-1.394534
Cl	1.781703	0.0	0.0
H	-1.715341	-0.168206	-1.070656
H	-0.347296	-0.815819	0.629624
H	-0.3377	0.678018	-2.027387
C	-0.446924	1.261532	0.597314
N	-0.634966	2.309409	1.092676
C	-0.161089	-1.411775	-2.014856
N	0.142584	-2.429836	-2.520636
F	-2.663307	0.0	0.0
