11

C	0.0	0.0	0.0
C	-0.344696	-0.111664	-1.500563
Cl	1.783925	0.0	0.0
H	0.285957	-0.907299	-1.918023
H	-0.348359	-0.863968	0.552267
H	-0.010867	0.814636	-1.981277
C	-0.4739	1.231433	0.624491
N	-0.588926	2.282495	1.139303
C	-1.726843	-0.390501	-1.91854
N	-2.517059	-0.700041	-2.740301
F	-2.350616	0.0	0.0
