11

C	0.0	0.0	0.0
C	-0.568665	0.131367	-1.410298
Cl	1.781599	0.0	0.0
H	-1.700318	0.078597	-1.105782
H	-0.343772	-0.935486	0.432931
H	-0.289221	1.097834	-1.84415
C	-0.454077	1.102857	0.845293
N	-0.646622	2.012482	1.561751
C	-0.130559	-0.946832	-2.271584
N	0.195904	-1.817355	-2.992821
F	-2.652291	0.0	0.0
