11

C	0.0	0.0	0.0
C	-0.59278	0.301783	-1.365518
Cl	1.781714	0.0	0.0
H	-1.729389	0.247964	-1.032176
H	-0.351025	-0.982201	0.307681
H	-0.343098	-0.507511	-2.056823
C	-0.424883	0.979629	1.006575
N	-0.604697	1.809031	1.817553
C	-0.181302	1.574027	-1.914962
N	0.118546	2.606388	-2.392856
F	-2.675985	0.0	0.0
