15

C	-0.385813	-0.06365	-1.467026
C	0.0	0.0	0.0
F	-1.798441	0.044458	-1.5391
H	1.09577	0.0	0.0
H	0.008547	0.809467	-1.995044
N	0.020418	-1.258822	-2.130774
H	0.973552	-1.13469	-2.44827
H	0.026929	-1.991789	-1.426357
N	-0.467961	-1.219044	0.651822
H	0.051516	-1.3175	1.515069
H	-1.441652	-1.084515	0.901665
N	-0.463649	1.224651	0.658871
H	-1.243069	1.619573	0.145924
H	0.292594	1.895617	0.674795
Cl	3.487167	0.0	0.0
