15

C	-0.401867	0.140291	-1.461994
C	0.0	0.0	0.0
F	-0.31308	-1.162938	-2.071305
H	1.101706	0.0	0.0
H	-1.455888	0.414878	-1.57216
N	0.44597	1.064481	-2.097759
H	1.417383	0.873509	-1.875422
H	0.308907	1.069143	-3.097362
N	-0.567972	-1.229798	0.561544
H	-0.36001	-1.986193	-0.080476
H	-0.047839	-1.428152	1.411013
N	-0.475611	1.160616	0.737874
H	0.2377	1.451639	1.391184
H	-1.294536	0.871476	1.254324
Cl	3.524391	0.0	0.0
