15

C	-0.54309	-0.018315	-1.438799
C	0.0	0.0	0.0
F	0.520274	-0.169165	-2.332681
H	1.092027	0.0	0.0
H	-1.163083	-0.905368	-1.587583
N	-1.307729	1.152489	-1.744805
H	-0.773881	1.961377	-1.445592
H	-1.448333	1.190502	-2.747158
N	-0.413761	-1.24536	0.655513
H	-1.358935	-1.145444	1.014593
H	0.205022	-1.415849	1.440015
N	-0.377955	1.25293	0.658026
H	0.111733	1.315156	1.539656
H	-1.375674	1.274859	0.82912
Cl	3.537609	0.0	0.0
