15

C	-0.452719	-0.050032	-1.451242
C	0.0	0.0	0.0
F	-0.326116	-1.36134	-1.921185
H	1.099485	0.0	0.0
H	-1.515482	0.211736	-1.523114
N	0.313248	0.804656	-2.314737
H	0.126738	1.754098	-2.013796
H	1.297381	0.633701	-2.112636
N	-0.58924	-1.100812	0.766404
H	-0.032281	-1.210558	1.608283
H	-0.453254	-1.950227	0.229048
N	-0.423771	1.297157	0.523697
H	-1.29652	1.152522	1.020491
H	0.269306	1.628521	1.182487
Cl	3.508902	0.0	0.0
