16

C	-0.466178	-0.076523	-1.449539
C	0.0	0.0	0.0
Cl	0.412296	-1.341356	-2.321554
H	1.094479	0.0	0.0
C	-1.900277	-0.335224	-1.588536
N	-3.042539	-0.611642	-1.633541
N	-0.173619	1.276618	-2.129923
O	0.957693	1.47229	-2.535189
O	-1.114523	2.066174	-2.141334
C	-0.384887	-1.252431	0.788246
H	-1.466088	-1.413889	0.857378
H	0.091935	-2.121547	0.333019
H	0.027531	-1.147818	1.793239
C	-0.527888	1.189042	0.638075
N	-0.929209	2.139128	1.206008
F	2.489058	0.0	0.0
