16

C	-0.335791	-0.050953	-1.472566
C	0.0	0.0	0.0
Cl	-2.078832	-0.356626	-1.842169
H	1.096005	0.0	0.0
C	0.039984	1.184324	-2.15479
N	0.275555	2.201273	-2.694891
N	0.458543	-1.202159	-2.123601
O	1.39	-0.888604	-2.849399
O	0.0956	-2.335792	-1.842766
C	-0.399768	-1.221001	0.825011
H	0.216799	-2.070038	0.535713
H	-1.457184	-1.48393	0.731628
H	-0.178343	-0.993658	1.869626
C	-0.535298	1.219336	0.564441
N	-0.96213	2.192789	1.070013
F	2.470306	0.0	0.0
