16

C	-0.346635	0.106901	-1.470267
C	0.0	0.0	0.0
Cl	0.063756	1.698208	-2.125105
H	1.096985	0.0	0.0
C	0.345378	-0.913715	-2.255029
N	0.894902	-1.718381	-2.910836
N	-1.863297	-0.11897	-1.663389
O	-2.205557	-1.278733	-1.883374
O	-2.607689	0.830435	-1.463215
C	-0.364563	-1.358071	0.597969
H	0.130273	-2.145727	0.027645
H	-1.439352	-1.558306	0.638607
H	0.042654	-1.387515	1.610572
C	-0.551514	1.09416	0.764961
N	-0.961353	1.958427	1.450249
F	2.473766	0.0	0.0
