16

C	-0.334454	-0.032044	-1.478242
C	0.0	0.0	0.0
Cl	0.182111	1.451693	-2.288013
H	1.096439	0.0	0.0
C	0.296438	-1.172905	-2.139905
N	0.782723	-2.092047	-2.686395
N	-1.860794	-0.187279	-1.668004
O	-2.545745	0.824975	-1.657858
O	-2.272835	-1.344885	-1.696626
C	-0.383114	-1.281985	0.7376
H	0.102352	-2.132859	0.256651
H	0.020608	-1.207516	1.749183
H	-1.460532	-1.462727	0.793793
C	-0.547659	1.174734	0.640474
N	-0.980483	2.09894	1.22659
F	2.47573	0.0	0.0
