16

C	-0.363248	0.014132	-1.467778
C	0.0	0.0	0.0
Cl	-2.135157	0.004298	-1.798736
H	1.095943	0.0	0.0
C	0.206756	1.172746	-2.150425
N	0.650022	2.117185	-2.690743
N	0.225355	-1.252606	-2.12301
O	-0.398929	-2.292359	-1.964133
O	1.288125	-1.116964	-2.710564
C	-0.429971	-1.244133	0.770645
H	-0.211981	-1.068844	1.825892
H	-1.490488	-1.486025	0.657841
H	0.174338	-2.09275	0.451043
C	-0.498541	1.213325	0.611794
N	-0.904579	2.179667	1.146907
F	2.474072	0.0	0.0
