16

C	-0.361883	-0.028608	-1.474084
C	0.0	0.0	0.0
Cl	-2.156963	-0.085349	-1.715422
H	1.095694	0.0	0.0
H	-0.066571	0.921443	-1.92282
N	0.230445	-1.20134	-2.065601
H	0.106708	-1.165743	-3.07103
H	1.229673	-1.175304	-1.859046
C	-0.524626	-1.154238	0.816714
H	-1.610897	-1.130016	0.901255
H	-0.219841	-2.078511	0.325571
H	-0.090333	-1.124205	1.815973
N	-0.418165	1.3204	0.561735
O	-0.066582	2.32734	-0.052095
O	-1.076399	1.337302	1.60312
Br	3.461587	0.0	0.0
