16

C	-0.388929	0.074779	-1.473391
C	0.0	0.0	0.0
Cl	-0.253059	-1.634197	-2.210159
H	1.09199	0.0	0.0
H	-1.443167	0.308043	-1.608453
N	0.438388	1.033211	-2.082693
H	1.42089	0.868894	-1.86834
H	0.292824	1.107565	-3.079363
C	-0.590041	-1.12928	0.814172
H	-1.671229	-1.190723	0.67764
H	-0.129673	-2.069525	0.517243
H	-0.369361	-0.963278	1.870789
N	-0.470003	1.293836	0.595081
O	-1.682567	1.522554	0.521236
O	0.347528	2.022594	1.145656
Br	3.543811	0.0	0.0
