16

C	-0.471537	-0.028006	-1.445696
C	0.0	0.0	0.0
Cl	0.002597	1.562231	-2.240318
H	1.089848	0.0	0.0
H	0.161021	-0.756043	-1.955328
N	-1.841464	-0.361765	-1.622576
H	-2.071365	-0.393016	-2.607155
H	-2.416199	0.332377	-1.16171
C	-0.467275	-1.223105	0.776141
H	-0.020811	-1.200617	1.772699
H	-0.10544	-2.11892	0.267806
H	-1.554305	-1.268953	0.843694
N	-0.508315	1.206605	0.71453
O	0.252384	1.807438	1.462681
O	-1.702164	1.492779	0.55281
Br	3.533547	0.0	0.0
