16

C	-0.388863	0.062241	-1.47456
C	0.0	0.0	0.0
Cl	-0.244132	-1.647826	-2.202317
H	1.092036	0.0	0.0
H	-1.445268	0.286483	-1.612752
N	0.434509	1.020257	-2.086656
H	1.41606	0.866905	-1.860107
H	0.297636	1.083885	-3.085392
C	-0.58941	-1.122745	0.824402
H	-1.66897	-1.197324	0.676697
H	-0.381865	-0.939544	1.881407
H	-0.115909	-2.062515	0.545058
N	-0.472989	1.299054	0.582692
O	-1.688879	1.512264	0.527651
O	0.346723	2.047322	1.10382
Br	3.539953	0.0	0.0
