12

C	0.0	0.0	0.0
C	-0.473203	0.432992	-1.381626
Br	1.957056	0.0	0.0
H	-1.57049	0.385029	-1.221034
H	-0.344061	0.72278	0.733446
H	-0.138488	-0.312592	-2.118328
C	-0.446575	-1.34295	0.359011
N	-0.606104	-2.469792	0.653192
N	-0.022151	1.795232	-1.663728
H	0.866145	1.786823	-2.149362
H	-0.704913	2.240689	-2.262327
F	-2.622778	0.0	0.0
