12

C	0.0	0.0	0.0
C	-0.474317	0.115161	-1.444479
Br	1.958718	0.0	0.0
H	-0.128437	1.08616	-1.830073
H	-0.353528	0.845336	0.582937
H	-1.57186	0.120954	-1.27641
C	-0.436391	-1.2457	0.621449
N	-0.622422	-2.286601	1.142621
N	-0.033233	-1.023651	-2.239067
H	-0.767559	-1.299876	-2.873222
H	0.799251	-0.810779	-2.771836
F	-2.629494	0.0	0.0
