12

C	0.0	0.0	0.0
C	-0.470972	0.148513	-1.444265
Br	1.959366	0.0	0.0
H	-1.567739	0.158083	-1.275967
H	-0.348399	0.837078	0.598259
H	-0.114354	1.124584	-1.806099
C	-0.429565	-1.255819	0.60839
N	-0.608962	-2.31032	1.094178
N	-0.036664	-0.975751	-2.261354
H	-0.767775	-1.220591	-2.91331
H	0.804902	-0.760995	-2.778419
F	-2.622979	0.0	0.0
