12

C	0.0	0.0	0.0
C	-0.459754	-0.062864	-1.49569
Br	1.955228	0.0	0.0
H	-1.18068	-0.871243	-1.567392
H	-0.342975	0.912993	0.473935
H	0.407144	-0.275161	-2.128945
C	-0.419864	-1.15822	0.781476
N	-0.569126	-2.143558	1.404917
N	-1.138143	1.137379	-1.941503
H	-1.934502	1.139093	-1.289953
H	-0.544334	1.941397	-1.759716
F	-2.479127	0.0	0.0
