13

C	0.0	0.0	0.0
C	-0.468702	-0.216744	-1.442142
Cl	1.779302	0.0	0.0
H	-1.559809	-0.315747	-1.368802
H	-0.35181	-0.802392	0.64344
H	-0.369315	0.953505	0.371629
C	0.097536	-1.458294	-1.976776
N	0.587148	-2.432095	-2.413174
C	-0.117674	0.952373	-2.366496
H	0.958607	1.135377	-2.394606
H	-0.624581	1.853204	-2.012229
H	-0.456927	0.749898	-3.385382
Cl	-3.431909	0.0	0.0
