13

C	0.0	0.0	0.0
C	-0.547597	-0.186185	-1.410994
Cl	1.779302	0.0	0.0
H	-1.636244	-0.28475	-1.259977
H	-0.337947	-0.807676	0.645951
H	-0.35572	0.946602	0.401438
C	-0.04111	-1.417263	-2.014582
N	0.364572	-2.395426	-2.522766
C	-0.276204	1.017183	-2.314119
H	0.791592	1.234818	-2.383201
H	-0.797422	1.884588	-1.904523
H	-0.659703	0.834911	-3.319378
Cl	-3.511201	0.0	0.0
