16

C	-0.412005	-0.026656	-1.455302
C	0.0	0.0	0.0
Br	-2.359724	-0.069424	-1.698481
H	1.091967	0.0	0.0
H	-0.106325	0.93328	-1.868435
C	0.243883	-1.173029	-2.203073
H	0.064061	-1.065489	-3.274461
H	1.318304	-1.144655	-2.000834
H	-0.147433	-2.136224	-1.87742
N	-0.52172	-1.17984	0.742797
O	0.131224	-2.214719	0.627254
O	-1.580533	-1.060817	1.352607
N	-0.393532	1.247956	0.724453
O	-0.717613	2.220695	0.048514
O	-0.263848	1.23227	1.94176
Cl	3.184415	0.0	0.0
