16

C	-0.555063	0.051246	-1.408896
C	0.0	0.0	0.0
Br	0.128854	-1.482099	-2.404631
H	1.087505	0.0	0.0
H	-1.63847	-0.069957	-1.387106
C	-0.114555	1.330995	-2.101292
H	0.96924	1.437382	-2.025188
H	-0.587939	2.199574	-1.636457
H	-0.403768	1.302921	-3.152362
N	-0.525359	-1.140033	0.814609
O	-0.007407	-1.276497	1.919295
O	-1.446551	-1.815296	0.36263
N	-0.498545	1.226236	0.713511
O	-1.678516	1.210757	1.066654
O	0.273495	2.16769	0.833074
Cl	3.241511	0.0	0.0
