16

C	-0.382812	-0.029701	-1.461175
C	0.0	0.0	0.0
Br	-2.30802	0.197175	-1.77622
H	1.091511	0.0	0.0
H	0.059522	0.877967	-1.872893
C	0.171336	-1.24656	-2.176015
H	1.237397	-1.316001	-1.937935
H	-0.336514	-2.155579	-1.859897
H	0.053093	-1.129078	-3.254394
N	-0.447439	-1.152228	0.830511
O	-1.274433	-1.937256	0.365238
O	0.071676	-1.23303	1.939073
N	-0.485869	1.259407	0.64402
O	-1.248228	1.184555	1.601665
O	-0.089399	2.29232	0.11616
Cl	3.177123	0.0	0.0
