16

C	-0.476992	0.006571	-1.435386
C	0.0	0.0	0.0
Br	-2.419223	-0.274893	-1.576236
H	1.091762	0.0	0.0
H	-0.328057	1.022476	-1.799351
C	0.266294	-0.993713	-2.300351
H	-0.007807	-0.84624	-3.347367
H	0.032975	-2.017682	-2.011709
H	1.340607	-0.833044	-2.165312
N	-0.480162	-1.207601	0.738188
O	-1.404196	-1.089342	1.53598
O	0.072836	-2.258198	0.427941
N	-0.400309	1.217881	0.774783
O	-0.972892	2.130081	0.180306
O	-0.056882	1.232907	1.951007
Cl	3.182634	0.0	0.0
