19

C	-0.570566	-0.014094	-1.41969
C	0.0	0.0	0.0
Cl	0.1781	-1.352045	-2.340753
H	1.097792	0.0	0.0
C	-2.072276	-0.171408	-1.512981
H	-2.32311	-1.113794	-1.030265
H	-2.571914	0.648084	-0.999069
H	-2.396522	-0.184282	-2.555516
N	-0.154904	1.287094	-2.097783
O	-0.984667	2.201985	-2.061426
O	0.968382	1.379523	-2.567672
N	-0.449762	-1.259374	0.645833
H	-0.577951	-1.063046	1.634042
H	0.358706	-1.875064	0.594946
C	-0.474801	1.197121	0.805687
H	-0.24226	2.142869	0.316021
H	0.078339	1.18623	1.748429
H	-1.549433	1.170509	1.025299
F	2.637655	0.0	0.0
