19

C	-0.290136	-0.134206	-1.49758
C	0.0	0.0	0.0
Cl	-0.33276	1.456561	-2.342123
H	1.100475	0.0	0.0
C	0.771048	-0.998346	-2.132642
H	1.727998	-0.607061	-1.765534
H	0.65623	-2.012417	-1.746015
H	0.694949	-1.00849	-3.219215
N	-1.685516	-0.708154	-1.7296
O	-2.602919	-0.227173	-1.069257
O	-1.818589	-1.601954	-2.560026
N	-0.403246	-1.289673	0.582886
H	0.354943	-1.600163	1.179442
H	-1.244407	-1.181625	1.140185
C	-0.544523	1.207644	0.737752
H	-0.190824	1.145792	1.772082
H	-1.638463	1.241357	0.735982
H	-0.159906	2.137487	0.318409
F	2.703115	0.0	0.0
