19

C	-0.186158	-0.066738	-1.533976
C	0.0	0.0	0.0
Cl	0.269204	1.484268	-2.291195
H	1.095465	0.0	0.0
C	0.714129	-1.139255	-2.113188
H	0.723311	-1.104282	-3.204082
H	1.703617	-0.912533	-1.688771
H	0.386504	-2.126329	-1.787489
N	-1.653526	-0.308128	-1.852616
O	-2.421578	0.646425	-1.942178
O	-2.014331	-1.492062	-1.873331
N	-0.363057	-1.259841	0.656732
H	-1.122538	-1.745858	0.193502
H	0.45711	-1.853676	0.640895
C	-0.68322	1.164575	0.682205
H	-0.404017	2.123073	0.243528
H	-0.374915	1.154637	1.729852
H	-1.776166	1.069845	0.650515
F	2.676895	0.0	0.0
