14

C	-0.570037	-0.089897	-1.376275
C	0.0	0.0	0.0
F	-1.934257	-0.229224	-1.389162
H	1.089918	0.0	0.0
H	-0.307514	-0.889631	0.551902
N	-0.251039	1.138465	-2.25519
O	-1.195374	1.719338	-2.762538
O	0.936262	1.373239	-2.391681
C	0.016177	-1.237102	-2.083664
N	0.4359	-2.164021	-2.668108
N	-0.520355	1.15007	0.735506
O	-0.653968	1.027423	1.95243
O	-0.739667	2.191829	0.112622
F	2.46061	0.0	0.0
