14

C	-0.42764	0.216403	-1.414217
C	0.0	0.0	0.0
F	0.1874	-0.590295	-2.304341
H	1.107744	0.0	0.0
H	-0.327066	0.811027	0.647868
N	-1.954768	0.008923	-1.62185
O	-2.666942	0.543028	-0.780286
O	-2.318612	-0.619878	-2.601503
C	-0.198401	1.621771	-1.790677
N	-0.042683	2.742383	-2.101919
N	-0.519237	-1.248203	0.547076
O	-0.973168	-2.094283	-0.232072
O	-0.437604	-1.396924	1.765408
F	2.46163	0.0	0.0
