14

C	-0.585492	-0.082862	-1.371152
C	0.0	0.0	0.0
F	-1.95402	-0.157951	-1.364869
H	1.089942	0.0	0.0
H	-0.318334	-0.882499	0.55678
N	-0.219512	1.118695	-2.270265
O	-1.143465	1.75704	-2.746884
O	0.975907	1.280919	-2.448125
C	-0.063598	-1.269038	-2.064649
N	0.310991	-2.23262	-2.620725
N	-0.503339	1.161309	0.730356
O	-0.659105	2.216159	0.107911
O	-0.685204	1.034439	1.941469
F	2.462393	0.0	0.0
