14

C	-0.601091	-0.052057	-1.370377
C	0.0	0.0	0.0
F	-0.175238	1.049584	-2.068865
H	1.100868	0.0	0.0
H	-0.297784	0.93932	0.469966
N	-0.136164	-1.245529	-2.213522
O	0.989955	-1.663457	-2.010624
O	-0.915804	-1.612213	-3.090374
C	-2.075194	-0.048705	-1.383495
N	-3.24383	0.058768	-1.328852
N	-0.5155	-1.086995	0.818734
O	-0.456113	-0.969159	2.041557
O	-0.944511	-2.092094	0.232653
F	2.461475	0.0	0.0
