13
Coordinates from ORCA-job run
  C   -0.80584781218930     -1.10838028320685      0.02659851814811
  C   0.07491552935054      0.06272249026115      0.39589693779909
  Cl  -2.30103926050383     -1.11678414455770      0.99178429029932
  H   0.22455370752098      0.10769818872237      1.47484473193288
  H   -0.27509325190884     -2.03917755470403      0.22726766159760
  H   -1.08399377126914     -1.05419464570030     -1.02462739812301
  N   -0.63614266655660      1.34153342844802      0.05564436129023
  O   -0.68162637391680      2.20816908291025      0.92391580759750
  O   -1.08529236481031      1.43696511511057     -1.08381078829800
  C   1.39445268525865      0.04384912150595     -0.35893823953254
  H   1.96883031514962     -0.84287260903026     -0.08386468987648
  H   1.21749765198345      0.03361235339595     -1.43558682042280
  H   1.98678561189158      0.92585945684488     -0.10812437241192
