13
Coordinates from ORCA-job run
  C   -0.94433152469222     -0.97816834701443      0.25089112914201
  C   0.10679003942548      0.11671267880129      0.35640822666666
  Cl  -0.24968765556816     -2.53828143594481      0.76097497906686
  H   0.46007479748967      0.17289329756645      1.39132441986294
  H   -1.28788171195612     -1.08286879739152     -0.77894979184740
  H   -1.78890216031057     -0.76938516804997      0.89943888365642
  N   -0.57770965172267      1.45283284695441      0.12563846585275
  O   -1.76131697362825      1.54484147845264      0.44515214815744
  O   0.10518933142428      2.36895871544529     -0.31995848231684
  C   1.26870770889401     -0.03946311013881     -0.60252949383477
  H   1.76231117787703     -0.99423607992380     -0.42283289976954
  H   0.91477037433053     -0.01676887130932     -1.63574627430058
  H   1.99198624843698      0.76193279255259     -0.46981131033595
