13
Coordinates from ORCA-job run
  C   -0.97327412286510     -0.97964804145942      0.05157617786542
  C   0.06701464295593      0.07346959888898      0.39979848574840
  Cl  -0.38941150571166     -2.58836570774834      0.54349709694404
  H   0.30378269110412      0.03341878966905      1.46346285263993
  H   -1.90487159159279     -0.79169690046423      0.58535662979826
  H   -1.16249391805786     -0.99744569117255     -1.01970471407952
  N   -0.56925206921787      1.41683964629220      0.19318120658232
  O   -1.13530179145040      1.59893998917817     -0.88393873052103
  O   -0.45960380655894      2.24262892499269      1.09562751876626
  C   1.32219607375132      0.01030085875203     -0.45111275307054
  H   2.00496975054549      0.81714442208579     -0.17806580741975
  H   1.83098675428944     -0.94069192637986     -0.29314717635416
  H   1.06425889280833      0.10510603736549     -1.50753078689963
