13
Coordinates from ORCA-job run
  C   -0.80169552924643     -1.06867343970923      0.30521134172365
  C   0.16590797130430      0.09081256939371      0.36086419149252
  Cl  -2.03213611660526     -0.94004783775435      1.58467940343033
  H   0.56208764428529      0.21385620616110      1.36906713116903
  H   -1.31518723969283     -1.08613271161583     -0.65465770601227
  H   -0.25901224982902     -2.00162246621209      0.45830784743107
  N   -0.57653726034912      1.36669844183310      0.08388619157763
  O   -1.27445462379586      1.39120293810292     -0.92681408635298
  O   -0.40216369833722      2.29953369879059      0.86270017248711
  C   1.27461584477875     -0.04173880895718     -0.67087019209793
  H   0.85336638237799     -0.12739936184517     -1.67379131366893
  H   1.87631760660838     -0.92796130784832     -0.46029959048904
  H   1.92889126850104      0.83147207966076     -0.63728339069020
