10
Coordinates from ORCA-job run
  C   -1.07222988906995     -0.19383076082601     -0.29775961996413
  C   0.24187443301260     -0.32115243309800      0.42775394811680
  F   -1.42865541984669      1.15514144943090     -0.35262371207403
  H   0.11190263548889      0.07199063182938      1.44729059073090
  H   -0.97697763649565     -0.55096476563177     -1.32468266451013
  H   -1.87291340138599     -0.72662782599614      0.22077427243927
  H   0.48502331182023     -1.38520240929859      0.50994108917791
  N   1.28584278969864      0.34381233891637     -0.34532270922581
  H   2.17316705824915      0.27966007975035      0.13670448653768
  H   1.05396611852879      1.32617369492351     -0.42207568122845
