10
Coordinates from ORCA-job run
  C   -0.98868904804167     -0.20837872738545     -0.31832608294414
  C   0.23823131406975     -0.27903097460658      0.56637072608555
  F   -1.36738508378236      1.12658866562620     -0.46052186939222
  H   0.51068257368491     -1.32948112993146      0.71155150565694
  H   -1.83522954934039     -0.74990025778687      0.11392565848501
  H   -0.77814860518242     -0.59498430958572     -1.31995553514914
  H   -0.02001374938121      0.12395655930539      1.54972752801921
  N   1.40039799059813      0.44719976225638      0.07122099632908
  H   1.13604498817749      1.40912808422376     -0.10118479083783
  H   1.70410916919777      0.05690232788437     -0.81280813625247
