15
Coordinates from ORCA-job run
  C   -0.28534564004977      0.27041388006881      0.37478005584599
  C   1.00790679455378      0.29394897068251     -0.43397230148242
  Br  0.12277179798924      0.27380455045095      2.27511096598642
  H   1.64924583033936      1.11504057791591     -0.12939144318304
  H   0.77198252944251      0.35890880060253     -1.49670886316797
  C   -1.24023999265029     -0.85330707917635      0.04241075885824
  H   -0.78584916382910     -1.81543509546799      0.26901145099311
  H   -2.15484247030078     -0.73634869541742      0.61998068826310
  H   -1.47968725327153     -0.82422259154773     -1.02436955668715
  N   -1.00213350865376      1.60102176357574      0.09905908248617
  O   -0.37025553982635      2.46534796954887     -0.50197720635247
  O   -2.15214667299533      1.69716169166682      0.50158062907299
  N   1.77973328760757     -0.96803445947559     -0.24142115069177
  O   1.37814545682340     -1.96094809103649     -0.84712221042007
  O   2.76171454482106     -0.91835219239058      0.49402910047886
