14
Coordinates from ORCA-job run
  C   0.86139338656179     -0.61785771985057      0.34334654797738
  C   -0.52643335640625     -0.37067054649261     -0.26359776281615
  Cl  0.90970980625055     -0.38739364314692      2.07536721518955
  H   -0.43141904293660     -0.60833318838596     -1.32904018722575
  H   1.21671337454384     -1.62121320296335      0.11110691378577
  N   1.81614375329990      0.31834434852454     -0.37888872976225
  O   2.27578473867090      1.28767234021931      0.20373787258074
  O   1.99533124180198      0.01008318500430     -1.55378724341104
  C   -1.00405134503521      1.07445426723850     -0.10325326744328
  H   -2.00090133684248      1.17970797830843     -0.53303018969479
  H   -1.04695864739639      1.35830625538338      0.94829780483141
  H   -0.33367129524003      1.75794266410270     -0.62726149335542
  C   -1.47646920645037     -1.31691604665322      0.32083298766551
  N   -2.25417207082163     -2.06312669128854      0.78616953167832
