14
Coordinates from ORCA-job run
  C   0.95254346582834      0.12566041747318     -0.21501112706047
  C   -0.51840222565966     -0.24277744330374     -0.04775090868167
  Cl  1.52640897449727     -0.21636966438373     -1.84605731561105
  H   -0.61376560825063     -1.30744180566609     -0.28206683288179
  H   1.15172557634994      1.17143116226763      0.01463215305221
  N   1.78492845348910     -0.67408728592546      0.75866854853847
  O   2.57435548765017     -0.03683427011378      1.44783727429601
  O   1.59451207837881     -1.88408770346048      0.77841563232378
  C   -1.43190307585761      0.59259259839145     -0.94898851952174
  H   -1.30321233222750      1.65803479903598     -0.74711649668216
  H   -2.47387715516492      0.33200888065942     -0.75977194747415
  H   -1.21229548849169      0.40062411800619     -1.99871466098964
  C   -0.87622749765848     -0.05137163927662      1.36075488248209
  N   -1.15679065288316      0.13261783629605      2.48616931821011
