14
Coordinates from ORCA-job run
  C   0.95314680127696      0.12286012987947     -0.21860750995941
  C   -0.51652903456952     -0.24558846652406     -0.04143187794807
  Cl  1.52723200082975     -0.25735822758047     -1.84111422060545
  H   -0.60890151107379     -1.31605389013877     -0.24916704687172
  H   1.14957377641417      1.17447752602986     -0.01463301477462
  N   1.78837345894096     -0.65045194438957      0.77399942632863
  O   2.57535513733626      0.00601793959741      1.44777652689769
  O   1.60240058545405     -1.86032856303425      0.82245094775107
  C   -1.43327108120336      0.56477953538487     -0.96178949694693
  H   -1.21387356016210      0.34803620989744     -2.00674491344847
  H   -1.30759247652116      1.63520681119212     -0.78606609151269
  H   -2.47426878404157      0.30569935691285     -0.76530366005640
  C   -0.87488448465933     -0.02105103185314      1.36210553738510
  N   -1.16676082802130      0.19175461462624      2.47952539376126
