14
Coordinates from ORCA-job run
  C   0.94182131786098     -0.49307765753240     -0.46728245731348
  C   -0.57945237338724     -0.42930614587628     -0.33022005021544
  Cl  1.54431757728046     -2.13943972536396     -0.40985842598224
  H   -0.97210092996286     -0.98356724931838     -1.19066422502987
  H   1.25615152326578     -0.03265662069037     -1.40215887554268
  N   1.57294721355695      0.34771799903287      0.61657215285470
  O   1.61082384192426     -0.11176840887751      1.74938897585897
  O   1.93543049841566      1.46662588145189      0.25842189844732
  C   -1.09284014794817      1.01454806715904     -0.37304867068765
  H   -2.18252459065494      1.01368563035547     -0.41886887333063
  H   -0.70520572922514      1.53167337240302     -1.25287666646120
  H   -0.78970357068226      1.56779775460891      0.51638740089000
  C   -1.04889683013360     -1.11464589574238      0.87604344753656
  N   -1.48876780030988     -1.63658700160994      1.83116436897564
