14
Coordinates from ORCA-job run
  C   0.92824567505717     -0.48616162817453     -0.50113749245034
  C   -0.58784458099445     -0.43146841900085     -0.31399810002122
  Cl  1.54199943958534     -2.12905621652910     -0.47077026718944
  H   -1.00660402405900     -0.98055595065125     -1.16534675416756
  H   1.20905393151998     -0.02023855498225     -1.44388210168798
  N   1.58967615916505      0.35359634357193      0.56509972976002
  O   1.94213630888001      1.47303749960064      0.19891507058419
  O   1.66000495761103     -0.10802311646360      1.69555746129407
  C   -1.10841784784829      1.01056451735318     -0.32921772298188
  H   -0.77608862525151      1.55942463277339      0.55257969830322
  H   -0.75470550103576      1.53495316994742     -1.21907282112644
  H   -2.19902909450965      1.00508328700843     -0.33608037720621
  C   -1.01556294134103     -1.12676523237359      0.90201713426798
  N   -1.42386385677890     -1.65539033207983      1.86733654262157
