14
Coordinates from ORCA-job run
  C   0.85255399220683     -0.60853754891984      0.37561208455873
  C   -0.53353068191297     -0.37337170920744     -0.23961029034943
  Cl  0.91510405584675     -0.27076637049827      2.08926311802613
  H   -0.44647123722147     -0.66991429959876     -1.29094330546535
  H   1.18709718779724     -1.63127514670661      0.20510270269547
  N   1.82176422462814      0.26157747835152     -0.40851580258618
  O   1.99078233744230     -0.12497780380517     -1.56165026735601
  O   2.30142604138488      1.25778042743939      0.10916187085934
  C   -0.99071131235441      1.08456335287941     -0.15603409469068
  H   -1.03885415011717      1.42094513224173      0.87949302542301
  H   -0.30595928225519      1.73195659062438     -0.70636441009374
  H   -1.98200923452115      1.18218500093675     -0.60005038481688
  C   -1.49383297451203     -1.27406290262697      0.39808026770587
  N   -2.27735896641175     -1.98610220111014      0.90545548608971
