14
Coordinates from ORCA-job run
  C   0.84800583630847     -0.67322837878350      0.25328181727041
  C   -0.53919886665472     -0.31753535162538     -0.29787120196103
  Cl  0.92649627599312     -0.64651449769059      1.99932812473667
  H   -0.46148338281072     -0.41988469600487     -1.38610702517489
  H   1.16809866092694     -1.65331513054068     -0.09882570093197
  N   1.82297876577527      0.31076458879771     -0.37222926086258
  O   2.31909836459168      1.19359434870090      0.30976251397406
  O   1.98083039118079      0.13192044910233     -1.57679832403745
  C   -0.98066625324360      1.10511381495424      0.05214001921957
  H   -1.97260384229995      1.29199720083043     -0.36083460160975
  H   -0.29089946004236      1.83536834475548     -0.37438205248753
  H   -1.02172379936749      1.24713160088203      1.13199299817845
  C   -1.50520290157270     -1.31001778605737      0.17294413117115
  N   -2.29372978878474     -2.09539450732073      0.54659856251489
