14
Coordinates from ORCA-job run
  C   0.95570915781751      0.07734141945327     -0.22974814428497
  C   -0.52254919358743     -0.23496829137624     -0.01857683621368
  Cl  1.51554832180208     -0.46958297234951     -1.80897207312509
  H   -0.64253666804692     -1.31745177746458     -0.12539768998077
  H   1.17936466412601      1.13822907023454     -0.12640475412253
  N   1.77269862133069     -0.61939909207732      0.83202379146124
  O   1.55627337104234     -1.81417264201898      0.99465587512751
  O   2.57662481420922      0.07787368167293      1.44174620019719
  C   -1.42082315973178      0.50879181944966     -1.01059735777823
  H   -1.26787640945396      1.58743218282824     -0.93553268634883
  H   -2.46753759722542      0.29560328461990     -0.79056235262223
  H   -1.20954178935472      0.18983358285402     -2.03075332172474
  C   -0.87191059489277      0.12879461995790      1.35774193308006
  N   -1.15544353803486      0.45267511421618      2.45037741633507
