14
Coordinates from ORCA-job run
  C   0.92205986426651     -0.50404494246291     -0.49491138517090
  C   -0.59269228967626     -0.43140475608938     -0.30419172580133
  Cl  1.52010457845034     -2.15205514626379     -0.43536041859396
  H   -1.01909864715659     -0.99201076665034     -1.14415936486384
  H   1.20443802709426     -0.05844537942419     -1.44698404850832
  N   1.59537973738001      0.34919513364020      0.55307062597449
  O   1.66500560766492     -0.09134832063856      1.69190340714224
  O   1.95689127262136      1.45815312969654      0.16437225132083
  C   -1.10000992852616      1.01497400724409     -0.34396300874524
  H   -0.76055591893816      1.57601946069869      0.52741445453589
  H   -0.74346666509096      1.52041268673044     -1.24361599519841
  H   -2.19060584594810      1.01956587857123     -0.34859390009559
  C   -1.02334930248642     -1.10027744651489      0.92550559017368
  N   -1.43310048965474     -1.60973353853711      1.90051351783044
