14
Coordinates from ORCA-job run
  C   0.93006914298867     -0.52002772268568     -0.46259636951450
  C   -0.58906946031639     -0.42613878697814     -0.31907383221537
  Cl  1.50457560616569     -2.17489601679226     -0.37177054365436
  H   -0.99654324289321     -0.98697316389617     -1.16825918519443
  H   1.24633767597645     -0.08595416542292     -1.40938734919148
  N   1.58144288209052      0.33339621190800      0.59860013612373
  O   1.97087415639945      1.43360895593701      0.21222938494524
  O   1.60812011798762     -0.09749281019713      1.74291557544676
  C   -1.07460445236103      1.02653209164863     -0.38451918754709
  H   -2.16435336540002      1.04647483990898     -0.42280324185975
  H   -0.68288463624619      1.52029844333618     -1.27592138029484
  H   -0.75466736328322      1.58909482764655      0.49324541452202
  C   -1.06602714009932     -1.08103118014042      0.90096261756990
  N   -1.51226992100901     -1.57789152427263      1.86637796086417
