14
Coordinates from ORCA-job run
  C   0.91105321229956     -0.51089459337342     -0.50465726896368
  C   -0.60295922188801     -0.39961606996597     -0.32702500243873
  Cl  1.46242221419683     -2.17627549305497     -0.49858757514752
  H   -1.03647157693274     -0.90725197500018     -1.19653251125811
  H   1.21670425518284     -0.03977275030823     -1.43707231790716
  N   1.59676983090982      0.28330641609948      0.57992155181626
  O   1.61311978949664     -0.18804713581320      1.70853842685737
  O   2.02184687781592      1.38259607026400      0.23026198105340
  C   -1.06066485448143      1.06340608076639     -0.30715682174632
  H   -0.67643186184036      1.59597048385796     -1.17939695733109
  H   -2.15033612235738      1.10662462444338     -0.32280483236815
  H   -0.71286534739480      1.57297466802525      0.59222219962989
  C   -1.07112424644467     -1.11100281245791      0.86442213699641
  N   -1.51006294856221     -1.67301751348256      1.79686699080742
