17

C	-0.370878	-0.035881	-1.503861
C	0.0	0.0	0.0
Cl	-0.008022	1.587927	-2.20309
H	1.095623	0.0	0.0
N	0.449895	-0.970433	-2.250514
H	1.43155	-0.753031	-2.070598
H	0.283015	-1.897828	-1.867398
N	-1.782004	-0.26909	-1.684919
H	-1.941759	-0.392248	-2.679382
H	-2.032809	-1.134386	-1.215817
C	-0.434082	-1.278209	0.563542
N	-0.838835	-2.304216	0.97175
C	-0.563128	1.162898	0.810794
H	-1.64163	1.25212	0.662472
H	-0.352252	1.009689	1.871758
H	-0.078537	2.087398	0.500145
Br	3.490114	0.0	0.0
