17

C	-0.372252	-0.060183	-1.505716
C	0.0	0.0	0.0
Cl	-0.145593	1.670929	-2.179706
H	1.096531	0.0	0.0
N	0.481803	-0.999761	-2.104535
H	0.359716	-1.01169	-3.107796
H	1.45464	-0.845676	-1.845524
N	-1.732676	-0.391206	-1.854863
H	-2.372439	0.285124	-1.456847
H	-1.931355	-1.309982	-1.471986
C	-0.465156	-1.25255	0.594268
N	-0.89962	-2.217125	1.106431
C	-0.539346	1.18142	0.798962
H	-0.340948	1.019669	1.859969
H	-0.037988	2.096598	0.492019
H	-1.619148	1.300829	0.664892
Br	3.489789	0.0	0.0
