17

C	-0.351747	0.21906	-1.477032
C	0.0	0.0	0.0
Cl	0.099974	-1.427055	-2.370565
H	1.097199	0.0	0.0
N	-1.735504	0.469752	-1.691869
H	-1.90364	0.667233	-2.672293
H	-2.264063	-0.361631	-1.449847
N	0.460538	1.259019	-1.974633
H	1.432311	1.085737	-1.713383
H	0.40006	1.321448	-2.983678
C	-0.559471	-1.234526	0.529428
N	-1.042492	-2.186599	1.020085
C	-0.452987	1.191591	0.85347
H	-0.033853	2.104311	0.432109
H	-0.069964	1.066018	1.868364
H	-1.540047	1.276204	0.878593
Br	3.479322	0.0	0.0
