17

C	-0.21655	-0.00287	-1.524075
C	0.0	0.0	0.0
Cl	-1.999905	0.072095	-1.903951
H	1.100305	0.0	0.0
N	0.381859	1.137401	-2.189415
H	1.367111	1.146091	-1.921748
H	-0.043229	2.002644	-1.87761
N	0.311921	-1.231016	-2.032664
H	1.238885	-1.365415	-1.630011
H	0.412629	-1.131479	-3.037133
C	-0.5152	-1.208348	0.630282
N	-0.927919	-2.146574	1.20453
C	-0.492182	1.244143	0.728827
H	0.00596	2.131188	0.334689
H	-0.232226	1.168927	1.786198
H	-1.574312	1.359809	0.636976
Br	3.449929	0.0	0.0
