17

C	-0.213431	0.150242	-1.519227
C	0.0	0.0	0.0
Cl	-1.995392	0.251213	-1.893404
H	1.100231	0.0	0.0
N	0.412532	1.377828	-1.919105
H	1.365214	1.370003	-1.549823
H	0.470105	1.37054	-2.932114
N	0.293987	-0.970983	-2.283085
H	1.283383	-1.054196	-2.047072
H	-0.168317	-1.828863	-1.999161
C	-0.483573	-1.294143	0.458301
N	-0.895835	-2.32857	0.834332
C	-0.531191	1.143036	0.85583
H	-1.623426	1.151411	0.863607
H	-0.164992	1.034817	1.879322
H	-0.172672	2.08831	0.450779
Br	3.454122	0.0	0.0
