17

C	-0.292569	0.063373	-1.511754
C	0.0	0.0	0.0
Cl	-2.109029	0.600341	-1.721146
H	1.097479	0.0	0.0
N	0.473708	1.056181	-2.213881
H	0.228897	1.980408	-1.883017
H	1.454076	0.877984	-1.9847
N	-0.041054	-1.171104	-2.119585
H	-0.568202	-1.936401	-1.723151
H	-0.162197	-1.100622	-3.120332
C	-0.517974	-1.22655	0.588303
N	-0.976483	-2.209301	1.041427
C	-0.438897	1.217892	0.809343
H	-0.085008	2.130022	0.325272
H	0.029719	1.169893	1.79413
H	-1.522	1.270071	0.921036
Br	3.474269	0.0	0.0
