18

C	-0.211791	-0.022692	-1.499722
C	0.0	0.0	0.0
Br	-2.262183	-0.591808	-1.915045
H	1.098435	0.0	0.0
N	-0.001602	1.234181	-2.071675
H	-0.622454	1.94026	-1.702412
H	-0.072343	1.202112	-3.079312
C	0.650055	-1.083717	-2.141805
H	1.660577	-0.86519	-1.768049
H	0.593764	-1.040165	-3.233132
H	0.347744	-2.077243	-1.811175
C	-0.437276	-1.229667	0.631581
N	-0.752766	-2.214372	1.19232
C	-0.527672	1.23131	0.721192
H	-1.595605	1.39612	0.535627
H	-0.378865	1.117893	1.796643
H	0.049822	2.102999	0.405823
F	2.591106	0.0	0.0
