18

C	-0.315094	0.025275	-1.50246
C	0.0	0.0	0.0
Br	0.015987	-1.789724	-2.242307
H	1.096159	0.0	0.0
N	-1.717372	0.301366	-1.777921
H	-1.925894	1.222894	-1.404157
H	-1.852865	0.346075	-2.783566
C	0.698796	0.939751	-2.187929
H	0.67576	0.808434	-3.271827
H	0.443775	1.981588	-1.962397
H	1.685605	0.716246	-1.767122
C	-0.602023	-1.111467	0.709836
N	-1.0734	-1.972039	1.358848
C	-0.376309	1.315616	0.697953
H	-0.038807	1.257663	1.73486
H	0.163926	2.14357	0.237458
H	-1.451519	1.524475	0.705284
F	2.622992	0.0	0.0
