18

C	-0.011661	0.136531	-1.535217
C	0.0	0.0	0.0
Br	-1.837965	0.570452	-2.239794
H	1.10595	0.0	0.0
N	0.893423	1.188479	-1.965928
H	1.763136	0.964648	-1.447044
H	0.560192	2.07936	-1.612357
C	0.462463	-1.158094	-2.167549
H	1.450138	-1.341121	-1.729887
H	-0.20369	-1.994393	-1.948352
H	0.552653	-1.01986	-3.245233
C	-0.578193	-1.237232	0.478681
N	-1.061653	-2.225963	0.896237
C	-0.516141	1.19515	0.787535
H	-1.59506	1.332548	0.66865
H	-0.003656	2.103102	0.462847
H	-0.290315	1.05828	1.848421
F	2.644517	0.0	0.0
