15

C	0.0	0.0	0.0
C	-0.544462	-0.22675	-1.407336
Cl	1.765431	0.0	0.0
H	-0.418276	0.750063	-1.907003
H	-1.631105	-0.345858	-1.223842
N	-0.567089	1.141298	0.620701
H	-0.417605	1.926353	-0.003356
H	-1.597692	0.929738	0.605966
N	-0.346453	-1.208038	0.91708
O	0.019461	-2.310781	0.526511
O	-0.93212	-0.981726	1.967389
N	-0.003713	-1.343145	-2.162446
H	-0.663627	-1.592697	-2.886232
H	0.877639	-1.096495	-2.59327
H	-3.118831	0.0	0.0
