15

C	0.0	0.0	0.0
C	-0.227347	0.31936	-1.54718
Cl	1.770964	0.0	0.0
H	0.263042	1.300694	-1.64225
H	0.424186	-0.401719	-2.043851
N	-0.475831	0.935211	0.961458
H	-0.189977	1.855567	0.639691
H	-1.511386	0.821955	0.806885
N	-0.448205	-1.405184	0.375618
O	-0.507722	-2.221504	-0.543526
O	-0.556654	-1.663942	1.56377
N	-1.547333	0.386204	-2.209393
H	-2.1253	-0.323077	-1.701131
H	-1.373788	0.034393	-3.158291
H	-2.606893	0.0	0.0
