15

C	0.0	0.0	0.0
C	-0.292696	0.058512	-1.506605
Cl	1.850723	0.0	0.0
H	-1.348182	-0.182914	-1.614714
H	0.301246	-0.723266	-1.985713
N	-0.387115	1.163232	0.71357
H	0.065005	1.169535	1.617781
H	-0.140429	1.967304	0.151863
N	-0.630305	-1.204018	0.573342
O	-0.561058	-2.23159	-0.173089
O	-0.576651	-1.275709	1.837367
N	-0.042872	1.405028	-2.032947
H	-0.646236	1.556438	-2.830852
H	0.915487	1.470443	-2.35025
H	-2.185514	0.0	0.0
