15

C	0.0	0.0	0.0
C	-0.518048	-0.203321	-1.409847
Cl	1.768239	0.0	0.0
H	0.019457	-1.026741	-1.879179
H	-1.580111	-0.456385	-1.267223
N	-0.631446	1.081856	0.600381
H	-1.670575	0.849011	0.481425
H	-0.411069	1.112063	1.589873
N	-0.282116	-1.33909	0.795172
O	-0.408255	-1.227782	2.009789
O	-0.298413	-2.39524	0.174182
N	-0.307902	1.028183	-2.179772
H	-0.761264	1.769949	-1.656188
H	-0.832075	0.927568	-3.043237
H	-3.045283	0.0	0.0
