18

C	-0.623694	-0.01841	-1.383817
C	0.0	0.0	0.0
Br	0.436502	-1.332689	-2.53841
H	1.093973	0.0	0.0
N	-1.985816	-0.319926	-1.349034
H	-2.072648	-1.12311	-0.732216
H	-2.373162	-0.484446	-2.267042
N	-0.43699	1.270964	-2.166689
O	0.519233	1.982066	-1.889661
O	-1.261401	1.495829	-3.053061
N	-0.41364	-1.294973	0.616762
H	0.419544	-1.876347	0.575905
H	-0.584551	-1.125732	1.601985
C	-0.535854	1.153451	0.834168
H	-1.611447	1.062151	1.026864
H	-0.337621	2.114829	0.361112
H	0.00685	1.149889	1.784174
F	2.629868	0.0	0.0
