18

C	-0.608757	0.002448	-1.38964
C	0.0	0.0	0.0
Br	0.385963	-1.376771	-2.522956
H	1.09398	0.0	0.0
N	-1.989497	-0.215971	-1.369983
H	-2.138503	-0.996051	-0.735809
H	-2.369999	-0.3805	-2.290348
N	-0.343329	1.273253	-2.182124
O	0.611437	1.965892	-1.863311
O	-1.112633	1.502621	-3.114451
N	-0.458424	-1.282502	0.610317
H	-0.498702	-1.130613	1.613006
H	0.312802	-1.931936	0.465296
C	-0.523447	1.160406	0.833331
H	0.000346	1.138531	1.793962
H	-0.286282	2.117397	0.368519
H	-1.604609	1.097546	1.003428
F	2.636067	0.0	0.0
