18

C	-0.113795	0.056606	-1.534014
C	0.0	0.0	0.0
Br	-0.126061	1.936479	-2.20823
H	1.097206	0.0	0.0
N	0.948835	-0.633214	-2.16744
H	0.7405	-1.623512	-2.108361
H	1.782494	-0.448066	-1.57191
N	-1.460689	-0.492026	-2.002978
O	-1.487267	-1.288973	-2.935217
O	-2.450619	-0.094626	-1.394482
N	-0.411561	-1.366866	0.340699
H	-1.33053	-1.362817	0.769166
H	0.258736	-1.734621	1.005623
C	-0.616442	1.08043	0.860247
H	-0.220379	2.064433	0.610142
H	-1.707084	1.104811	0.769141
H	-0.353065	0.87245	1.902467
F	2.695754	0.0	0.0
