18

C	-0.522313	-0.062774	-1.431413
C	0.0	0.0	0.0
Br	0.533785	-1.478441	-2.446091
H	1.100968	0.0	0.0
N	-1.91059	-0.278978	-1.549573
H	-2.138718	-1.169694	-1.130221
H	-2.19291	-0.276744	-2.52064
N	-0.202996	1.190449	-2.242047
O	-0.974293	1.46372	-3.164677
O	0.800388	1.819939	-1.947173
N	-0.361178	-1.189627	0.765642
H	0.236763	-1.958199	0.485917
H	-1.338852	-1.455613	0.696002
C	-0.545077	1.227141	0.71718
H	-0.265732	2.15299	0.213499
H	-0.087859	1.232771	1.707388
H	-1.636123	1.195083	0.827835
F	2.620328	0.0	0.0
