18

C	-0.119339	0.172019	-1.528393
C	0.0	0.0	0.0
Br	-1.739455	1.140135	-2.137372
H	1.096443	0.0	0.0
N	1.039624	0.795303	-2.096742
H	0.917214	1.799065	-2.077174
H	1.840599	0.541268	-1.470509
N	-0.205346	-1.252144	-2.109494
O	0.870064	-1.834264	-2.137939
O	-1.286237	-1.732231	-2.4248
N	-0.558826	-1.243044	0.487912
H	-1.44423	-1.091364	0.956095
H	0.094548	-1.657865	1.138869
C	-0.42677	1.23988	0.76536
H	-0.037344	1.164632	1.784879
H	-0.009673	2.145206	0.317647
H	-1.517289	1.346561	0.805411
F	2.696863	0.0	0.0
