18

C	0.033275	0.03807	-1.554899
C	0.0	0.0	0.0
Br	-0.528797	2.114891	-2.349066
H	1.096843	0.0	0.0
N	1.234385	-0.344882	-1.982214
H	2.075444	-0.182721	-1.270382
H	1.359748	-0.484199	-2.973296
N	-1.108734	-0.636478	-2.300093
O	-0.855032	-1.166295	-3.37973
O	-2.209397	-0.643602	-1.754434
N	-0.431593	-1.301836	0.493787
H	-1.36212	-1.525333	0.160578
H	0.217009	-2.007139	0.165527
C	-0.670018	1.127607	0.739244
H	-0.215182	2.084997	0.493442
H	-0.550728	0.933398	1.807713
H	-1.736991	1.180937	0.504294
F	2.803133	0.0	0.0
