13

C	0.0	0.0	0.0
C	-0.373383	-0.261631	-1.456815
F	1.387006	0.0	0.0
H	0.358235	0.255006	-2.078952
H	-0.302624	1.016985	0.270247
H	-0.357312	-1.335167	-1.648783
N	-0.522411	-1.02683	0.84976
H	-0.50331	-0.699275	1.811813
H	-1.513102	-1.092689	0.596595
N	-1.696676	0.26202	-1.8409
O	-1.794908	1.522425	-1.800942
O	-2.693186	-0.500392	-1.536236
H	-3.158293	0.0	0.0
