13

C	0.0	0.0	0.0
C	-0.481531	0.029434	-1.437209
F	1.383538	0.0	0.0
H	-1.580341	0.162357	-1.350232
H	-0.328806	0.91473	0.49461
H	-0.223601	-0.884345	-1.971235
N	-0.524848	-1.115254	0.719269
H	-1.543686	-0.918336	0.73125
H	-0.398569	-1.95321	0.155508
N	0.096767	1.147005	-2.207395
O	0.620401	0.901195	-3.298296
O	0.002354	2.275556	-1.725205
H	-2.991597	0.0	0.0
