19

C	0.0	0.0	0.0
C	-0.425571	-0.004355	-1.506428
Cl	1.780437	0.0	0.0
H	0.130757	0.868783	-1.874282
C	-0.553444	1.197814	0.733244
H	-0.323027	2.100682	0.163373
H	-1.638596	1.081645	0.81325
H	-0.123673	1.275825	1.729697
N	-0.412936	-1.246533	0.775845
O	-0.709764	-2.253664	0.142517
O	-0.383456	-1.162239	1.999721
N	-1.815726	0.240529	-1.776196
H	-2.450124	-0.424288	-1.340775
H	-2.129203	1.140498	-1.43706
C	0.025985	-1.205162	-2.340456
H	0.013931	-0.892676	-3.387416
H	1.026421	-1.558491	-2.08544
H	-0.6769	-2.027144	-2.225154
Cl	-4.442242	0.0	0.0
