19

C	0.0	0.0	0.0
C	-0.492961	0.242108	-1.441858
Cl	1.779423	0.0	0.0
H	0.215853	-0.281412	-2.089271
C	-0.56209	0.943583	1.026817
H	-0.226337	1.949239	0.777008
H	-1.654815	0.894446	1.015279
H	-0.213103	0.679101	2.024172
N	-0.360178	-1.446932	0.354231
O	-1.02973	-1.643758	1.360918
O	0.047043	-2.312379	-0.414743
N	-0.363086	1.67943	-1.703154
H	-0.286615	1.813961	-2.704143
H	-1.230618	2.126429	-1.421425
C	-1.893386	-0.305078	-1.694159
H	-2.655859	0.04554	-0.99155
H	-2.208519	0.017168	-2.690818
H	-1.920905	-1.394381	-1.676913
Cl	-4.928165	0.0	0.0
