19

C	0.0	0.0	0.0
C	-0.465614	0.229065	-1.44575
Cl	1.787147	0.0	0.0
H	-0.058925	-0.60489	-2.027791
C	-0.547951	0.992356	0.986832
H	-0.106103	0.849908	1.971644
H	-0.318447	1.988164	0.608427
H	-1.631231	0.867884	1.062064
N	-0.372326	-1.425289	0.413954
O	-0.763505	-1.596064	1.563345
O	-0.217454	-2.307978	-0.42493
N	0.058115	1.52295	-1.893401
H	0.982523	1.412341	-2.290996
H	-0.554666	1.883704	-2.61363
C	-1.981801	0.236897	-1.545682
H	-2.270923	0.084922	-2.589655
H	-2.484296	-0.536186	-0.966074
H	-2.404526	1.179431	-1.197868
Cl	-4.962108	0.0	0.0
