20

C	0.0	0.0	0.0
C	-0.56186	0.137702	-1.426953
Br	1.969517	0.0	0.0
H	-1.639296	0.298928	-1.275921
C	-0.44616	1.151953	0.892853
H	-0.068367	2.112003	0.542239
H	-0.079368	0.982364	1.908059
H	-1.54145	1.175477	0.898117
C	-0.463381	-1.325409	0.592409
H	-0.153399	-1.380695	1.637702
H	-0.036092	-2.179439	0.064752
H	-1.5573	-1.354652	0.543349
C	-0.325517	-1.042011	-2.347143
H	-0.939679	-1.87746	-2.015308
H	0.72256	-1.331476	-2.369455
H	-0.635603	-0.787638	-3.36136
N	-0.050847	1.388957	-2.076138
O	-0.596813	2.449018	-1.767992
O	0.891293	1.296613	-2.863552
Br	-3.959394	0.0	0.0
