17

C	0.0	0.0	0.0
C	-0.236268	-0.054156	-1.540404
F	1.392577	0.0	0.0
H	0.47163	-0.837647	-1.835038
C	-0.418642	1.263145	0.616291
N	-0.498504	2.32421	1.114746
C	-0.36047	-1.234391	0.802953
H	0.053917	-2.105129	0.283134
H	-1.432368	-1.339002	0.946546
H	0.150197	-1.145398	1.767552
C	0.229773	1.254153	-2.19342
H	-0.406679	2.079412	-1.88074
H	1.259929	1.475231	-1.919695
H	0.1623	1.168495	-3.277974
C	-1.490347	-0.448755	-2.190756
N	-2.163897	-0.772869	-3.101535
Br	-3.459929	0.0	0.0
