17

C	0.0	0.0	0.0
C	-0.391526	-0.176364	-1.483953
F	1.389967	0.0	0.0
H	0.061988	0.672554	-2.010359
C	-0.409122	1.34404	0.45063
N	-0.662751	2.430366	0.817142
C	-0.546411	-1.073004	0.912649
H	-1.637597	-1.004619	0.948242
H	-0.248455	-2.054972	0.539593
H	-0.144925	-0.932988	1.917725
C	-1.896751	-0.212006	-1.742763
H	-2.081842	-0.082769	-2.811534
H	-2.424553	0.577361	-1.206909
H	-2.352854	-1.144265	-1.416126
C	0.265394	-1.384886	-1.993411
N	0.766114	-2.356881	-2.422067
Br	-4.840352	0.0	0.0
