17

C	0.0	0.0	0.0
C	-0.531567	-0.089015	-1.437379
F	1.389181	0.0	0.0
H	-1.614263	0.10776	-1.355522
C	-0.377751	1.310827	0.573752
N	-0.589866	2.381676	1.006404
C	-0.483384	-1.128657	0.885076
H	-1.575358	-1.161543	0.853352
H	-0.054559	-2.070262	0.53736
H	-0.149097	-0.948478	1.908751
C	-0.313752	-1.465985	-2.069318
H	-0.575077	-1.430364	-3.128389
H	0.729751	-1.778252	-1.979045
H	-0.962637	-2.197876	-1.588293
C	0.092393	0.950119	-2.25822
N	0.604093	1.749486	-2.950518
Br	-3.807631	0.0	0.0
