17

C	0.0	0.0	0.0
C	-0.543354	-0.057404	-1.434152
F	1.389159	0.0	0.0
H	-1.61878	0.172916	-1.340755
C	-0.369889	1.301396	0.601582
N	-0.563894	2.363678	1.062845
C	-0.480171	-1.143224	0.868394
H	-1.572801	-1.163885	0.857868
H	-0.120699	-0.990835	1.887727
H	-0.071889	-2.081336	0.489404
C	-0.388277	-1.433966	-2.083767
H	-1.072317	-2.138008	-1.609488
H	-0.650765	-1.373219	-3.141387
H	0.638802	-1.797777	-2.001083
C	0.10838	0.970611	-2.247749
N	0.641856	1.757837	-2.937425
Br	-3.8032	0.0	0.0
