17

C	0.0	0.0	0.0
C	-0.535308	-0.028536	-1.439512
F	1.389311	0.0	0.0
H	-1.61483	0.181978	-1.347624
C	-0.373533	1.288179	0.6255
N	-0.569106	2.341056	1.106958
C	-0.485066	-1.161242	0.840086
H	-0.071086	-2.090871	0.446901
H	-1.577213	-1.179283	0.815851
H	-0.138269	-1.029474	1.866811
C	-0.348915	-1.383878	-2.124074
H	0.687283	-1.722985	-2.054123
H	-0.617409	-1.301639	-3.178433
H	-1.011383	-2.118583	-1.666011
C	0.103596	1.031408	-2.221456
N	0.626491	1.848485	-2.883867
Br	-3.803843	0.0	0.0
