17

C	0.0	0.0	0.0
C	-0.531239	-0.006851	-1.440444
F	1.389272	0.0	0.0
H	-1.612686	0.192208	-1.348083
C	-0.377081	1.276647	0.647063
N	-0.579998	2.32143	1.143145
C	-0.483047	-1.176725	0.820238
H	-0.056787	-2.097469	0.417987
H	-1.575229	-1.206288	0.789536
H	-0.145151	-1.055852	1.851511
C	-0.323835	-1.348843	-2.146853
H	-0.583533	-1.253	-3.20264
H	0.717002	-1.674458	-2.073012
H	-0.980045	-2.100295	-1.707241
C	0.100716	1.071137	-2.202655
N	0.616783	1.903667	-2.851115
Br	-3.802864	0.0	0.0
