14
Coordinates from ORCA-job run
  C   -0.41540896068806      0.33564228117106     -0.16609313212751
  C   0.86697847981380      0.02406609379220      0.60276839136561
  F   -0.08467721519155      1.16961163332105     -1.23555948767121
  H   1.39915441406936      0.94819194653780      0.82869897732365
  H   0.63338223310175     -0.53286447198267      1.50678729127216
  N   -1.31287471697217      0.99272087148043      0.73285079533221
  H   -2.19003826418164      1.17847032433035      0.26057964207091
  H   -0.92605980285119      1.87674877697850      1.04493304150183
  N   -0.94826525031693     -0.84923438223403     -0.76255432319672
  H   -1.62575642810478     -0.60575467544461     -1.47358033907888
  H   -1.37547264780342     -1.44129332637792     -0.06296150656208
  N   1.77195080215953     -0.82029154557414     -0.21814327549376
  O   1.77894867541810     -2.02399967587173      0.02657653492059
  O   2.42813868154721     -0.25301385012628     -1.08630260965680
