14
Coordinates from ORCA-job run
  C   -0.53150752859766      0.20796894890910      0.07235736193359
  C   0.98890006439071      0.24446851467145      0.04079633185253
  F   -0.86315565526742     -0.46920210458264      1.28461137411438
  H   1.36329576069347      0.88233995833075      0.83783178146283
  H   1.32413470267101      0.62188398688008     -0.92551966203584
  N   -1.08972626938957     -0.43998522891566     -1.05155942790488
  H   -0.68238205812039     -1.36144905198050     -1.14653053216925
  H   -2.09059495200125     -0.53783372005258     -0.92657081807909
  N   -0.98147558900061      1.55983563063677      0.14456947459792
  H   -1.90844510110718      1.66004364720835     -0.24595659690243
  H   -0.98069874487728      1.87541901742670      1.10558583897643
  N   1.63697844702627     -1.08564193580993      0.23919355680310
  O   1.13892091858758     -2.06191013474714     -0.31851664319003
  O   2.67575600499231     -1.09693752797475      0.89170796054075
