12

C	-0.430526	0.045731	-1.443289
C	0.0	0.0	0.0
Cl	-2.195315	-0.081573	-1.659846
H	1.090555	0.0	0.0
H	0.029256	-0.767483	-1.999985
H	-0.299975	-0.979592	0.386054
N	0.008755	1.299741	-2.159255
O	0.258744	1.165544	-3.353371
O	0.041007	2.342295	-1.519789
C	-0.581915	1.021711	0.858373
N	-1.079802	1.788932	1.594087
Cl	3.269953	0.0	0.0
