12

C	-0.429494	-0.047762	-1.443502
C	0.0	0.0	0.0
Cl	-2.196368	-0.148948	-1.656095
H	1.094624	0.0	0.0
H	0.012775	-0.908013	-1.940257
H	-0.303344	-0.948996	0.453684
N	0.041587	1.142427	-2.241002
O	0.365869	0.908829	-3.401944
O	0.027107	2.236876	-1.693362
C	-0.56892	1.082251	0.791002
N	-1.049411	1.892694	1.490507
Cl	3.267028	0.0	0.0
