16

C	0.0	0.0	0.0
C	-0.387083	-0.049294	-1.526958
Cl	1.765391	0.0	0.0
H	0.451833	-0.568634	-2.000825
H	-0.392612	0.84633	0.55321
N	-0.383316	-1.223322	0.781377
O	-0.60942	-1.067903	1.976603
O	-0.344481	-2.301633	0.19431
C	-0.409927	1.401764	-2.004616
H	-0.494261	1.407726	-3.092636
H	0.488624	1.955453	-1.713242
H	-1.292943	1.891242	-1.588012
N	-1.597409	-0.706768	-1.94447
H	-1.481265	-1.702193	-1.786777
H	-2.353353	-0.403247	-1.279856
H	-3.091994	0.0	0.0
