16

C	0.0	0.0	0.0
C	-0.320873	0.244236	-1.515891
Cl	1.753181	0.0	0.0
H	0.525351	0.835915	-1.876455
H	-0.35564	0.841083	0.613006
N	-0.66909	-1.170432	0.5583
O	-1.839384	-1.330584	-0.025933
O	-0.450627	-1.402602	1.774378
C	-1.552988	1.078134	-1.850469
H	-1.545933	2.035786	-1.318765
H	-1.53461	1.285733	-2.929705
H	-2.472036	0.563761	-1.572541
N	-0.238203	-1.035796	-2.219526
H	-1.039743	-1.573296	-1.904826
H	-0.33971	-0.855498	-3.212752
H	-3.017282	0.0	0.0
