16

C	0.0	0.0	0.0
C	-0.620976	-0.263046	-1.385635
Cl	1.772106	0.0	0.0
H	-1.500279	-0.865757	-1.142158
H	-0.36054	0.92002	0.446702
N	-0.356632	-1.077844	1.002193
O	-0.420449	-2.231874	0.591401
O	-0.452716	-0.727655	2.1738
C	0.274991	-0.998048	-2.366292
H	1.10946	-0.378452	-2.706887
H	0.674262	-1.915742	-1.929487
H	-0.334254	-1.249391	-3.236731
N	-1.174489	0.95017	-1.964052
H	-0.544838	1.733622	-1.824358
H	-2.025149	1.097906	-1.400003
H	-2.968864	0.0	0.0
