16

C	0.0	0.0	0.0
C	-0.447653	-0.065064	-1.500682
Cl	1.764463	0.0	0.0
H	0.370548	-0.588177	-2.007716
H	-0.384506	0.850502	0.555229
N	-0.380716	-1.214801	0.801176
O	-0.665243	-1.033477	1.980057
O	-0.300794	-2.304686	0.241221
C	-0.510247	1.380343	-1.990558
H	0.375379	1.960239	-1.711863
H	-1.401848	1.84752	-1.566485
H	-0.609116	1.37932	-3.077201
N	-1.677674	-0.728952	-1.834448
H	-1.571136	-1.72074	-1.651737
H	-2.439119	-0.39583	-1.184797
H	-3.361985	0.0	0.0
