18

C	0.0	0.0	0.0
C	-0.534327	-0.130488	-1.424688
F	1.353925	0.0	0.0
H	-1.617567	-0.254945	-1.309969
N	-0.510397	1.056192	0.796314
H	-1.534678	1.001664	0.769174
H	-0.219541	1.940381	0.397584
N	-0.311564	-1.309497	0.791213
O	-1.026039	-2.163013	0.272685
O	0.232234	-1.403878	1.884668
N	0.117194	-1.249957	-2.118193
H	-0.334875	-2.102467	-1.81218
H	-0.072605	-1.156575	-3.110503
C	-0.252161	1.155797	-2.190697
H	0.819144	1.373215	-2.201248
H	-0.589994	1.042308	-3.224135
H	-0.802556	1.997614	-1.770924
Br	-3.899775	0.0	0.0
