18

C	0.0	0.0	0.0
C	-0.507646	-0.247248	-1.425622
F	1.358332	0.0	0.0
H	-1.552433	-0.550101	-1.33226
N	-0.512759	1.147376	0.598333
H	-1.53313	1.123101	0.48882
H	-0.294148	1.137554	1.58909
N	-0.265129	-1.261129	0.920224
O	-0.169256	-1.056339	2.128803
O	-0.479029	-2.357736	0.413635
N	0.228729	-1.28072	-2.150971
H	1.219677	-1.074848	-2.09548
H	0.077155	-2.163705	-1.683296
C	-0.432455	1.052784	-2.217659
H	0.594262	1.437679	-2.233101
H	-0.741436	0.837209	-3.242539
H	-1.08318	1.818622	-1.796413
Br	-3.74912	0.0	0.0
