18

C	0.0	0.0	0.0
C	-0.448698	-0.029422	-1.461685
F	1.383712	0.0	0.0
H	0.296651	-0.669544	-1.953872
N	-0.531406	1.029271	0.755822
H	-1.411185	1.343582	0.366567
H	-0.648615	0.764551	1.723844
N	-0.258311	-1.397375	0.630796
O	0.146571	-2.36499	-0.004978
O	-0.796985	-1.442208	1.732413
N	-0.425749	1.353705	-1.935252
H	-0.73885	1.374286	-2.897584
H	0.518087	1.71989	-1.898362
C	-1.831315	-0.618463	-1.67581
H	-2.616005	-0.138126	-1.090062
H	-1.845741	-1.682406	-1.441395
H	-2.101681	-0.512677	-2.73013
Br	-4.970034	0.0	0.0
