18

C	0.0	0.0	0.0
C	-0.468019	-0.132332	-1.441652
F	1.390024	0.0	0.0
H	0.101423	-0.966835	-1.868709
N	-0.578291	1.068668	0.650807
H	-0.239528	1.222906	1.585958
H	-0.590025	1.882657	0.054024
N	-0.251292	-1.272399	0.812927
O	-0.234616	-1.148906	2.034601
O	-0.321311	-2.333963	0.203417
N	-0.120609	1.156322	-2.064052
H	0.87093	1.172637	-2.273664
H	-0.631082	1.252879	-2.932487
C	-1.959429	-0.40169	-1.56163
H	-2.573613	0.277533	-0.96948
H	-2.208769	-1.412386	-1.244485
H	-2.252573	-0.295988	-2.61147
Br	-5.337692	0.0	0.0
