18

C	0.0	0.0	0.0
C	-0.288753	0.075361	-1.524157
F	1.382895	0.0	0.0
H	0.450488	-0.618947	-1.929972
N	-0.574335	0.987646	0.786907
H	-0.432575	0.781721	1.768624
H	-1.582908	0.995896	0.607104
N	-0.254341	-1.434216	0.556059
O	-0.498903	-1.526873	1.756141
O	-0.098517	-2.376714	-0.213195
N	0.052356	1.40721	-2.024893
H	-0.648829	2.058583	-1.688882
H	0.935533	1.697029	-1.619952
C	-1.646161	-0.324281	-2.056761
H	-1.975226	-1.285602	-1.670033
H	-2.426101	0.388384	-1.800693
H	-1.552473	-0.382698	-3.144781
Br	-4.276849	0.0	0.0
