15

C	-0.357323	0.004533	-1.482717
C	0.0	0.0	0.0
Br	-2.250568	-0.42958	-1.854757
H	1.105135	0.0	0.0
H	0.220823	-0.767342	-1.995176
C	-0.093252	1.296776	-2.104157
N	0.120558	2.343149	-2.594233
C	-0.448277	-1.271451	0.696506
H	-1.530607	-1.275698	0.845982
H	-0.161251	-2.154781	0.121561
H	0.051894	-1.336079	1.666481
N	-0.572075	1.174276	0.658818
H	0.021772	1.971705	0.447738
H	-0.493633	1.033714	1.660338
Br	3.550901	0.0	0.0
