15

C	-0.486051	-0.048324	-1.453297
C	0.0	0.0	0.0
Br	0.049119	-1.674	-2.402827
H	1.099443	0.0	0.0
H	-0.017206	0.774011	-1.992147
C	-1.938593	0.075687	-1.534156
N	-3.109273	0.167674	-1.553683
C	-0.518216	-1.142277	0.855749
H	-0.195218	-2.110679	0.4712
H	-1.613967	-1.132061	0.910409
H	-0.114223	-1.031672	1.864781
N	-0.41351	1.325715	0.483154
H	0.384724	1.759945	0.935219
H	-1.162723	1.243041	1.160638
Br	3.555697	0.0	0.0
