15

C	-0.506476	0.001495	-1.455493
C	0.0	0.0	0.0
Br	0.122779	1.564375	-2.459155
H	1.095195	0.0	0.0
H	-1.598472	0.099867	-1.454354
C	-0.168616	-1.198521	-2.210824
N	0.063395	-2.170223	-2.829149
C	-0.508732	-1.256259	0.697583
H	-1.6061	-1.285765	0.718627
H	-0.147437	-1.230738	1.726166
H	-0.136608	-2.164768	0.219632
N	-0.426928	1.183632	0.736319
H	0.209843	1.942636	0.530316
H	-1.359596	1.47443	0.462796
Br	3.57364	0.0	0.0
