15

C	-0.481731	0.001265	-1.458007
C	0.0	0.0	0.0
Br	0.171404	-1.529666	-2.484325
H	1.09936	0.0	0.0
H	-0.064047	0.874327	-1.96025
C	-1.937136	0.034579	-1.55048
N	-3.109919	0.033674	-1.616019
C	-0.534287	-1.169976	0.800739
H	-0.257044	-2.120573	0.344604
H	-1.625431	-1.12099	0.887769
H	-0.095449	-1.143426	1.801307
N	-0.486438	1.281822	0.542502
H	-0.78463	1.150567	1.502762
H	0.299159	1.928285	0.563414
Br	3.585489	0.0	0.0
