15

C	-0.316229	-0.029886	-1.503357
C	0.0	0.0	0.0
Br	-2.243098	-0.330143	-1.882107
H	1.098389	0.0	0.0
H	0.200777	-0.86324	-1.982946
C	0.039783	1.219299	-2.163569
N	0.304535	2.233693	-2.695272
C	-0.464947	-1.265236	0.699585
H	-0.153674	-2.159421	0.15206
H	-0.004944	-1.287025	1.688002
H	-1.552255	-1.283618	0.816882
N	-0.470454	1.17887	0.699564
H	-1.432716	1.38643	0.454811
H	0.108793	1.974321	0.460659
Br	3.529964	0.0	0.0
