15

C	-0.453198	-0.055779	-1.477094
C	0.0	0.0	0.0
Br	-0.015358	1.578075	-2.471662
H	1.093204	0.0	0.0
H	-1.545861	-0.128353	-1.536632
C	0.131381	-1.188585	-2.181027
N	0.598653	-2.136441	-2.695535
C	-0.494367	-1.264317	0.693631
H	-1.591205	-1.306868	0.708195
H	-0.109448	-2.165751	0.213054
H	-0.136484	-1.242429	1.723048
N	-0.468627	1.174179	0.712283
H	-1.429468	1.390558	0.467422
H	0.109233	1.967127	0.463683
Br	3.620368	0.0	0.0
