19

C	0.0	0.0	0.0
C	-0.27132	-0.149504	-1.538286
Br	1.955977	0.0	0.0
H	0.316223	-1.005295	-1.861571
C	-0.640166	1.130141	0.735412
H	-0.323789	1.122128	1.778225
H	-1.734912	0.903524	0.62761
H	-0.376695	2.073556	0.263009
N	-0.390474	-1.325992	0.657688
O	-0.525949	-1.317725	1.872689
O	-0.471909	-2.318147	-0.05921
N	0.367875	0.996839	-2.28113
O	-0.00276	2.142247	-2.035265
O	1.172591	0.701213	-3.165998
C	-1.673311	-0.268096	-2.10234
H	-2.146558	-1.160894	-1.709593
H	-2.318287	0.539128	-1.775523
H	-1.561449	-0.330537	-3.192462
F	-3.041763	0.0	0.0
