19

C	0.0	0.0	0.0
C	-0.339146	-0.09219	-1.512769
Br	1.968519	0.0	0.0
H	0.425956	0.534842	-1.980014
C	-0.331097	1.335434	0.657371
H	0.053194	2.138529	0.03035
H	0.144269	1.378629	1.636121
H	-1.415814	1.369201	0.725725
N	-0.435709	-1.145492	0.889109
O	-0.504526	-2.268319	0.405847
O	-0.568228	-0.890656	2.078466
N	-1.590138	0.642804	-1.974987
O	-2.406436	0.033415	-2.652448
O	-1.566094	1.86504	-1.849064
C	-0.298735	-1.459968	-2.164927
H	-1.173002	-2.034561	-1.878211
H	0.602198	-1.993946	-1.865686
H	-0.294614	-1.328286	-3.249225
F	-2.423758	0.0	0.0
