19

C	0.0	0.0	0.0
C	-0.357052	-0.073213	-1.509897
Br	1.945552	0.0	0.0
H	0.400706	0.562333	-1.977428
C	-0.358213	1.317181	0.678302
H	0.105228	1.349	1.663639
H	-1.445452	1.328075	0.73462
H	0.018221	2.138441	0.070561
N	-0.440982	-1.165184	0.868976
O	-0.656331	-0.923707	2.047786
O	-0.430689	-2.288223	0.377793
N	-1.616382	0.661014	-1.951213
O	-2.428014	0.058042	-2.640256
O	-1.595318	1.882886	-1.812836
C	-0.318015	-1.433094	-2.180081
H	0.588604	-1.966767	-1.899779
H	-0.330601	-1.287092	-3.26189
H	-1.187045	-2.013478	-1.889152
F	-2.467027	0.0	0.0
