19

C	0.0	0.0	0.0
C	-0.273082	0.009373	-1.547155
Br	1.946649	0.0	0.0
H	0.301783	-0.819395	-1.952536
C	-0.632338	1.055598	0.847082
H	-0.356022	2.039484	0.473286
H	-1.728371	0.850371	0.718963
H	-0.312496	0.939015	1.882524
N	-0.400017	-1.382126	0.519214
O	-0.53755	-1.495689	1.728567
O	-0.485056	-2.29714	-0.293811
N	0.384276	1.213188	-2.174389
O	1.174356	0.995063	-3.094819
O	0.04025	2.334674	-1.807396
C	-1.674172	-0.029069	-2.122338
H	-2.193583	-0.910696	-1.765651
H	-1.558196	-0.040537	-3.214408
H	-2.281342	0.795739	-1.769077
F	-3.025738	0.0	0.0
