14

C	-0.530141	-0.004235	-1.436733
C	0.0	0.0	0.0
Cl	0.088786	-1.367039	-2.358227
H	1.090548	0.0	0.0
H	-0.357036	0.92678	0.459876
C	-1.991973	-0.030993	-1.471616
N	-3.166328	-0.08294	-1.4675
N	-0.108318	1.325605	-2.094178
O	-0.654627	2.308338	-1.598898
O	0.707698	1.324149	-2.998321
N	-0.466107	-1.1999	0.67634
H	-1.087245	-0.973059	1.440069
H	0.350939	-1.669524	1.05227
H	2.829869	0.0	0.0
