14

C	-0.531257	0.04708	-1.425932
C	0.0	0.0	0.0
Cl	0.136927	1.407706	-2.322949
H	1.097173	0.0	0.0
H	-0.357168	-0.934759	0.442482
C	-0.285019	-1.191881	-2.161749
N	-0.119645	-2.179755	-2.776813
N	-2.070984	0.190328	-1.346361
O	-2.601484	1.230093	-1.690476
O	-2.633943	-0.789551	-0.864243
N	-0.492045	1.172489	0.72204
H	-0.874117	0.887477	1.615777
H	0.312669	1.761234	0.909881
H	2.813295	0.0	0.0
