14

C	-0.515537	-0.047988	-1.431187
C	0.0	0.0	0.0
Cl	0.170001	1.239346	-2.415486
H	1.097137	0.0	0.0
H	-0.352828	-0.90876	0.4965
C	-0.264876	-1.338944	-2.068694
N	-0.079215	-2.375905	-2.588685
N	-2.053502	0.107337	-1.378057
O	-2.62527	-0.825434	-0.818622
O	-2.580117	1.116944	-1.813366
N	-0.477874	1.220406	0.636664
H	0.341136	1.743379	0.928295
H	-1.018495	1.003257	1.462023
H	2.805093	0.0	0.0
