14

C	-0.527594	-0.005413	-1.434303
C	0.0	0.0	0.0
Cl	0.037805	-1.409338	-2.330044
H	1.097808	0.0	0.0
H	-0.35719	0.927722	0.456618
C	-1.987972	0.032932	-1.488541
N	-3.162922	0.058767	-1.510845
N	-0.035061	1.293394	-2.107382
O	-0.558127	2.308933	-1.650896
O	0.813924	1.236978	-2.978377
N	-0.49621	-1.186591	0.691812
H	-0.911526	-0.921118	1.57307
H	0.317708	-1.753703	0.903661
H	2.815931	0.0	0.0
