14

C	-0.450953	-0.039278	-1.441395
C	0.0	0.0	0.0
Cl	-2.215498	-0.341178	-1.645819
H	1.101989	0.0	0.0
H	-0.329788	0.960474	0.407769
C	-0.136987	1.211875	-2.125883
N	0.08023	2.254559	-2.623079
N	0.236806	-1.173982	-2.215713
O	0.283511	-1.044428	-3.435957
O	0.657871	-2.116236	-1.565566
N	-0.507073	-1.132185	0.762648
H	-0.950426	-0.802041	1.609178
H	0.295605	-1.69459	1.023876
H	2.784336	0.0	0.0
