14

C	-0.577406	0.030581	-1.398961
C	0.0	0.0	0.0
Cl	0.081764	-1.296657	-2.391554
H	1.091581	0.0	0.0
H	-0.316502	-0.949717	0.446019
C	-2.03795	-0.060253	-1.400623
N	-3.202915	-0.203295	-1.327646
N	-0.219305	1.339669	-2.113724
O	-0.906556	1.616382	-3.092691
O	0.730992	1.971614	-1.687464
N	-0.523636	1.163888	0.713142
H	-1.031529	0.882432	1.54043
H	0.276378	1.718127	1.005391
H	2.851652	0.0	0.0
