14

C	-0.576678	-0.038074	-1.402252
C	0.0	0.0	0.0
Cl	-2.371928	0.068913	-1.383545
H	1.093602	0.0	0.0
H	-0.320599	0.95415	0.438149
C	-0.082594	1.055894	-2.233857
N	0.239605	1.982552	-2.880353
N	-0.178712	-1.357208	-2.07928
O	0.944468	-1.347855	-2.567303
O	-0.956781	-2.295597	-2.037349
N	-0.404861	-1.178913	0.739399
H	-1.151022	-0.992002	1.391172
H	0.411688	-1.50893	1.243089
H	2.778385	0.0	0.0
