18

C	0.0	0.0	0.0
C	-0.411712	-0.111302	-1.497285
Cl	1.784008	0.0	0.0
H	0.187288	-0.933803	-1.905754
C	-0.608258	1.148782	0.747193
H	-0.219824	1.201481	1.762799
H	-0.390209	2.063837	0.20039
H	-1.691968	0.995577	0.784038
N	-0.336422	-1.315772	0.710684
O	-0.401625	-2.331066	0.023018
O	-0.454256	-1.281166	1.929679
N	-0.098915	1.177556	-2.118236
H	-0.637213	1.195588	-2.976015
H	0.885965	1.22849	-2.347891
N	-1.783424	-0.406596	-1.773998
H	-2.005302	-1.36287	-1.534815
H	-2.460984	0.162506	-1.266269
Cl	-4.38955	0.0	0.0
