16
Coordinates from ORCA-job run
  C   -0.43210624830399     -0.07342867194707      0.21819250881540
  C   1.05364404516003      0.27162917981894      0.28996592560035
  H   -0.66593830357740     -0.70716337797501      1.08665029027706
  H   1.31853116223121      0.85416375271188     -0.60048889835154
  H   1.22476167806980      0.92374381168313      1.16186812953786
  C   -0.75285023618993     -0.85585515236618     -1.05029473255231
  H   -0.56421143378530     -0.23476842822728     -1.93278722153369
  H   -1.80402056186104     -1.15720271191028     -1.07221736588866
  H   -0.12684635484061     -1.74478268425437     -1.12600862730189
  C   -1.27429158447279      1.19538894206185      0.31619693695268
  H   -2.34223189222628      0.96329098373326      0.29019793715059
  H   -1.07205032653828      1.74412163110486      1.24062769916308
  H   -1.05946512572588      1.86292344554123     -0.52475403521635
  N   1.87723844565273     -0.93844207130376      0.29738568830205
  H   2.85607719182689     -0.69020621366291      0.22015308904890
  H   1.76175954458083     -1.41341243500831      1.18531267599646
