16
Coordinates from ORCA-job run
  C   -0.44944051238202     -0.23238953148282      0.20055172682379
  C   1.06567016270563     -0.39375758100483      0.11359532626201
  H   -0.74759411609395     -0.57842652784813      1.19764244446261
  H   1.31263134303338     -1.44882914529216      0.27176286868931
  H   1.38663540316146     -0.14169241406220     -0.91190529462603
  C   -1.13340448515621     -1.09725551974709     -0.85436662897661
  H   -2.22172050023169     -1.03066576627471     -0.77462214067870
  H   -0.85397548649371     -0.77372374989071     -1.86243785752589
  H   -0.85412772446548     -2.14985017519374     -0.75038870304259
  C   -0.85810179881254      1.23036742823951      0.05757534009522
  H   -0.45115910031675      1.83753969079885      0.86902443527980
  H   -1.94593183420890      1.33814772856275      0.08003873461796
  H   -0.50407443649060      1.63922250091064     -0.89597549953146
  N   1.74845749522915      0.38679855967833      1.14799459069624
  H   1.80534402363185      1.35634925146093      0.86198271607458
  H   2.70079156689039      0.05816525114536      1.24952794137975
