16
Coordinates from ORCA-job run
  C   -0.55470187799986     -0.22241306480536      0.34927468492691
  C   0.92242886655322     -0.36916354101443      0.71869555488099
  H   -1.13170994749570     -0.61900487098598      1.19586700830253
  H   1.15529671996541     -1.43488364075064      0.81510675140828
  H   1.08757645770889      0.08429059684993      1.70940339243691
  C   -0.89370880952735     -1.03557620346133     -0.89632123394037
  H   -1.94695630195381     -0.92069229544241     -1.16768261357944
  H   -0.70387295286112     -2.10072745999597     -0.73331988004600
  H   -0.27781600382859     -0.70716881688972     -1.73500630127113
  C   -0.93010071936697      1.24643709184322      0.16422175049251
  H   -0.65265383678330      1.84475168567489      1.03836984826941
  H   -0.43023853120873      1.66401651461024     -0.71390804742649
  H   -2.00689348728387      1.35868498206249      0.01305046419470
  N   1.78835405451561      0.18957685534488     -0.32360905402382
  H   1.84818937710820      1.19430804218685     -0.21516389324029
  H   2.72780699245796     -0.17243587522668     -0.21997843138469
