16
Coordinates from ORCA-job run
  C   -0.21319141187169      0.38994281823508     -0.15756408100658
  C   0.93090586458831     -0.05425096493172      0.76344251068070
  H   0.14732316469906      1.25127757159533     -0.73877799652894
  H   0.58552669042110     -0.90002244750191      1.37064477455875
  H   1.15456484714446      0.75728635484248      1.46489797656465
  C   -1.40985930103572      0.84009878372696      0.67659353847727
  H   -1.80010640872436      0.00586330937701      1.26867027557347
  H   -1.13469439138529      1.64131813378919      1.36836085031432
  H   -2.22221850416598      1.20733487322821      0.04377951377326
  C   -0.61507794383812     -0.71317114513335     -1.13142907174028
  H   0.21261656292582     -1.00442893986397     -1.78238079033037
  H   -1.43812396207001     -0.39078715515229     -1.77470950520808
  H   -0.94732491091616     -1.60275028092338     -0.58515283574701
  N   2.18626067780382     -0.44795526940974      0.13068738488175
  H   2.05074246266571     -1.27300898345401     -0.43879586894029
  H   2.51265656375903      0.29225334157612     -0.47926667532263
