16
Coordinates from ORCA-job run
  C   -0.17974192346853     -0.14367133101199     -0.41160907376379
  C   0.95636291510959     -0.46157158066206      0.56957522669872
  H   0.23832449994996     -0.19541658649132     -1.42758882659512
  H   1.29584589138949     -1.48875869508736      0.39552035024897
  H   0.55619371730206     -0.43808969480361      1.59066439130877
  C   -0.73944918855965      1.25831202610597     -0.19260745149460
  H   -1.55556090994393      1.47031311153782     -0.88842686448028
  H   -1.13397261296605      1.35765057648600      0.82456387075619
  H   0.02135113115856      2.02882705265978     -0.33799616456506
  C   -1.28194873555655     -1.19305356282943     -0.29151495144764
  H   -2.08230893210364     -1.01606533143267     -1.01493870421277
  H   -0.89280633214298     -2.20100501616113     -0.46125711512687
  H   -1.72623093718000     -1.16972876506693      0.70891613926984
  N   2.13247548441941      0.40266946951507      0.53585165179949
  H   1.88563169996482      1.34519582879105      0.80806534593215
  H   2.50283423262746      0.44539249845080     -0.40621782432801
