16
Coordinates from ORCA-job run
  C   -0.51907879715486     -0.20822529704588      0.36853681443043
  C   0.93523457195714     -0.34520965508126      0.84832713889502
  H   -1.14596786082008     -0.62816469710034      1.16752169684024
  H   1.04313635146511      0.17929866992745      1.80435425927776
  H   1.14261707874541     -1.40185312289993      1.05138732090523
  C   -0.77374984725632     -1.01420581206341     -0.90273451700122
  H   -0.20711678167955     -0.60965955282473     -1.74669239328873
  H   -1.83056101886813     -0.98707070094105     -1.18114859692830
  H   -0.48810781735411     -2.06256764824122     -0.77403667477938
  C   -0.91642547766202      1.25330081000137      0.17709518255511
  H   -0.73369147896840      1.83814658480598      1.08361648974591
  H   -1.97719152465375      1.34372905053623     -0.07130018309593
  H   -0.35307709688527      1.71152827347060     -0.64123165197766
  N   1.98775685652887      0.14293210521639     -0.03764872720747
  H   1.87126117479432      1.13081991489842     -0.22185687376489
  H   1.96396166781163     -0.34379892265864     -0.92418928460611
