16

C	0.0	0.0	0.0
C	-0.443557	0.229002	-1.478311
F	1.377536	0.0	0.0
H	-1.279463	-0.43431	-1.663997
C	-0.45427	1.06924	0.897369
N	-0.539148	1.982115	1.63439
C	-0.428663	-1.315234	0.500905
N	-0.52106	-2.407925	0.923926
N	0.694747	-0.249514	-2.346491
O	1.415903	0.575401	-2.904557
O	0.82683	-1.469492	-2.439448
C	-0.809994	1.658709	-1.795579
H	-1.032384	1.761582	-2.860036
H	-1.70386	1.862511	-1.210262
H	-0.006872	2.353178	-1.543805
F	-2.320778	0.0	0.0
