16

C	0.0	0.0	0.0
C	-0.438144	0.203165	-1.483213
F	1.37763	0.0	0.0
H	-1.289489	-0.445244	-1.653216
C	-0.456062	1.084755	0.87715
N	-0.542528	2.008118	1.600915
C	-0.429576	-1.306267	0.524533
N	-0.524474	-2.39176	0.965631
N	0.690012	-0.319894	-2.338067
O	1.428293	0.477407	-2.915053
O	0.797668	-1.544522	-2.399857
C	-0.769705	1.633962	-1.83077
H	-1.666341	1.86933	-1.261228
H	-0.977171	1.722738	-2.899109
H	0.04376	2.315928	-1.579765
F	-2.320422	0.0	0.0
