16

C	0.0	0.0	0.0
C	-0.213474	0.000395	-1.566219
F	1.377635	0.0	0.0
H	0.163164	-0.976812	-1.878381
C	-0.475903	1.177299	0.729696
N	-0.57522	2.150173	1.383924
C	-0.487726	-1.2493	0.588157
N	-0.561548	-2.329371	1.050901
N	0.813071	0.955121	-2.130049
O	0.725985	2.132963	-1.794421
O	1.627756	0.507498	-2.936871
C	-1.501467	0.334374	-2.287942
H	-2.264683	-0.382088	-2.011183
H	-1.858357	1.317494	-1.99349
H	-1.282897	0.310008	-3.363579
F	-2.291667	0.0	0.0
