16

C	0.0	0.0	0.0
C	-0.45541	-0.207227	-1.461179
F	1.372805	0.0	0.0
H	-1.520764	-0.479295	-1.34166
C	-0.464299	1.302466	0.504537
N	-0.596078	2.388144	0.936867
C	-0.452263	-1.048769	0.931831
N	-0.591417	-1.857437	1.773506
N	0.288772	-1.363352	-2.051384
O	0.505954	-1.354612	-3.263156
O	0.561636	-2.306911	-1.31257
C	-0.285354	1.044687	-2.291253
H	0.719276	1.46413	-2.192235
H	-1.01729	1.771932	-1.94483
H	-0.472337	0.828333	-3.341382
F	-2.42634	0.0	0.0
