16

C	0.0	0.0	0.0
C	-0.434247	-0.225119	-1.480847
F	1.37786	0.0	0.0
H	-1.295107	-0.882758	-1.462034
C	-0.455932	1.289621	0.531365
N	-0.533882	2.381252	0.961815
C	-0.430676	-1.102007	0.875242
N	-0.525503	-2.012716	1.612752
N	0.68614	-0.985802	-2.144569
O	0.778078	-2.176988	-1.849251
O	1.4329	-0.398411	-2.92554
C	-0.745134	1.05214	-2.221432
H	-0.938916	0.83939	-3.274504
H	-1.645937	1.444214	-1.753003
H	0.071177	1.772831	-2.159715
F	-2.320122	0.0	0.0
