16

C	0.0	0.0	0.0
C	-0.448972	-0.235298	-1.459137
F	1.372585	0.0	0.0
H	-1.493744	-0.563482	-1.35503
C	-0.455517	1.309821	0.491006
N	-0.537252	2.409737	0.897659
C	-0.445224	-1.039228	0.946282
N	-0.56927	-1.833133	1.804457
N	0.372755	-1.356699	-2.027969
O	0.773054	-1.268667	-3.189319
O	0.5419	-2.34435	-1.313148
C	-0.34215	1.016323	-2.299259
H	-1.077051	1.72753	-1.922247
H	-0.567077	0.797181	-3.341318
H	0.657042	1.456363	-2.241958
F	-2.409362	0.0	0.0
