16
Coordinates from ORCA-job run
  C   0.89930534633220     -0.35584598836993     -0.33071132471063
  C   -0.61345465903898     -0.15103244601259     -0.30177524395690
  F   1.18909836085551     -1.45852072452677     -1.05811627088195
  H   -0.93627751108395     -0.00895816276773     -1.33576660653195
  C   1.55861752236213     -0.40936264771374      0.97144106321914
  N   2.11038115670519     -0.43722177212738      2.00841596549584
  N   1.46541963189431      0.85636274797072     -1.10015863373567
  O   1.50837908145610      0.73381626742888     -2.31359067062289
  O   1.75985178602771      1.83507617185610     -0.42688122107322
  C   -1.08259613735866      0.95671447379413      0.62132858723124
  H   -0.67623832501147      1.91891889748468      0.30978177745134
  H   -2.17183479690849      1.01306727601511      0.58509890578228
  H   -0.76870062905888      0.75603334349163      1.64697385145735
  N   -1.24830953152246     -1.44377288198209      0.12873868598144
  O   -2.21503049479589     -1.81856553199600     -0.52548291088388
  O   -0.77761080085439     -1.98770902254503      1.12270404577848
