16
Coordinates from ORCA-job run
  C   0.90373987044313     -0.33164217928421     -0.34393235163414
  C   -0.61258214509508     -0.15795943713830     -0.29985040696658
  F   1.20988506624095     -1.41476281377097     -1.09338379191445
  H   -0.94646303096026     -0.00368219060230     -1.32859198532789
  C   1.57421988999231     -0.39508778345135      0.95202399695693
  N   2.13398451469214     -0.43028071566587      1.98450693634021
  N   1.43896533484123      0.90564010258671     -1.09540697233084
  O   1.71964627768223      1.87759576825117     -0.40671578521914
  O   1.47392879476807      0.80610498258192     -2.31118266061692
  C   -1.09675409818113      0.92336812204759      0.64652903992526
  H   -2.18705403834696      0.96020145052578      0.61723621080883
  H   -0.77271017548278      0.71008972909597      1.66652593611942
  H   -0.71015172487341      1.89852803438035      0.35048848522721
  N   -1.21825986109748     -1.47085156676358      0.11148664216550
  O   -0.72762339170045     -2.02466101153984      1.09027981376624
  O   -2.18377128292251     -1.85160049125307     -0.54101310729963
