16
Coordinates from ORCA-job run
  C   0.88682576078754      0.11126183837263      0.28769469635581
  C   -0.54271252833718      0.07105370999359     -0.24277043280607
  F   1.02447278745978     -0.55786772397811      1.44819459636934
  H   -0.60111089594449      0.70107746809336     -1.13127382351254
  C   1.29719312130916      1.50973926956752      0.46581879635577
  N   1.59330676412626      2.63762487948790      0.61132864250925
  N   1.86333613164269     -0.48924454411255     -0.74285641615611
  O   1.67082944957748     -0.11034711919849     -1.88996949322085
  O   2.73085117932019     -1.22684202101127     -0.31946633011333
  C   -1.54919977228541      0.49481807247125      0.81417987339238
  H   -2.54926282384823      0.47489405322297      0.38316724361174
  H   -1.33694436395234      1.50992224031391      1.15413372915312
  H   -1.51112861584426     -0.18109681077872      1.66910288583646
  N   -0.89469928240785     -1.31338105503398     -0.72158881776128
  O   -0.11669763345041     -2.23040733646890     -0.47479905594786
  O   -1.96505927815292     -1.40320492094111     -1.30989609406584
