16
Coordinates from ORCA-job run
  C   0.88301690689468      0.05127911864918      0.31575215329927
  C   -0.53334147054881      0.11355502554910     -0.24669844811522
  F   0.96783556741156     -0.72460792584531      1.41313230220847
  H   -0.54760376132727      0.82375743903135     -1.07445922540891
  C   1.33886709172165      1.41132490201302      0.62932200766219
  N   1.67005048249142      2.50980691488891      0.88363624572532
  N   1.86252854558612     -0.49064578175923     -0.74431730834018
  O   2.69327014310280     -1.29478352073192     -0.37125818663268
  O   1.71089044639844     -0.00464858329253     -1.85658608965746
  C   -1.55009070018887      0.47740062214097      0.82297835769320
  H   -1.55669794950644     -0.27366715556642      1.61363790370345
  H   -1.31075627544888      1.44944307959055      1.25781368821348
  H   -2.53921465354408      0.53352128926868      0.37039600835352
  N   -0.92255873574782     -1.20702500658422     -0.85841059176622
  O   -0.18633574772599     -2.17253936486326     -0.67676258072132
  O   -1.97885988956850     -1.20117105248887     -1.47817623621691
