16
Coordinates from ORCA-job run
  C   0.81827867237903     -0.20094847919962     -0.61169666469358
  C   -0.66489679171407     -0.31228354868837     -0.23236513301405
  F   0.87727017947043      0.18863282371135     -1.90786214391284
  H   -1.08866531076523     -1.03553418801202     -0.93349857737621
  C   1.61469096952034     -1.41300978856632     -0.42781648395189
  N   2.29278010077434     -2.36994137201905     -0.35375444556424
  N   1.45147640360638      0.90550216924522      0.24097211690021
  O   1.67238714329895      1.97307283267993     -0.30391465043787
  O   1.61864297372511      0.59542726150120      1.41309983942012
  C   -1.37409165715906      1.02247710499759     -0.29224325224224
  H   -1.20984722622744      1.48324240184586     -1.26685998108316
  H   -1.02127933729571      1.69329335257966      0.48968476037322
  H   -2.44452022434647      0.87159949716490     -0.14994455020973
  N   -0.80948226849912     -0.96606472287530      1.12074015139637
  O   -0.60759566580056     -2.17735210227576      1.14543991304392
  O   -1.12314796096693     -0.25811324208927      2.07101910135196
