16
Coordinates from ORCA-job run
  C   0.89853145260432      0.13946282286553      0.23566083859080
  C   -0.56029382705210      0.05793309702767     -0.20259660094784
  F   1.14765798867473     -0.59864177168024      1.33427371121088
  H   -0.71011517792971      0.74099425453138     -1.03975822064651
  C   1.24970464511182      1.54265776372333      0.48792548413187
  N   1.49579939833319      2.67166769668309      0.70223682330023
  N   1.83041263202536     -0.33590461152635     -0.89600689363430
  O   1.54567317059736      0.11627098841673     -1.99656038549942
  O   2.75399511156567     -1.06153292553867     -0.58590588197976
  C   -1.51160223206889      0.35599757046006      0.94467529856111
  H   -1.38673015376848     -0.37665355208773      1.74254380248391
  H   -1.32206626628435      1.35312300118605      1.34532323224529
  H   -2.53650206575074      0.31791369780035      0.57842383443495
  N   -0.87619545591725     -1.30889756577410     -0.75235144058579
  O   -0.03820536249882     -2.19642830520865     -0.62313770988623
  O   -1.97906385764210     -1.41696216087845     -1.27374589177919
