16

C	-0.543879	0.03589	-1.402762
C	0.0	0.0	0.0
Cl	0.15423	1.352146	-2.37352
H	1.089859	0.0	0.0
H	-0.352255	-0.943353	0.440243
N	-0.074479	-1.304413	-2.069287
O	0.970798	-1.359481	-2.691466
O	-0.823592	-2.259016	-1.847497
N	-1.96414	0.143351	-1.47347
H	-2.362096	-0.623461	-0.945761
H	-2.282221	0.078758	-2.433783
C	-0.464093	1.186628	0.834749
H	-0.138551	2.118208	0.367077
H	0.031338	1.128648	1.807218
H	-1.547023	1.235467	0.983342
F	2.643904	0.0	0.0
