16

C	-0.09217	-0.042037	-1.529026
C	0.0	0.0	0.0
Cl	-0.078912	-1.735421	-2.125847
H	1.092344	0.0	0.0
H	-0.316207	1.014897	0.277708
N	-1.427487	0.56703	-1.976258
O	-2.438774	-0.124635	-1.921038
O	-1.41966	1.769262	-2.243566
N	0.986514	0.661334	-2.147
H	0.801376	1.653607	-2.03797
H	1.814493	0.439203	-1.549607
C	-0.704553	-1.059517	0.817202
H	-0.604946	-0.821172	1.878323
H	-1.768571	-1.130136	0.582322
H	-0.250284	-2.038248	0.658378
F	2.713568	0.0	0.0
