16

C	-0.546927	-0.060077	-1.405313
C	0.0	0.0	0.0
Cl	0.0902	1.265765	-2.394895
H	1.094991	0.0	0.0
H	-0.354141	-0.911602	0.497612
N	-0.091321	-1.397207	-2.014465
O	-0.645216	-2.372253	-1.505961
O	0.73424	-1.437178	-2.910424
N	-1.990468	-0.079122	-1.589345
H	-2.340636	0.839926	-1.34868
H	-2.362233	-0.744016	-0.918897
C	-0.468405	1.230674	0.763864
H	-0.03099	1.196611	1.764352
H	-0.093753	2.139087	0.287429
H	-1.558207	1.312822	0.872704
F	2.643903	0.0	0.0
