16

C	-0.409983	-0.008866	-1.42302
C	0.0	0.0	0.0
Cl	-2.377613	0.138987	-1.55207
H	1.093548	0.0	0.0
H	-0.378664	0.908134	0.467008
N	-0.064441	1.293256	-2.14966
O	0.00716	2.317275	-1.485951
O	0.080863	1.217831	-3.366705
N	0.052048	-1.058253	-2.169772
H	0.104503	-1.928955	-1.669648
H	-0.297591	-1.113651	-3.111638
C	-0.438523	-1.250718	0.752325
H	0.168551	-2.110527	0.450064
H	-1.49905	-1.490804	0.627426
H	-0.237622	-1.111788	1.817028
F	2.614859	0.0	0.0
