16

C	-0.370464	-0.017512	-1.429379
C	0.0	0.0	0.0
Cl	-2.298415	0.442301	-1.624135
H	1.09454	0.0	0.0
H	-0.365173	0.924409	0.446956
N	0.214309	1.1688	-2.192228
O	0.452525	0.996946	-3.386258
O	0.365598	2.212778	-1.578985
N	-0.086161	-1.167635	-2.125507
H	-0.281756	-1.103148	-3.11267
H	-0.4674	-1.99204	-1.69176
C	-0.481558	-1.232962	0.747282
H	-1.55119	-1.438071	0.615385
H	0.101782	-2.106285	0.44098
H	-0.289157	-1.102464	1.814478
F	2.600551	0.0	0.0
