16

C	-0.462912	0.012939	-1.425183
C	0.0	0.0	0.0
Cl	0.269145	1.494799	-2.221686
H	1.093894	0.0	0.0
H	-0.30748	0.971845	0.408805
N	0.082551	-1.158918	-2.255208
O	-0.240923	-1.172217	-3.442889
O	0.746128	-2.014049	-1.690944
N	-1.867902	-0.056304	-1.622126
H	-2.314424	0.638718	-1.038513
H	-2.093973	0.114472	-2.593985
C	-0.56742	-1.129773	0.852573
H	-0.10864	-2.079062	0.57874
H	-1.65613	-1.232702	0.785058
H	-0.306102	-0.933903	1.896221
F	2.63738	0.0	0.0
