16

C	-0.04352	0.055837	-1.520413
C	0.0	0.0	0.0
Cl	-0.231423	-1.746903	-2.185089
H	1.095146	0.0	0.0
H	-0.452638	-0.907494	0.390563
N	-1.315458	0.646308	-2.140417
O	-2.373033	0.445674	-1.551983
O	-1.198746	1.273667	-3.190597
N	1.072616	0.698209	-1.97713
H	1.189099	0.715975	-2.978143
H	1.918424	0.464397	-1.38093
C	-0.501569	1.271547	0.6695
H	-0.055801	2.144593	0.186014
H	-1.590245	1.367927	0.645267
H	-0.173103	1.276422	1.71272
F	2.75688	0.0	0.0
