16

C	-0.12788	-0.103126	-1.52265
C	0.0	0.0	0.0
Cl	-1.584521	-1.018464	-2.067704
H	1.095702	0.0	0.0
H	-0.319306	-0.968056	0.400116
N	-0.297867	1.339296	-2.051098
O	-1.426097	1.813089	-2.159721
O	0.746964	1.956822	-2.215802
N	1.044596	-0.64724	-2.135352
H	0.953558	-1.654318	-2.157428
H	1.846498	-0.413065	-1.500581
C	-0.685434	1.154234	0.700505
H	-1.766624	1.174303	0.530269
H	-0.505833	1.079358	1.776652
H	-0.267878	2.108584	0.371587
F	2.725165	0.0	0.0
