16

C	-0.06866	-0.184961	-1.512534
C	0.0	0.0	0.0
Cl	-0.481632	-2.028398	-1.959111
H	1.094547	0.0	0.0
H	-0.347899	1.017494	0.201281
N	-1.281252	0.460606	-2.202512
O	-2.28455	0.653923	-1.522111
O	-1.171603	0.741825	-3.392301
N	1.092035	0.267863	-2.064675
H	1.200985	0.12584	-3.055639
H	1.932334	0.143235	-1.425552
C	-0.670947	-1.01017	0.903354
H	-0.580779	-0.673018	1.940378
H	-1.73171	-1.128919	0.669832
H	-0.186222	-1.98319	0.826768
F	2.7714	0.0	0.0
