15
Coordinates from ORCA-job run
  C   -0.53391929177899      0.04046636646864     -0.55060154544659
  C   0.92444880951609     -0.16193439497587     -0.13114431434123
  H   -0.64347439659064     -0.34205048163275     -1.56647070100717
  H   1.55878865152306      0.40724474688998     -0.81440641781382
  N   -0.76020403855574      1.55556780242237     -0.67573769022544
  O   -0.09367695993843      2.12555380120981     -1.53445725127585
  O   -1.56879122237035      2.07941589351752      0.08384870929460
  N   -1.41751522758201     -0.60976577429106      0.34330963664733
  H   -2.35302590564010     -0.67133073620224     -0.03461672342624
  H   -1.46107289542695     -0.12296042889961      1.23136892963155
  N   1.22438034780584     -1.57451892411336     -0.26600666209414
  H   0.60891044431537     -2.10134256787219      0.34258501904206
  H   2.18464678402720     -1.76113988846474     -0.00489142624499
  C   1.10436216514088      0.37911513414345      1.23510915718580
  N   1.22914273555476      0.75667945180005      2.34111128007414
