15
Coordinates from ORCA-job run
  C   -0.38278954632060      0.01007042490310     -0.57738396897228
  C   0.96684039755173     -0.13608070008835      0.15770856138506
  H   -0.27558576459178     -0.40333822212992     -1.58275685317906
  H   1.71873450334375      0.43599983727151     -0.39206702064991
  N   -0.60656141015490      1.51009420063803     -0.81591543738499
  O   -1.54252560749372      2.05195668826405     -0.23709203893936
  O   0.20237636883583      2.05419766805208     -1.56312601270310
  N   -1.42267534607039     -0.63579636537139      0.13018335164991
  H   -1.63382291462444     -0.15018640654081      0.99454167296073
  H   -2.26950295012612     -0.69701960135528     -0.41854911954978
  N   1.41356527584106     -1.50873153944307      0.28467704453046
  H   0.63311341062818     -2.08332920863592      0.58261250203449
  H   1.73973257742827     -1.84678106799807     -0.61236286559571
  C   0.82222029949416      0.46406025400450      1.49399916314227
  N   0.63988070625900      0.93588403842953      2.55353102127128
