17
Coordinates from ORCA-job run
  C   -0.85178036740878     -0.25738881557730     -0.35558431776643
  C   0.62983893487868     -0.50548780114007     -0.04196957774250
  Br  -1.61948130213487     -1.69408344595871     -1.42647755960000
  H   0.74842272729427     -1.55260728420425      0.22956124493625
  N   -1.08935769000188      0.96198212675778     -0.98324927458912
  H   -0.59046596885610      1.73336492378505     -0.56229551807572
  H   -2.07452610531608      1.17044026375374     -1.06984937627986
  N   -1.57058754493513     -0.40581303324152      1.03592762249970
  O   -1.32243670994543     -1.41056368337003      1.68791374993805
  O   -2.30610426434315      0.51779932319599      1.36207832056640
  C   1.18704532030451      0.40493877302429      1.04066505574121
  H   0.71119522021840      0.18427589697701      1.99628134692968
  H   1.06317817431545      1.46085523694810      0.80371804868345
  H   2.25677543071632      0.21695602190920      1.14784505046595
  N   1.41414160662206     -0.31962984151485     -1.30992561282611
  O   1.75382177009319      0.82644498240934     -1.59356022101015
  O   1.66032076849854     -1.33048364375377     -1.96207898187080
