17
Coordinates from ORCA-job run
  C   -0.81106940851257     -0.24989066351516      0.08423513939935
  C   0.65016484569012      0.17950161188348     -0.12422994519396
  Br  -1.06999615398052     -1.25518853582610      1.70443344564518
  H   0.65044966886079      0.82702096086799     -1.00613655431119
  N   -1.22525251731054     -1.02623682444423     -1.02753187950626
  H   -2.13961178760898     -1.43238830314402     -0.87072105079531
  H   -1.25111044130384     -0.44237130851395     -1.85719808577451
  N   -1.64727727090717      1.08157280322966      0.18008519262645
  O   -1.77555631013299      1.63318663696641     -0.90942498219417
  O   -2.07115225136179      1.47386069362795      1.25287107838317
  C   1.61054981501408     -0.97752141926020     -0.27826504795913
  H   1.62380970285981     -1.59480215022722      0.61735746429357
  H   2.61802193722037     -0.59364775083204     -0.44812139632702
  H   1.30779850613387     -1.58435872902415     -1.13020801862139
  N   1.07567684959789      1.08974950394893      0.99737047095651
  O   1.71608469301042      0.60117105369642      1.92285625544935
  O   0.73747012273105      2.26834242056622      0.89362791392938
