17
Coordinates from ORCA-job run
  C   -0.84405051046712     -0.29380739817403     -0.20462673504870
  C   0.67429546653268     -0.15842463721384     -0.36910983492963
  Br  -1.26915273282567     -2.25782499108500     -0.33939882002676
  H   0.89675087715351     -0.52121284843075     -1.37547349850360
  N   -1.49339452704211      0.50723833463817     -1.13901259358479
  H   -1.26177888392878      0.26605927040193     -2.09284060966210
  H   -2.49160965454551      0.56796383040627     -0.99280176778023
  N   -1.35878400972150      0.08441678488828      1.19058029360388
  O   -0.75541055705598     -0.37745823522918      2.14512422725116
  O   -2.36246467592969      0.78385162620467      1.22951527150178
  C   1.61593843079758     -0.79324949435462      0.63668398752052
  H   1.53878459110747     -0.30770388855091      1.60524281126263
  H   1.39371581303165     -1.85287089595294      0.75219740613533
  H   2.63549673066208     -0.68827760071199      0.25809591823181
  N   0.95647271635096      1.31903033439647     -0.42533352988267
  O   1.43597375125690      1.76025305588777     -1.46533803725214
  O   0.69021717462354      1.96101675287970      0.58549551116352
