17
Coordinates from ORCA-job run
  C   -0.87500563964041     -0.08238063040497     -0.13485931742917
  C   0.58471771264602     -0.52930009664086     -0.07393050566096
  Br  -1.84815275915973     -1.35559327316759     -1.38503643809217
  H   0.61567734145624     -1.57847453808094      0.20547817332973
  N   -1.04407803347680      1.26503689443305     -0.38113881142896
  H   -0.58597679459380      1.55715787221573     -1.23246493460682
  H   -2.01695644765404      1.54127125172261     -0.35563391150577
  N   -1.54163516682336     -0.38732556051884      1.21315247986765
  O   -1.05389844805314     -1.27720529270903      1.89943369850159
  O   -2.55423101031237      0.25406660892472      1.45752220668301
  C   1.42030867069003      0.34030577420226      0.86389932851882
  H   0.83020632626824      0.66146464975253      1.72103204178700
  H   2.28042931575241     -0.22514943940712      1.22420206582984
  H   1.76321998906273      1.23837311367033      0.34959169585077
  N   1.17652810643035     -0.48988045061928     -1.45372070965154
  O   1.76185928517811     -1.49748829460650     -1.83538675453429
  O   1.08598755222951      0.56512141123390     -2.08214030745872
