14

C	-0.422673	0.058744	-1.449054
C	0.0	0.0	0.0
Br	-2.331948	0.425	-1.686526
H	1.094136	0.0	0.0
H	0.105553	0.842032	-1.986752
H	-0.300565	0.960393	0.432481
N	-0.108797	-1.208517	-2.201956
O	0.786406	-1.125794	-3.038565
O	-0.736895	-2.222381	-1.916395
C	-0.543474	-1.150205	0.833904
H	-1.63428	-1.204526	0.806773
H	-0.142516	-2.10554	0.499121
H	-0.22605	-1.004684	1.868241
Br	3.580172	0.0	0.0
