13

C	0.0	0.0	0.0
C	-0.571189	0.065316	-1.406538
F	1.379548	0.0	0.0
H	-1.670763	-0.109762	-1.155602
H	-0.374812	0.861299	0.55517
C	-0.402856	-1.237612	0.703015
N	-0.496198	-2.257025	1.279354
C	-0.010088	-0.977578	-2.255345
N	0.424853	-1.828364	-2.94073
N	-0.456116	1.374595	-2.031287
H	0.430685	1.803729	-1.790261
H	-1.206605	1.942707	-1.648694
H	-2.811806	0.0	0.0
