13

C	0.0	0.0	0.0
C	-0.36377	-0.092639	-1.527617
F	1.376179	0.0	0.0
H	0.480977	-0.664184	-1.932003
H	-0.386794	0.892532	0.486755
C	-0.42953	-1.210342	0.716001
N	-0.549551	-2.230625	1.288509
C	-0.229405	1.266657	-2.083325
N	-0.096267	2.346563	-2.525035
N	-1.5976	-0.698683	-1.961381
H	-1.503753	-1.701538	-1.817563
H	-2.327539	-0.383861	-1.245955
H	-2.951234	0.0	0.0
