13

C	0.0	0.0	0.0
C	-0.612872	-0.124317	-1.390072
F	1.369253	0.0	0.0
H	-1.625748	-0.539417	-1.159623
H	-0.371008	0.92196	0.446408
C	-0.393936	-1.145706	0.854615
N	-0.494543	-2.079263	1.560607
C	0.170154	-0.997274	-2.250759
N	0.765318	-1.702895	-2.979481
N	-0.76955	1.223541	-1.953416
H	-1.665353	1.523203	-1.550381
H	-0.918124	1.140124	-2.954282
H	-2.858181	0.0	0.0
