16

C	-0.414358	0.080167	-1.480877
C	0.0	0.0	0.0
Cl	-2.229628	0.207948	-1.545316
H	1.095987	0.0	0.0
N	0.152007	1.254379	-2.093723
H	1.157082	1.090182	-2.161313
H	0.021716	2.004676	-1.418277
C	-0.047698	-1.083336	-2.294649
N	0.22971	-1.931553	-3.058349
N	-0.486833	-1.275742	0.645675
O	-1.158052	-1.182511	1.676429
O	-0.169946	-2.330028	0.101181
N	-0.419642	1.174228	0.687133
H	0.244009	1.373764	1.424214
H	-1.340664	1.056324	1.088545
Cl	3.20723	0.0	0.0
