16

C	-0.430184	0.051986	-1.47729
C	0.0	0.0	0.0
Cl	-2.24995	0.147577	-1.519983
H	1.092518	0.0	0.0
N	0.107363	1.225366	-2.114768
H	1.110975	1.07354	-2.209364
H	-0.014904	1.98121	-1.444263
C	-0.052456	-1.119044	-2.274738
N	0.256534	-1.987805	-3.001942
N	-0.482798	-1.26892	0.66593
O	-1.187803	-1.162204	1.670377
O	-0.131403	-2.329332	0.159113
N	-0.424563	1.181904	0.670447
H	-1.345891	1.063982	1.071644
H	0.23636	1.393346	1.406952
Cl	3.213533	0.0	0.0
