16

C	-0.509915	0.011345	-1.450875
C	0.0	0.0	0.0
Cl	0.08265	-1.505753	-2.286088
H	1.105729	0.0	0.0
N	-1.92356	0.198183	-1.537905
H	-2.381726	-0.585468	-1.08871
H	-2.213475	0.278314	-2.504258
C	0.128403	1.135276	-2.14918
N	0.534582	2.05945	-2.750197
N	-0.466378	-1.253601	0.713133
O	0.26572	-1.697095	1.584044
O	-1.586939	-1.70377	0.442007
N	-0.477316	1.118136	0.749565
H	0.27404	1.775031	0.907268
H	-1.281416	1.553095	0.317753
Cl	3.276392	0.0	0.0
