14

C	-0.492338	0.043467	-1.431842
C	0.0	0.0	0.0
Cl	0.0619	-1.333762	-2.366438
H	1.088455	0.0	0.0
H	-0.364075	0.867068	0.551528
N	-2.05229	0.144078	-1.46409
O	-2.496864	1.004994	-0.714746
O	-2.678933	-0.566658	-2.224776
C	-0.038308	1.279475	-2.0697
N	0.287191	2.263003	-2.625054
N	-0.504902	-1.202703	0.717106
O	0.091961	-1.518526	1.735883
O	-1.503618	-1.767893	0.268298
Br	3.39752	0.0	0.0
