14

C	-0.605122	-0.04656	-1.38525
C	0.0	0.0	0.0
Cl	-0.011059	1.367424	-2.282964
H	1.107103	0.0	0.0
H	-0.320456	0.917215	0.497023
N	-0.163008	-1.282037	-2.190342
O	0.905552	-1.777307	-1.886357
O	-0.912611	-1.606346	-3.103736
C	-2.065878	-0.019195	-1.366385
N	-3.235102	0.078945	-1.295888
N	-0.494854	-1.122882	0.832437
O	-1.012926	-2.082245	0.254748
O	-0.338877	-1.017725	2.043007
Br	3.387193	0.0	0.0
