16

C	0.0	0.0	0.0
C	-0.353967	-0.005068	-1.513514
F	1.364019	0.0	0.0
H	0.384478	-0.697142	-1.930642
N	-0.589538	0.99371	0.755763
H	-1.591645	1.008797	0.54713
H	-0.47204	0.804748	1.74435
N	-0.265564	-1.436629	0.575684
O	-0.395195	-1.511365	1.793812
O	-0.222798	-2.387407	-0.200436
C	-0.005366	1.331056	-2.032385
N	0.277246	2.380175	-2.476071
N	-1.641394	-0.413427	-1.994666
H	-1.758925	-1.400636	-1.810733
H	-2.41996	0.047857	-1.522734
Cl	-3.983622	0.0	0.0
