16

C	0.0	0.0	0.0
C	-0.295915	-0.07601	-1.544717
F	1.359756	0.0	0.0
H	0.454259	-0.776178	-1.921606
N	-0.544912	1.025547	0.781115
H	-0.469192	1.90231	0.279123
H	-1.537602	0.829598	0.934296
N	-0.372325	-1.351265	0.625481
O	-0.712349	-1.380928	1.798605
O	-0.198002	-2.329548	-0.098868
C	0.070288	1.254251	-2.06647
N	0.363796	2.32306	-2.454122
N	-1.577666	-0.473869	-2.054558
H	-2.34775	-0.068843	-1.517355
H	-1.665572	-1.474734	-1.931092
Cl	-3.856858	0.0	0.0
