16

C	0.0	0.0	0.0
C	-0.536694	-0.184888	-1.437118
F	1.357341	0.0	0.0
H	-1.47628	-0.741538	-1.333542
N	-0.480399	1.112298	0.711095
H	-0.412033	1.902221	0.071556
H	-1.472839	0.947066	0.917926
N	-0.34088	-1.27087	0.783773
O	-0.417146	-1.190814	2.004273
O	-0.373423	-2.313992	0.121951
C	0.383358	-0.959089	-2.27574
N	1.108325	-1.541555	-2.99633
N	-0.751941	1.151683	-2.026529
H	-0.588247	1.121551	-3.029914
H	-1.733827	1.378592	-1.879378
Cl	-3.441822	0.0	0.0
