16

C	0.0	0.0	0.0
C	-0.34046	-0.013894	-1.520151
F	1.364272	0.0	0.0
H	0.42521	-0.67944	-1.927387
N	-0.588376	0.9992	0.751841
H	-0.476735	0.80916	1.740904
H	-1.591557	1.017073	0.545151
N	-0.263628	-1.435009	0.578636
O	-0.442283	-1.505939	1.790251
O	-0.172023	-2.38959	-0.188317
C	-0.023259	1.332183	-2.034849
N	0.243828	2.39463	-2.455912
N	-1.607772	-0.461281	-2.026749
H	-1.687467	-1.454267	-1.847145
H	-2.395067	-0.036026	-1.534289
Cl	-3.906889	0.0	0.0
