16

C	0.0	0.0	0.0
C	-0.329927	-0.133175	-1.529631
F	1.359742	0.0	0.0
H	0.432691	-0.820008	-1.906133
N	-0.553847	1.033589	0.762577
H	-1.538986	0.827382	0.938137
H	-0.491568	1.904963	0.249128
N	-0.369298	-1.343064	0.649542
O	0.031417	-2.333252	0.039209
O	-0.965904	-1.346815	1.715587
C	-0.040464	1.190695	-2.107692
N	0.194474	2.262672	-2.525604
N	-1.614397	-0.606384	-1.960919
H	-2.391819	-0.170666	-1.455654
H	-1.67617	-1.597697	-1.766385
Cl	-3.974225	0.0	0.0
