16

C	0.0	0.0	0.0
C	-0.457173	0.135593	-1.456405
F	1.383548	0.0	0.0
H	0.325457	-0.376835	-2.024596
N	-0.558732	0.903959	0.885895
H	-0.414467	0.611236	1.844563
H	-1.563003	0.984951	0.725364
N	-0.240134	-1.503724	0.390554
O	-0.861666	-1.72026	1.42443
O	0.28513	-2.340525	-0.330671
C	-0.400957	1.565644	-1.847758
N	-0.353225	2.678796	-2.222427
N	-1.695066	-0.557644	-1.678076
H	-1.948991	-0.541151	-2.655287
H	-2.496989	-0.221535	-1.129524
Cl	-4.248991	0.0	0.0
