16

C	0.0	0.0	0.0
C	-0.615179	-0.129664	-1.401322
F	1.387665	0.0	0.0
H	-1.539599	-0.695472	-1.239963
N	-0.488991	1.068046	0.722294
H	-0.388366	0.876063	1.713528
H	-1.475321	1.195159	0.49926
N	-0.224445	-1.371224	0.734335
O	-0.207683	-1.335712	1.961142
O	-0.299741	-2.385816	0.05178
C	0.271344	-0.882228	-2.294987
N	0.969888	-1.390703	-3.090529
N	-0.967608	1.1683	-1.958502
H	-0.432616	1.384162	-2.78804
H	-1.963259	1.184879	-2.140603
Cl	-3.536765	0.0	0.0
