12

C	-0.367563	0.009215	-1.361347
C	-0.217473	-0.363961	0.110208
Br	-0.122675	-1.57971	-2.488999
H	0.77467	-0.807404	0.218125
H	0.449046	0.691322	-1.620725
H	-0.980343	-1.102941	0.375823
C	-1.670729	0.585911	-1.662139
N	-2.730246	1.018302	-1.927682
N	-0.410879	0.859267	0.876124
H	-0.475308	0.6267	1.860147
H	0.440863	1.406102	0.743368
Cl	2.499833	1.602008	-0.460955
