12

C	-0.596739	-0.013742	-1.540925
C	0.064859	0.140237	-0.169813
Br	-2.547266	-0.183486	-1.366885
H	1.136126	0.291143	-0.336647
H	-0.270141	-0.95528	-1.983438
H	-0.329151	1.048585	0.304147
C	-0.325352	1.098769	-2.443343
N	-0.083504	2.007082	-3.148305
N	-0.113446	-1.077096	0.593164
H	-0.781598	-0.932838	1.337356
H	0.7945	-1.291147	1.012086
Cl	3.03569	-0.913466	1.381604
