12

C	-0.097403	0.116773	-1.360882
C	0.118191	0.272797	0.137538
Br	-1.734474	-0.883596	-1.760509
H	1.144791	0.65883	0.240949
H	0.74352	-0.472447	-1.749751
H	0.128637	-0.729189	0.566666
C	-0.190493	1.415534	-2.012679
N	-0.249701	2.489352	-2.486884
N	-0.920222	1.08993	0.760026
H	-0.693175	2.070735	0.649384
H	-0.948074	0.896477	1.752339
Cl	2.770488	-1.473189	-1.036172
