12

C	-0.122822	0.052075	-1.331395
C	0.116458	0.277418	0.153556
Br	-1.755563	-0.980932	-1.662716
H	1.145986	0.663181	0.22198
H	0.720414	-0.544054	-1.706257
H	0.126503	-0.703563	0.629785
C	-0.238742	1.318997	-2.039891
N	-0.323014	2.373984	-2.551271
N	-0.912936	1.120559	0.756584
H	-0.812213	1.090128	1.76344
H	-0.765296	2.082695	0.472811
Cl	2.797405	-1.434153	-1.056892
