12

C	-0.263581	-0.179215	-1.337094
C	-0.215438	-0.24671	0.199701
Br	-0.1753	-1.983577	-2.113344
H	0.728993	-0.730124	0.460663
H	0.625893	0.362716	-1.6834
H	-1.04083	-0.869928	0.559668
C	-1.486196	0.457263	-1.802524
N	-2.488685	0.980386	-2.124159
N	-0.250345	1.057477	0.826384
H	0.566943	1.57265	0.500432
H	-1.081477	1.563442	0.542432
Cl	2.473114	1.696322	-1.01448
