12

C	-0.569062	-0.075166	-1.507373
C	-0.031735	-0.258111	-0.073152
Br	0.402436	1.287036	-2.505147
H	1.02188	-0.543832	-0.119421
H	-1.602169	0.281813	-1.462432
H	-0.60185	-1.110066	0.329519
C	-0.555505	-1.325407	-2.258881
N	-0.560681	-2.35851	-2.818814
N	-0.145322	0.898192	0.776907
H	-0.895142	1.512196	0.487027
H	0.743071	1.40584	0.762599
Cl	2.971286	1.800477	0.591245
