15

C	0.0	0.0	0.0
C	-0.305761	-0.050463	-1.511788
F	1.367292	0.0	0.0
H	0.038762	0.926417	-1.877256
H	0.371691	-0.799205	-1.924537
N	-0.538879	1.035481	0.790866
H	-1.520031	0.826952	0.975044
H	-0.503971	1.895421	0.255572
N	-0.361572	-1.34289	0.658904
O	-0.209758	-2.334057	-0.052944
O	-0.67992	-1.356398	1.840398
N	-1.633217	-0.300525	-1.994397
H	-1.952026	-1.212034	-1.690446
H	-2.316309	0.334224	-1.593722
Br	-4.210273	0.0	0.0
