15

C	0.0	0.0	0.0
C	-0.523052	0.096041	-1.425836
F	1.357981	0.0	0.0
H	-1.545527	-0.283014	-1.406345
H	0.087976	-0.537857	-2.064993
N	-0.488635	0.950295	0.918369
H	-1.466197	0.714955	1.098122
H	-0.488024	1.830991	0.4102
N	-0.326889	-1.409419	0.518409
O	-0.881417	-1.549368	1.596988
O	0.054294	-2.319489	-0.216978
N	-0.507174	1.497524	-1.838465
H	0.12769	1.632502	-2.610248
H	-1.438239	1.766885	-2.123208
Br	-3.831251	0.0	0.0
