11
Coordinates from ORCA-job run
  C   -0.54873461860773      0.28499920615365     -0.21835287659913
  C   0.75070218890515      0.50501199411491      0.10195636363236
  H   1.14120539554900      1.51739919292829      0.09457129522299
  C   -1.41274086562483      1.40547962660660     -0.42673004814332
  N   -2.13831009937078      2.32181396843688     -0.56372074677056
  N   -1.10540880595971     -0.99343523455011     -0.45190497041991
  H   -1.76110849998652     -1.30777953343928      0.24903795574054
  H   -0.40684664005406     -1.69315214332497     -0.65401455320586
  N   1.67073267001350     -0.51340018587277      0.32169186968512
  H   2.52600316928580     -0.20639923401249      0.75535534361495
  H   1.28550610585019     -1.32053765704071      0.79211036724283
