11
Coordinates from ORCA-job run
  C   -0.43731699573095     -0.10370976513517     -0.32386283567310
  C   0.75581066814745     -0.33738194119514      0.27121593772292
  H   1.05711714464929     -1.37221138787916      0.42023277581317
  C   -0.89981229705826      1.24238780947271     -0.53511817812484
  N   -1.39926482244541      2.29656664495737     -0.70425872921660
  N   -1.33023043207206     -1.08155660279227     -0.80465636593760
  H   -2.28611642755621     -0.89751828951878     -0.53559353312760
  H   -1.07060786316341     -2.01955494882098     -0.55207122282515
  N   1.66275015200111      0.69273664357195      0.59730202089574
  H   1.36762227322025      1.26538123477993      1.37850779071173
  H   2.58004860000820      0.31586060255954      0.79030233976132
