11
Coordinates from ORCA-job run
  C   -0.43671436780319      0.23652311882221     -0.22989925248429
  C   0.83856991698401      0.51899553673116      0.13886688477151
  H   1.23652921432319      1.52083261566006      0.00598499830890
  C   -1.26809419848964      1.24802844851476     -0.79943782688531
  N   -1.98788702068718      2.06718478132547     -1.24488641311349
  N   -0.92092106735850     -1.10177541347979     -0.04562173010879
  H   -1.82374835234057     -1.09439571576289      0.41322675819490
  H   -1.03269480862089     -1.57180411197719     -0.93681465569469
  N   1.70562219631797     -0.43007264631825      0.60365048887693
  H   2.44502554787121     -0.11041779453887      1.20597758177591
  H   1.24531293980358     -1.28309881897667      0.88995316635841
