11
Coordinates from ORCA-job run
  C   -0.49827875265052      0.21107875771757     -0.05379847025357
  C   0.70869169358139      0.50367719074192      0.49282996983116
  H   0.86451223772209      1.45625267365886      0.99064536249328
  C   -1.57439828633196      1.14734845789223      0.01815827725178
  N   -2.48767305385762      1.89111409878485      0.03871128184949
  N   -0.67161722660507     -1.05881347566290     -0.69789470755928
  H   -1.09931095078365     -0.94071047416871     -1.60825255849885
  H   -1.27337428665255     -1.66218562197711     -0.14882754098852
  N   1.74439901389148     -0.39145988506278      0.53469110521748
  H   2.67095656477508      0.00278899743479      0.54120762043550
  H   1.61609304691134     -1.16109071935871     -0.10847033977846
