11
Coordinates from ORCA-job run
  C   -0.44538833751306      0.24087518910166     -0.20483078651805
  C   0.84468064357997      0.51920018097944      0.11151796216865
  H   1.23462717225040      1.52417870541255     -0.02052399798347
  C   -1.30280972868774      1.25946080976360     -0.72059357438673
  N   -2.05120828221616      2.06851381652585     -1.13645925663907
  N   -0.92102796192629     -1.10060285292807     -0.02212585471025
  H   -1.80187801333393     -1.10117111322530      0.47774936612287
  H   -1.07521035938755     -1.55423094679564     -0.91565341916127
  N   1.73255875906728     -0.43550853111697      0.52190386349883
  H   1.28771338811581     -1.29483945732965      0.81348030899140
  H   2.49894272005127     -0.12487580038747      1.09453538861709
