11
Coordinates from ORCA-job run
  C   -0.59513854632116      0.24982252782053     -0.11488371990930
  C   0.70508314724642      0.56596715575568      0.10654308607783
  H   0.99037461742515      1.60611505226146      0.22545443239677
  C   -1.58103586008297      1.28358237232794     -0.04445533990030
  N   -2.40058825203301      2.12259838416107      0.05143523234438
  N   -1.05230924419201     -1.03343560202870     -0.49499601986209
  H   -1.57900684187428     -1.52357307253970      0.21411282756027
  H   -0.32082724297414     -1.60940525752591     -0.88439359293837
  N   1.74145489663225     -0.35862259944810      0.06036470058965
  H   2.60122587250445     -0.02981464482983      0.46880596790513
  H   1.49176745366929     -1.27223431595445      0.41201242573602
