11
Coordinates from ORCA-job run
  C   -0.47971060738140     -0.06888156527964     -0.30505420632150
  C   0.71391225551830     -0.39314384625108      0.25428324285433
  H   1.13353918745811     -1.37849572261200      0.06444698568105
  C   -1.02344552850420      1.22539503660356     -0.03466485852595
  N   -1.42540993154967      2.29649710650421      0.24469747015102
  N   -1.20136589084869     -0.87076679653365     -1.23000643883975
  H   -0.66957595447638     -1.68920969521056     -1.49437294662121
  H   -2.09729317323988     -1.16120860361426     -0.85812240653364
  N   1.44347408242610      0.39156533855997      1.13309548396852
  H   2.44263941546185      0.28625121104767      1.05742693345570
  H   1.16323614513584      1.36199753678577      1.16827074073143
