11
Coordinates from ORCA-job run
  C   -0.49977332248046      0.21395392103633     -0.05520536357235
  C   0.61223233571180      0.33373461594545      0.71378497283840
  H   0.65459039122301      1.08020040198537      1.50168648504703
  C   -1.62932265025414      1.05933575533602      0.16366272240998
  N   -2.58043188960056      1.74119728582669      0.29790007731110
  N   -0.51720746686397     -0.79056483270040     -1.08019443531658
  H   -0.83046568896607     -0.39669421201197     -1.95918319657722
  H   -1.15241253550465     -1.54247504792359     -0.83709092944107
  N   1.68373089387118     -0.50798029854471      0.60760454864855
  H   2.57623469818375     -0.14363556201543      0.89423877738913
  H   1.68382523468011     -1.04707202693377     -0.24720365873697
