11
Coordinates from ORCA-job run
  C   -0.49999615947879      0.21692842283554     -0.02937743692485
  C   0.67909814386732      0.38822050194440      0.62015483550535
  H   0.80161734506679      1.20677968346405      1.32347924947633
  C   -1.59557492732692      1.10205803336357      0.20517533176362
  N   -2.52379846487357      1.81176919712896      0.35485167030515
  N   -0.62306996021362     -0.88009020624531     -0.94660999583008
  H   -1.24286622685970     -1.59188329941722     -0.57591266556746
  H   -1.01009862558775     -0.56498088336409     -1.82797098498108
  N   1.72669473041221     -0.48211456693363      0.50195248803077
  H   2.64568751599471     -0.10722947790122      0.66616534781504
  H   1.64230662899932     -1.09945740487504     -0.29390783959280
