11
Coordinates from ORCA-job run
  C   -0.49052406364817      0.22808426638829     -0.07866605921548
  C   0.70562591342556      0.49063638388784      0.50644668158056
  H   0.85892121923479      1.42266311360264      1.04260147500441
  C   -1.55744683954558      1.17425047502621     -0.00643766423334
  N   -2.47032968307114      1.91756217491010      0.03641715626826
  N   -0.64930752451885     -1.01100872555133     -0.78459991236334
  H   -1.50338450424356     -1.47563085896663     -0.50115747943341
  H   -0.70206578918185     -0.85357615986469     -1.78466072245711
  N   1.78804297027357     -0.33514116967763      0.38837473868335
  H   1.54995986066241     -1.25923062582059      0.05555765226764
  H   2.46950844061282     -0.29860887393421      1.12712413389847
