11
Coordinates from ORCA-job run
  C   -0.46618411303164      0.23843408027175     -0.15536464268301
  C   0.67775508025590      0.51546154426269      0.52046702197276
  H   0.85074853774834      1.51175398594674      0.91686354866425
  C   -1.45898299158069      1.24629943154278     -0.34771226784961
  N   -2.30099874252163      2.04696336501395     -0.54192163411546
  N   -0.65988298475546     -1.09249938293954     -0.65622033307318
  H   -0.94479631454492     -1.06909925309564     -1.62793029171881
  H   -1.38568351845540     -1.57166685995354     -0.13528915704686
  N   1.61669996309463     -0.43363834123976      0.81289912371620
  H   1.51149112950597     -1.27935356973520      0.26973693294122
  H   2.56083395428490     -0.11265500007422      0.94347169919251
