11
Coordinates from ORCA-job run
  C   -0.43221199807703     -0.17967457913831     -0.22358917848469
  C   0.79072405384470     -0.38774208935511      0.32579741922318
  H   1.11159191331358     -1.41895115045390      0.44024146403210
  C   -0.90468085292611      1.16280197645853     -0.37989026617930
  N   -1.27715980369906      2.27596911696958     -0.48794225947601
  N   -1.22003644914487     -1.30042845282090     -0.63704939099374
  H   -2.12697108209066     -1.28813540477479     -0.18684972133093
  H   -1.37276159013260     -1.28450611433336     -1.63819571340475
  N   1.70162825278615      0.57530820433671      0.67014770829620
  H   2.37285545500266      0.32515560507007      1.37565595825453
  H   1.35702210112324      1.52120288804148      0.74167398006340
