11
Coordinates from ORCA-job run
  C   -0.53353155287945      0.11540948636179     -0.00920727861701
  C   0.59958453063974      0.45412839627605      0.65644603178162
  H   0.55905730057334      1.16293066473654      1.47840881792350
  C   -1.78910941486880      0.69105004480131      0.35269634584089
  N   -2.84900256692109      1.12891973548867      0.62215045264743
  N   -0.43683236914354     -0.82066267200681     -1.09282162670385
  H   -1.13541022124250     -1.54802336695157     -0.99814847842869
  H   -0.59216309041606     -0.36023673170600     -1.98258409317905
  N   1.83819222273078      0.00502389910175      0.29260830770488
  H   2.53411199723469     -0.04161624358029      1.01723351736166
  H   1.80610316429289     -0.78592321252145     -0.33578199633138
