11
Coordinates from ORCA-job run
  C   -0.49748317268582     -0.09687222783492     -0.26067282711628
  C   0.72648888380795     -0.38808897053120      0.24781330893607
  H   1.01212742345060     -1.43108557673163      0.36793956412989
  C   -0.88149077017992      1.27688555896952     -0.36814420410287
  N   -1.17059492018808      2.41824191837507     -0.39182994488832
  N   -1.40475371396840     -1.04430572336697     -0.80271598804659
  H   -0.99822572411645     -1.96939396933047     -0.82997616589203
  H   -2.27917609715796     -1.07015356709340     -0.29342929590178
  N   1.73844246732424      0.52614931321227      0.50375082791903
  H   1.43394695932068      1.48991347800430      0.53422241762806
  H   2.31971866439316      0.28770976632741      1.29204230733482
