11
Coordinates from ORCA-job run
  C   -0.52997800778716     -0.10564888654178     -0.17401708687288
  C   0.70715068723852     -0.38885350235090      0.30570624265989
  H   1.03767900270335     -1.42518411657203      0.33181691772260
  C   -0.93332307091723      1.26444008640150     -0.25330709692355
  N   -1.20599710567474      2.40586572192642     -0.35036224802976
  N   -1.51906183046099     -1.06812598728279     -0.50494910701845
  H   -1.20368570208801     -2.00588803607213     -0.29729324998364
  H   -1.79702780126850     -1.00896590563243     -1.47652423616661
  N   1.56957209785909      0.51293493006966      0.91252250141793
  H   2.54587258742683      0.33285387960143      0.73798300197962
  H   1.32979914296883      1.48457181645305      0.76842436121485
