11
Coordinates from ORCA-job run
  C   -0.44176977437800     -0.18570157589467     -0.19886081235318
  C   0.75821797870174     -0.38008165774819      0.40355353820142
  H   1.00417099821121     -1.39533592786442      0.70022019538651
  C   -0.81436439849228      1.13912337393987     -0.59351141148837
  N   -1.10433470896366      2.23990742535388     -0.89950587017090
  N   -1.30479901957887     -1.30313228386974     -0.43105296540081
  H   -2.21105536240920     -1.15244768280650     -0.00520776182054
  H   -1.45034262191758     -1.44669826890501     -1.42301440942420
  N   1.73247434233275      0.56322382405172      0.59722677225636
  H   2.37675526353449      0.39231207330937      1.34987987926501
  H   1.45504730295943      1.52883070043368      0.50027284554870
