11
Coordinates from ORCA-job run
  C   -0.52480059153259     -0.10466586479562     -0.19990195638386
  C   0.74875704409977     -0.38349803227935      0.17692572608157
  H   1.18305148917700     -1.34076134060834     -0.10415376991872
  C   -1.06574404965532      1.17735810494132      0.13196594643857
  N   -1.44041414050923      2.26268790517618      0.39352405743856
  N   -1.41758121858055     -1.02392152798260     -0.81008118934814
  H   -1.71928560452544     -0.71175822503943     -1.72448295846950
  H   -1.00459554780384     -1.94364337593965     -0.88376637372279
  N   1.53055714085957      0.38326270393107      1.02844988619345
  H   2.51633056843013      0.35887110060477      0.81969818676334
  H   1.19472491004049      1.32606855199165      1.17282244492751
