11
Coordinates from ORCA-job run
  C   -0.57402676625247      0.17817365048656     -0.06316005613349
  C   0.66067560894976      0.56799591594323      0.33783591084434
  H   0.80996523346656      1.57750543867409      0.70594985001981
  C   -1.68587876304850      1.06780436667678      0.06096541772276
  N   -2.60733933515097      1.79973467434787      0.11837940948278
  N   -0.83928920907194     -1.11872263521995     -0.53480829299046
  H   -0.02449309138828     -1.49241395159812     -1.00069444550739
  H   -1.68114007386765     -1.17702451094816     -1.08385915657940
  N   1.75232957931552     -0.31222235130146      0.20747648413018
  H   1.59171169979952     -1.19248401984261      0.68668716547967
  H   2.59748511724844      0.10265342278177      0.56522771353120
