11
Coordinates from ORCA-job run
  C   -0.46851780543273     -0.10472692272241     -0.32375266860465
  C   0.74027263514867     -0.33210019290689      0.24401905344307
  H   1.06289050117986     -1.36461327019822      0.38273891173959
  C   -0.90577745528654      1.24628650655281     -0.51610437634497
  N   -1.28803027131649      2.35126462365947     -0.64668938371795
  N   -1.34489697301335     -1.09638909214864     -0.81109467702373
  H   -1.00796381039092     -2.02891288192380     -0.61489631587313
  H   -2.28988341821484     -0.98614653637230     -0.46915948800709
  N   1.62249622100267      0.70397543829627      0.60366370282895
  H   2.56180558737669      0.36944647622973      0.74914716321799
  H   1.31860478894698      1.24291585153399      1.40212807834192
