11
Coordinates from ORCA-job run
  C   -0.46837899592431     -0.14429604725194     -0.29462552934430
  C   0.62466518157784     -0.31260658425062      0.49260965662076
  H   0.87458438716369     -1.31243078411808      0.84015712253947
  C   -0.79057685155828      1.17840963571773     -0.73067247984974
  N   -1.01647451211541      2.29328793197432     -1.03581965742332
  N   -1.28081893242808     -1.18916249430045     -0.81085692021107
  H   -2.23171002494136     -1.13306266457071     -0.46726873568934
  H   -0.89706292289061     -2.09634982395563     -0.58229711785039
  N   1.44255672938877      0.69411582292252      0.98043079761193
  H   2.41045554804283      0.43379387336518      1.08278477518012
  H   1.33276039368492      1.59030113446766      0.52655808841588
