11
Coordinates from ORCA-job run
  C   -0.64100541678445      0.14384063020862     -0.01020240267489
  C   0.50381419991740      0.27732529131763      0.70518103260446
  H   0.50752397943088      0.88816194729938      1.60209771198329
  C   -1.78379285525685      0.92135412811817      0.35669446317356
  N   -2.71616516674696      1.58551319123190      0.62950092217994
  N   -0.82068338519342     -0.78603593428027     -1.06132951515044
  H   -0.87617807723953     -0.37851366634147     -1.98400904986813
  H   -0.15879527413367     -1.54707448934205     -1.02574652421522
  N   1.66649053995632     -0.43362857433152      0.43715309597902
  H   2.48608830673311     -0.06988060246029      0.89518891958245
  H   1.83170314931719     -0.59906192142011     -0.54552865359404
