11
Coordinates from ORCA-job run
  C   -0.52803933403910      0.14016830812296      0.01195105311131
  C   0.64334989409274      0.40943622027069      0.64245852659629
  H   0.67678015206695      1.14256667648027      1.44316913498525
  C   -1.73016420676292      0.80599665411444      0.39925494894098
  N   -2.74400667604795      1.33836216331618      0.67585091550848
  N   -0.53200165109805     -0.84114097825100     -1.03504374238650
  H   -1.01953323876449     -1.68005996840743     -0.74139500791973
  H   -1.00414855647698     -0.48351831193842     -1.85669803704090
  N   1.80239771592532     -0.26526027442619      0.37886507528127
  H   2.66298527591349      0.21997257426912      0.56707101837777
  H   1.77238062519099     -0.78652306355061     -0.48648388545422
