11
Coordinates from ORCA-job run
  C   -0.54686550962236     -0.11172101705093     -0.13863180833975
  C   0.79186919638003     -0.30890850932888     -0.02849992929509
  H   1.21713881144508     -1.24353861296644     -0.38730393992541
  C   -1.08692675656785      1.12783680274310      0.32599706025619
  N   -1.46182673334375      2.17700696981343      0.70761800845794
  N   -1.48742404535084     -1.07604300945874     -0.59327447629861
  H   -1.92031319918569     -0.79700008818282     -1.46547637985670
  H   -1.04999227226461     -1.97969772811629     -0.71468468441276
  N   1.71711369308228      0.60982651136639      0.43815248298956
  H   2.50342215624195      0.20604396186956      0.92155786469511
  H   1.32280465918577      1.39619471931161      0.93554580172953
