11
Coordinates from ORCA-job run
  C   -0.42716014295281     -0.17834421488745     -0.23508706643904
  C   0.80544118027154     -0.38214673112636      0.29412494421748
  H   1.15997343069153     -1.40750256857780      0.33900922456424
  C   -0.94181181585477      1.15596466460713     -0.30380178858400
  N   -1.34863079571309      2.26163693493640     -0.34000139537272
  N   -1.18204831398452     -1.29479247637563     -0.71661280772882
  H   -1.35859872633913     -1.20937561127869     -1.70998316803557
  H   -2.07814464518899     -1.35111390263059     -0.24874090829295
  N   1.68556510516987      0.58466602063677      0.70120176342323
  H   2.37230749026064      0.30848163974057      1.38132245380173
  H   1.31310723363973      1.51252624495564      0.83856874844641
