11
Coordinates from ORCA-job run
  C   -0.51866816756965      0.17056569216782     -0.01954665678051
  C   0.57903836189476      0.24427472913667      0.77529318846492
  H   0.54954672421026      0.82052099584501      1.69546366317456
  C   -1.72594597286741      0.84022158915293      0.34463379073733
  N   -2.73981992410575      1.38500127246406      0.59559677401703
  N   -0.44086908058803     -0.60694497196241     -1.22329154021450
  H   -0.79345010317986     -0.07846562700841     -2.01208734757457
  H   -0.99793597189533     -1.45030332914820     -1.14491137496179
  N   1.72829098648862     -0.45047223458665      0.52173741584519
  H   1.77815627548951     -0.80756134762967     -0.42236473673651
  H   2.58165687212286     -0.06583676843117      0.88947682402884
