11
Coordinates from ORCA-job run
  C   -0.48497680964862     -0.09462016798130     -0.28929233557094
  C   0.66474378674326     -0.38587555822309      0.37082757378091
  H   0.96866542792059     -1.42604466247987      0.46378748367735
  C   -0.87786254700546      1.27616292674874     -0.39089271727836
  N   -1.15445914984177      2.42047635847089     -0.42022644906610
  N   -1.29581149434534     -1.03176377511216     -0.98536872463505
  H   -0.86144074689058     -1.94489292695855     -1.00357965227116
  H   -2.21767896307740     -1.11030443227394     -0.57350379550093
  N   1.48197170515157      0.52084029780645      1.02695448583749
  H   1.31578642825039      1.48921533285482      0.79031475316977
  H   2.46206236274337      0.28780660714801      1.01097937785702
