11
Coordinates from ORCA-job run
  C   -0.49604964882304     -0.05929652989837     -0.27905632866726
  C   0.74727326143308     -0.37986611097510      0.16115643206939
  H   1.19975628397050     -1.31054787194050     -0.17354770652127
  C   -1.08277607856994      1.16092108965454      0.17934763033345
  N   -1.51654113790406      2.16774013775669      0.60962920165634
  N   -1.23668034593003     -0.78468025732830     -1.25144239205360
  H   -2.09392599707840     -1.16225978337632     -0.86725252998582
  H   -0.68555848876391     -1.53887307784562     -1.63898323057530
  N   1.49722213557181      0.33312719605604      1.08389802501854
  H   2.49238459604997      0.29574381995743      0.92755265626237
  H   1.17489542004401      1.27699138793951      1.24769824246318
