11
Coordinates from ORCA-job run
  C   -0.50864974649979      0.19669861473536     -0.04789201350984
  C   0.66086334547036      0.46309719772246      0.58745171365469
  H   0.75281062217385      1.33806553571907      1.22425884573326
  C   -1.63669734252154      1.05656142481451      0.11323995083360
  N   -2.58962443673380      1.74347869509793      0.20218870077926
  N   -0.58608967420090     -0.97603863015656     -0.87103795603443
  H   -0.98361933478839     -0.75319855711723     -1.77554914478720
  H   -1.17377009588040     -1.68181913021741     -0.44199099044378
  N   1.73968965045780     -0.37477749986909      0.53831903682137
  H   2.64387449578255      0.04345118246701      0.67649993621437
  H   1.68021251674024     -1.05651883319605     -0.20548807926130
