11
Coordinates from ORCA-job run
  C   -0.44586436764557     -0.14379303856259     -0.32558047525663
  C   0.61153043987848     -0.33329456956273      0.50362831689629
  H   0.74206877647556     -1.30505207291719      0.97523910567606
  C   -0.63671942306202      1.15156955189046     -0.90189550673435
  N   -0.77113325904157      2.24663206079605     -1.31391223050541
  N   -1.33587628355854     -1.15962410536703     -0.76229119189259
  H   -1.04244823084931     -2.07091868944109     -0.43836881536391
  H   -2.28896278834355     -0.98350759871472     -0.47032287562622
  N   1.65557513955934      0.55777033926318      0.70554771463728
  H   1.46909966245602      1.49997455299782      0.38960509011578
  H   2.03973033413117      0.53924356961784      1.63735086805369
