11
Coordinates from ORCA-job run
  C   -0.54835367265560      0.30773505014119     -0.17790820504679
  C   0.67006467379101      0.47612937492046      0.39509382116829
  H   1.00671331772479      1.47410887530438      0.65545782962798
  C   -1.29859865678540      1.46610417007710     -0.55457593738146
  N   -1.91021806248303      2.41170367628741     -0.89571261773800
  N   -1.18135935653769     -0.94208246611749     -0.36150519491575
  H   -1.25836896075055     -1.24831022048703     -1.32064529870379
  H   -0.81704902039041     -1.66587770621910      0.23990415615862
  N   1.47970965480221     -0.57355187007469      0.80661883504553
  H   2.43344108943769     -0.31211438376317      0.99519986229248
  H   1.42501899384697     -1.39284450006905      0.21807274949291
