11
Coordinates from ORCA-job run
  C   -0.45303244916790     -0.17558890036677     -0.18841892750894
  C   0.67199850799345     -0.33751226033110      0.55261500637400
  H   0.85847135691586     -1.33502425559381      0.94178238116086
  C   -0.77486063764312      1.12132218115828     -0.70155064909643
  N   -1.04650052071497      2.19909344541134     -1.09444686881939
  N   -1.29803987404616     -1.30241400668884     -0.44494525933174
  H   -2.25589595518435     -1.10028123417047     -0.18536521999821
  H   -1.29005867280424     -1.53371736609941     -1.43113970412533
  N   1.56795063374852      0.63103669230695      0.89507299859179
  H   1.58043062514494      1.47853394087972      0.35104858713951
  H   2.43953698575796      0.35355176349411      1.30434765561387
