11
Coordinates from ORCA-job run
  C   -0.52934240464487     -0.11023310290467     -0.18948364444239
  C   0.74370745352451     -0.36203146812697      0.20873778724572
  H   1.09034292844649     -1.39247657984590      0.23989533446927
  C   -0.96637301248308      1.25000710705323     -0.23736864393165
  N   -1.25582048521580      2.39091468556745     -0.27452122677018
  N   -1.51399614766883     -1.09515863177930     -0.47291540738534
  H   -1.17437473934073     -2.02216053753898     -0.25402714926927
  H   -1.80552117929634     -1.06780759871853     -1.44222553166302
  N   1.70573053851434      0.58618764125765      0.51737394289463
  H   1.34816690048036      1.51901069866384      0.67037259185441
  H   2.35548014768396      0.30474778637218      1.23416194699782
