11
Coordinates from ORCA-job run
  C   -0.51194581126813     -0.11903684357137     -0.22197119980577
  C   0.65305366289409     -0.35177977330765      0.43426862929421
  H   0.93914968506393     -1.37935780833001      0.64861380119225
  C   -0.85530103654582      1.23255220892537     -0.54047933835792
  N   -1.06810868039890      2.35829895399959     -0.81314953781571
  N   -1.48691357563931     -1.10288490021494     -0.53114508101851
  H   -1.23836544305084     -2.00240816923268     -0.14285127086271
  H   -1.63849970984107     -1.19125370491815     -1.52808238379177
  N   1.46895510337800      0.61202178223877      1.00857347863420
  H   1.28648201407813      1.55688553992814      0.69792663541046
  H   2.45149379132991      0.38796271448294      0.98829626712127
