11
Coordinates from ORCA-job run
  C   -0.52416028440934      0.15344511401058     -0.01931948938239
  C   0.61171099261877      0.39310653214361      0.68396770263877
  H   0.60080255493718      1.08565003009538      1.52054036653238
  C   -1.74438628191831      0.81056290084076      0.32347795513706
  N   -2.77739359188968      1.31788375961757      0.57517048843092
  N   -0.46455987877553     -0.76117587675066     -1.12369621555500
  H   -0.55412925971519     -0.26825850937947     -2.00508292383524
  H   -1.21979901273073     -1.43394272020735     -1.07048596755034
  N   1.82358831803244     -0.13743500514794      0.34069348058293
  H   1.75113789453774     -0.91038159526382     -0.30635678048666
  H   2.49618854931265     -0.24845462995865      1.08009138348757
