11
Coordinates from ORCA-job run
  C   -0.47802158592566      0.24773612497795     -0.09490359430874
  C   0.77085221506583      0.51787736279081      0.36279111570024
  H   1.02305248501535      1.51785480503174      0.70358204071418
  C   -1.47105729798322      1.27270831868827     -0.14129645682900
  N   -2.32485510636241      2.08298342847929     -0.18564982783384
  N   -0.76940973789880     -1.08413307972539     -0.54273941079100
  H   -0.88461097577127     -1.10958629231025     -1.54963319431896
  H   -1.62969768368735     -1.41976613836154     -0.12675988875837
  N   1.78433361065041     -0.39865179644231      0.34382614809011
  H   2.51544959560150     -0.28042077941993      1.02428996615247
  H   1.46196448129563     -1.34660195370863      0.20649310218291
