11
Coordinates from ORCA-job run
  C   -0.53311697489540      0.11788011697240     -0.01161207517740
  C   0.63456837167177      0.59656691540881      0.48812139048657
  H   0.63923395081417      1.49145531667831      1.10358008777235
  C   -1.76699962369782      0.78326764747722      0.25972174230301
  N   -2.81109878851916      1.28793440933485      0.46668073856206
  N   -0.49564301219333     -1.06311894819856     -0.82601874143911
  H   -0.69854790437760     -0.84093080729320     -1.79413347604122
  H   -1.18841044113726     -1.73264710337305     -0.51343798333764
  N   1.85081921194715      0.05091708904113      0.18670339065968
  H   1.78341781736400     -0.87246738223962     -0.21852259908854
  H   2.58577739302348      0.18014274619170      0.86091752530024
