11
Coordinates from ORCA-job run
  C   -0.51013919172275      0.19100838063931     -0.04057371001202
  C   0.64591300892178      0.42678088180483      0.63025922658879
  H   0.69429180777631      1.21585038368346      1.37509424497537
  C   -1.67325251121596      0.97835668276927      0.21597711970708
  N   -2.66165975967727      1.59188755823725      0.40134108682412
  N   -0.53046151795362     -0.85626560501366     -1.02163159646980
  H   -0.59417911266463     -0.47254942103452     -1.95783697753925
  H   -1.33236810104395     -1.45907655932016     -0.88208598405128
  N   1.81074129683739     -0.23470291449624      0.35894774831019
  H   2.47711809646077     -0.30599220421538      1.10884880196721
  H   1.67399598428194     -1.07329718305416     -0.18833996030041
