11
Coordinates from ORCA-job run
  C   -0.53395821672535     -0.12394819825585     -0.16569193641737
  C   0.81262514809817     -0.25412675116320     -0.05549412105819
  H   1.29927077669275     -1.10362755754672     -0.52927178091627
  C   -1.15716651023241      1.00415945326967      0.45273681701571
  N   -1.60522846652485      1.96466363676389      0.96620726521718
  N   -1.40741364137539     -1.07352120076500     -0.76164260157672
  H   -0.90811262045765     -1.91292332063002     -1.02365123897514
  H   -1.87547760295066     -0.69574412142912     -1.57610822362561
  N   1.67319166242191      0.64641481013834      0.55183759198726
  H   1.22341445682420      1.32312747077377      1.15285331848742
  H   2.47785501422928      0.22552577884425      0.98822490986172
