11
Coordinates from ORCA-job run
  C   -0.62248342914923      0.20367661292835     -0.04094590449876
  C   0.54183541249699      0.35699577091380      0.63772341738469
  H   0.62401040554928      1.13318115449115      1.39150433926059
  C   -1.66938561146116      1.15797741195299      0.15462849503717
  N   -2.51836408691116      1.96280365243644      0.28183000120971
  N   -0.91719592928248     -0.89427692781661     -0.88235573430612
  H   -0.95831235981992     -0.67555899639317     -1.86772440852182
  H   -0.33150798445780     -1.69542818688022     -0.69931961665419
  N   1.61987853393695     -0.51207851863927      0.52531776720297
  H   2.47943410082618     -0.15001288418228      0.90504402028169
  H   1.75209094827236     -0.88627908881117     -0.40370237639593
