11
Coordinates from ORCA-job run
  C   -0.43446899316575     -0.20018961402011     -0.20126091341829
  C   0.72632368694692     -0.34354480398774      0.48627808747427
  H   1.00975986966046     -1.35152881511455      0.77430584267263
  C   -0.84067126504189      1.10948276631903     -0.61326256126319
  N   -1.15052917100397      2.19547238248716     -0.95100707740378
  N   -1.22795403497960     -1.35376959747079     -0.49651518000252
  H   -1.37932681331169     -1.44067215126567     -1.49398238553276
  H   -2.13569804235630     -1.29044258894036     -0.05154134848623
  N   1.53726422301407      0.66618021344683      0.93131163471656
  H   1.39416379192840      1.57871769150138      0.52434745347378
  H   2.50113674830933      0.43029451704482      1.09132644776953
