11
Coordinates from ORCA-job run
  C   -0.43241115855935     -0.19819250206557     -0.20786408850486
  C   0.73718607412295     -0.35354555856286      0.46190583886431
  H   0.96522858914394     -1.34727298442497      0.83584078034072
  C   -0.78030002459148      1.09792250586663     -0.70692504262824
  N   -1.05109340595620      2.17568761478232     -1.10007273033730
  N   -1.28923178081977     -1.32716067494990     -0.40484634477925
  H   -1.39816920037216     -1.52930285774645     -1.39139317789507
  H   -2.21038680749089     -1.15070968724180     -0.02309169052456
  N   1.70418854936217      0.59945325955809      0.64045526267063
  H   2.31634525630486      0.47568987092716      1.42799249616549
  H   1.43764390885592      1.55743101385733      0.46699869662813
