11
Coordinates from ORCA-job run
  C   -0.51858707625133      0.17202472091237      0.00678318437085
  C   0.68891615306039      0.46613205855479      0.55258570359017
  H   0.78271829938472      1.27927932797449      1.26641940780007
  C   -1.67789959785799      0.93050198021506      0.35189645786782
  N   -2.66526479160812      1.51786935836569      0.61240840626996
  N   -0.59782429751715     -0.90457232178939     -0.93877359746065
  H   -1.36230959926082     -1.52710697263640     -0.70701555752557
  H   -0.76204742377616     -0.55196355892245     -1.87485367375801
  N   1.84336641061109     -0.16656640909040      0.18634746867182
  H   2.58529002001137     -0.18947499321494      0.86462829412341
  H   1.68464190320400     -1.02512319036881     -0.32242609394988
