11
Coordinates from ORCA-job run
  C   -0.42121342202491     -0.20816118014657     -0.22040305967470
  C   0.62837592789728     -0.28744117545848      0.63562461297510
  H   0.69721516155637     -1.17821651887803      1.25282616265523
  C   -0.55955445449138      0.95497323966363     -1.04389164958239
  N   -0.65864552247992      1.92678239268149     -1.70361614956019
  N   -1.36134296367095     -1.28471824748319     -0.28657993870340
  H   -1.35667560957469     -1.71254287731572     -1.20449616087373
  H   -2.30092050990599     -0.95394072295010     -0.10502926697425
  N   1.66253055874791      0.60494663711133      0.73849196338195
  H   1.52315372669729      1.51164715689589      0.31746487054711
  H   2.14607710724901      0.62867129587976      1.61960861580926
