11
Coordinates from ORCA-job run
  C   0.82493415036304      0.31450576460520     -0.10754365740607
  C   -0.49800390371692     -0.41799779907063      0.10479995062338
  Br  0.65272887850774      2.20158307043861      0.38153842512539
  H   -0.31370467422292     -1.47227360289581     -0.12524564243743
  H   1.07327620634183      0.30845863546018     -1.17000935612332
  H   -0.76921003490451     -0.34930407511739      1.16716851595190
  C   1.90086485016124     -0.28090195457536      0.67212223358928
  N   2.74244932206310     -0.80506715507690      1.30193392859973
  N   -1.49044484898563      0.09040397712856     -0.82740948221053
  H   -2.26011707843312     -0.56173710284951     -0.90120731488909
  H   -1.86277286717385      0.97133024195307     -0.49614760082325
