19

C	0.0	0.0	0.0
C	-0.19828	-0.066721	-1.569854
F	1.404804	0.0	0.0
H	0.629617	0.539556	-1.947122
N	-0.474028	1.169548	0.649384
H	-0.381609	1.968	0.032912
H	-1.476683	1.038871	0.797193
C	-0.470277	-1.22624	0.744804
H	0.048814	-2.119032	0.396838
H	-1.550187	-1.334692	0.624632
H	-0.240106	-1.073703	1.800857
N	-1.378575	0.670017	-2.148945
O	-2.152265	0.065605	-2.88022
O	-1.398815	1.885403	-1.94959
C	-0.122464	-1.465995	-2.141559
H	-0.988783	-2.053397	-1.837696
H	-0.098621	-1.434781	-3.231973
H	0.792868	-1.943772	-1.785898
Cl	-3.659329	0.0	0.0
