19

C	0.0	0.0	0.0
C	-0.246942	-0.005408	-1.544301
F	1.401085	0.0	0.0
H	0.111832	-0.96235	-1.927485
N	-0.476272	1.126777	0.725484
H	-0.313328	1.974338	0.195148
H	-1.47892	1.020721	0.866685
C	-0.510944	-1.275997	0.624863
H	-0.22113	-1.28017	1.677178
H	-1.601667	-1.31393	0.554899
H	-0.073869	-2.144345	0.127989
N	0.697061	0.983078	-2.165309
O	1.535785	0.562646	-2.960079
O	0.560155	2.169466	-1.862006
C	-1.635871	0.31009	-2.041677
H	-2.370721	-0.392309	-1.653536
H	-1.958336	1.293538	-1.703947
H	-1.643738	0.28137	-3.135854
Cl	-4.164552	0.0	0.0
