19

C	0.0	0.0	0.0
C	-0.480889	-0.161678	-1.453253
F	1.388054	0.0	0.0
H	-1.56497	-0.3049	-1.413319
N	-0.478004	1.277575	0.456411
H	-0.275458	1.346034	1.449532
H	-1.499347	1.239863	0.375465
C	-0.406022	-1.167662	0.885862
H	0.038581	-2.10375	0.544605
H	-0.042957	-0.963953	1.898334
H	-1.493085	-1.253012	0.89605
N	0.079518	-1.438359	-2.001244
O	1.186207	-1.403331	-2.542667
O	-0.596814	-2.45976	-1.868889
C	-0.077572	0.993675	-2.344989
H	-0.595203	1.890939	-2.010873
H	-0.354858	0.784905	-3.380862
H	0.998121	1.159386	-2.291906
Cl	-3.665049	0.0	0.0
