19

C	0.0	0.0	0.0
C	-0.238188	-0.184289	-1.534393
F	1.402234	0.0	0.0
H	0.131299	-1.175536	-1.802096
N	-0.48195	1.200177	0.590546
H	-0.32062	1.981788	-0.033128
H	-1.484955	1.106689	0.738803
C	-0.518265	-1.195225	0.761338
H	-1.609294	-1.22974	0.694196
H	-0.088624	-2.117016	0.364738
H	-0.228617	-1.086281	1.808409
N	0.69984	0.733651	-2.263297
O	0.561368	1.94545	-2.089915
O	1.533412	0.231267	-3.014977
C	-1.625517	0.056947	-2.07471
H	-2.350213	-0.621035	-1.629513
H	-1.969218	1.060928	-1.836717
H	-1.61776	-0.078027	-3.160708
Cl	-4.125454	0.0	0.0
