19

C	0.0	0.0	0.0
C	-0.451298	-0.131225	-1.481409
F	1.382236	0.0	0.0
H	-1.494784	-0.455774	-1.461942
N	-0.466583	1.202199	0.622294
H	-1.481739	1.123305	0.704217
H	-0.255839	2.007141	0.045055
C	-0.439354	-1.185425	0.835837
H	-0.065807	-1.024702	1.848533
H	-0.021066	-2.108288	0.435944
H	-1.527143	-1.249227	0.845474
N	0.329058	-1.234579	-2.125361
O	-0.081013	-2.386453	-1.974848
O	1.349341	-0.93857	-2.748964
C	-0.286796	1.140317	-2.289386
H	-1.066074	1.844225	-1.99675
H	-0.409189	0.932681	-3.353338
H	0.700478	1.580914	-2.141452
Cl	-3.660162	0.0	0.0
