14
Coordinates from ORCA-job run
  C   -0.26706385906254      0.48087692331255     -0.40166605575116
  C   1.01404415860913     -0.17674429147123      0.13808361587623
  H   -0.36344447887327      0.21611185396925     -1.46248004765489
  H   1.06936598458420      0.01667188733834      1.21346576190948
  H   1.88692640196877      0.30470965717640     -0.32368821408048
  C   -0.13288019008734      1.93822824810692     -0.33052586973203
  N   -0.01300296367613      3.10305264962021     -0.24319175650404
  C   -1.51351720497507      0.00809740017574      0.34796660863292
  H   -1.46574943831523      0.32010727437837      1.39407888130126
  H   -1.55721619745891     -1.07944412302447      0.30728694551937
  H   -2.42020031955767      0.42585740775535     -0.09308036297040
  N   0.94715453628679     -1.61917906251921     -0.07638794812470
  H   1.23580535294175     -1.84181529473171     -1.02099605909204
  H   1.57977821761550     -2.09653053008653      0.55213450067048
