14
Coordinates from ORCA-job run
  C   -0.37649326584622      0.32120389386645     -0.61525698832898
  C   0.75579097945834     -0.69964748197990     -0.42167449360824
  H   -0.68435424749202      0.29362292555552     -1.66734275494198
  H   0.33814368949133     -1.69419342571187     -0.60591191377440
  H   1.52736119611637     -0.51929470517674     -1.18461482051375
  C   0.14993895630434      1.66469431362536     -0.35138562781436
  N   0.60433212122050      2.72051327025086     -0.11113881021371
  C   -1.58090493534525      0.02676610154980      0.28196955439940
  H   -2.36350242352972      0.77565932419363      0.14814257392836
  H   -1.99258161514298     -0.95308163222320      0.02750416285534
  H   -1.26934871290097      0.01148395987276      1.32514866555772
  N   1.24615114768661     -0.65057479195675      0.95060811381206
  H   1.83072839787526      0.16754635551516      1.07756886278186
  H   1.81573871210442     -1.46369810738108      1.14638347586069
