15

C	0.0	0.0	0.0
C	-0.527495	0.317689	-1.385681
F	1.351259	0.0	0.0
H	-0.220484	1.353971	-1.567302
H	-1.6196	0.29519	-1.315077
N	-0.509721	0.792993	1.063224
H	-0.218122	1.752408	0.911427
H	-1.53315	0.753532	1.017605
N	-0.335026	-1.47149	0.346628
O	-1.120811	-2.081982	-0.372561
O	0.239622	-1.932896	1.327607
N	0.045289	-0.553024	-2.413871
H	0.11288	-0.039517	-3.281453
H	-0.594954	-1.321837	-2.56065
Br	-3.923342	0.0	0.0
