17

C	0.0	0.0	0.0
C	-0.411502	0.016399	-1.516616
Cl	1.767827	0.0	0.0
H	0.360453	0.618391	-1.999703
N	-0.300765	1.429048	0.582485
O	-0.689866	1.478523	1.743161
O	-0.082821	2.395454	-0.139578
N	-0.618699	-1.000738	0.751658
H	-1.634107	-0.890829	0.656638
H	-0.384698	-0.915064	1.732803
N	-1.669408	0.5986	-1.886859
H	-2.476004	0.2119	-1.396289
H	-1.668134	1.597803	-1.731662
N	-0.268217	-1.358129	-1.973859
H	-0.831962	-1.956453	-1.38086
H	-0.68402	-1.375117	-2.898958
Br	-4.288683	0.0	0.0
