17

C	0.0	0.0	0.0
C	-0.405278	-0.056992	-1.530401
Cl	1.777622	0.0	0.0
H	0.320311	0.593825	-2.022197
N	-0.304015	1.432547	0.551705
O	-0.152272	2.37629	-0.216616
O	-0.632227	1.512572	1.729877
N	-0.578278	-0.999476	0.783689
H	-0.404274	-0.833582	1.767881
H	-1.59099	-0.988864	0.636384
N	-1.707547	0.413056	-1.868935
H	-2.480529	-0.054431	-1.39688
H	-1.804043	1.397891	-1.66476
N	-0.228636	-1.407258	-2.041616
H	0.638068	-1.791774	-1.681577
H	-0.978596	-1.984879	-1.674386
Br	-4.375916	0.0	0.0
