17

C	0.0	0.0	0.0
C	-0.412906	0.031567	-1.512874
Cl	1.767981	0.0	0.0
H	0.332676	0.678112	-1.981201
N	-0.306033	1.418619	0.602903
O	-0.665386	1.447809	1.774799
O	-0.114225	2.395334	-0.111435
N	-0.608045	-1.016255	0.740132
H	-0.372618	-0.938439	1.721754
H	-1.623481	-0.912509	0.650533
N	-1.692976	0.573762	-1.863422
H	-1.728769	1.570249	-1.69002
H	-2.483927	0.15407	-1.37476
N	-0.219977	-1.325455	-2.002477
H	-0.670232	-1.34951	-2.910378
H	-0.723264	-1.965985	-1.398033
Br	-4.325409	0.0	0.0
