17

C	0.0	0.0	0.0
C	-0.630726	0.665858	-1.220327
Cl	1.755171	0.0	0.0
H	-1.681808	0.800078	-0.929894
N	-0.309773	1.046489	1.197075
O	-1.500547	1.216409	1.404
O	0.603804	1.564763	1.827248
N	-0.600433	-1.245396	0.248173
H	-0.300694	-1.643863	1.129222
H	-1.620406	-1.114349	0.249428
N	-0.482273	-0.218248	-2.378134
H	-1.281502	-0.05102	-2.980676
H	-0.570522	-1.176846	-2.053914
N	-0.041627	1.970916	-1.421248
H	0.757631	1.862499	-2.0355
H	-0.713319	2.57756	-1.871669
Br	-4.094125	0.0	0.0
