17

C	0.0	0.0	0.0
C	-0.674313	0.196443	-1.375559
Cl	1.80803	0.0	0.0
H	-1.496181	0.886549	-1.169
N	-0.262809	1.240549	0.886972
O	-0.151979	1.062376	2.094681
O	-0.504919	2.306005	0.338876
N	-0.531726	-1.090597	0.662205
H	-0.612408	-1.892017	0.054076
H	-0.131908	-1.262624	1.570086
N	-1.213317	-1.099276	-1.807841
H	-2.14555	-1.15612	-1.382097
H	-1.359981	-1.038565	-2.808845
N	0.222689	0.817515	-2.319222
H	-0.318797	1.207519	-3.080147
H	0.862757	0.124617	-2.691002
Br	-4.023474	0.0	0.0
