14

C	0.0	0.0	0.0
C	-0.538123	-0.000634	-1.4589
Cl	1.78849	0.0	0.0
H	0.337353	0.015217	-2.118418
H	-0.318481	0.916634	0.491807
C	-0.404225	-1.147224	0.814372
N	-0.578316	-2.057625	1.535157
N	-1.252024	1.263759	-1.636936
H	-2.114721	1.13408	-1.08305
H	-1.533641	1.315703	-2.612324
N	-1.262287	-1.237929	-1.718809
H	-2.129733	-1.14241	-1.172638
H	-1.532506	-1.22458	-2.699229
H	-3.109521	0.0	0.0
