14

C	0.0	0.0	0.0
C	-0.615637	-0.037353	-1.39177
Cl	1.782882	0.0	0.0
H	-1.681899	0.160429	-1.157164
H	-0.333551	0.925927	0.470003
C	-0.415109	-1.132979	0.832704
N	-0.608069	-2.062145	1.525398
N	-0.410909	-1.356234	-2.005213
H	-0.93754	-2.027165	-1.447462
H	-0.893055	-1.324361	-2.899213
N	-0.064081	1.034142	-2.190953
H	-0.730805	1.27974	-2.912425
H	0.789063	0.707533	-2.633846
H	-3.137647	0.0	0.0
