14

C	0.0	0.0	0.0
C	-0.539797	0.042446	-1.458892
Cl	1.778056	0.0	0.0
H	0.333686	0.066614	-2.116646
H	-0.32244	0.901639	0.516351
C	-0.408028	-1.173996	0.775778
N	-0.565528	-2.134313	1.433568
N	-1.251657	1.312841	-1.600781
H	-1.530409	1.396753	-2.5754
H	-2.117014	1.153408	-1.054205
N	-1.270624	-1.185425	-1.749897
H	-2.138939	-1.097551	-1.200968
H	-1.529952	-1.159537	-2.731617
H	-3.097511	0.0	0.0
