14

C	0.0	0.0	0.0
C	-0.626146	0.010659	-1.373992
Cl	1.797063	0.0	0.0
H	-1.709999	0.003392	-1.086707
H	-0.324498	0.90022	0.521419
C	-0.39328	-1.180712	0.777176
N	-0.552783	-2.129111	1.450702
N	-0.313152	-1.213709	-2.088204
H	0.577403	-1.138859	-2.56782
H	-1.038274	-1.397852	-2.770012
N	-0.328439	1.283567	-2.020818
H	-1.068107	1.485608	-2.682998
H	0.547891	1.223838	-2.529448
H	-3.149407	0.0	0.0
