14

C	0.0	0.0	0.0
C	-0.449346	0.172812	-1.490309
Cl	1.789224	0.0	0.0
H	0.254417	-0.447859	-2.066236
H	-0.369716	0.831549	0.596327
C	-0.40991	-1.289451	0.54985
N	-0.633846	-2.3665	0.961234
N	-0.290723	1.599555	-1.792765
H	-1.00442	1.797599	-2.483349
H	0.61454	1.773187	-2.210144
N	-1.78244	-0.23306	-1.807368
H	-2.507125	0.003648	-1.052652
H	-1.817405	-1.245619	-1.86317
H	-3.580098	0.0	0.0
