14

C	0.0	0.0	0.0
C	-0.524386	0.033974	-1.426385
Cl	1.795945	0.0	0.0
H	-1.618493	0.032469	-1.234077
H	-0.348884	0.889709	0.520957
C	-0.410446	-1.210422	0.715371
N	-0.540657	-2.205821	1.325176
N	-0.146456	-1.184719	-2.120682
H	-0.749325	-1.315155	-2.923175
H	0.814954	-1.132235	-2.441759
N	-0.146156	1.305758	-2.039896
H	-0.753598	1.471465	-2.833675
H	0.809366	1.255064	-2.381295
H	-2.994048	0.0	0.0
