16

C	-0.526034	0.014426	-1.401788
C	0.0	0.0	0.0
Br	0.429489	-1.426099	-2.473724
H	1.088913	0.0	0.0
H	-0.341665	0.939196	0.45323
N	-1.928687	-0.076592	-1.539673
H	-2.192037	-0.087271	-2.51725
H	-2.259364	-0.913813	-1.080641
N	-0.127834	1.289237	-2.15125
O	-0.699942	1.489082	-3.223909
O	0.708074	2.019582	-1.643693
C	-0.50828	-1.187592	0.806641
H	-1.588056	-1.16726	1.007222
H	-0.257227	-2.129197	0.311533
H	0.008767	-1.187855	1.768712
F	2.649362	0.0	0.0
