16

C	-0.000836	-0.055697	-1.51826
C	0.0	0.0	0.0
Br	-0.27584	2.03975	-2.229246
H	1.094862	0.0	0.0
H	-0.452654	0.908356	0.383814
N	1.139795	-0.604547	-1.965765
H	1.237559	-0.723573	-2.962331
H	1.990952	-0.38738	-1.333216
N	-1.235333	-0.607302	-2.212007
O	-2.312049	-0.452902	-1.641618
O	-1.074615	-1.181562	-3.287266
C	-0.522201	-1.274568	0.649233
H	-0.076408	-2.149613	0.169231
H	-0.215732	-1.290185	1.699273
H	-1.610554	-1.360332	0.601161
F	2.772854	0.0	0.0
