16

C	-0.514717	0.006895	-1.412206
C	0.0	0.0	0.0
Br	0.109771	1.556508	-2.441622
H	1.092272	0.0	0.0
H	-0.344002	-0.952461	0.431789
N	-0.167925	-1.157299	-2.115925
H	-0.708653	-1.276318	-2.96197
H	-0.234228	-1.972315	-1.519028
N	-2.08248	0.168487	-1.339
O	-2.70619	-0.894719	-1.263281
O	-2.587857	1.279632	-1.241832
C	-0.457039	1.157059	0.876904
H	-1.522764	1.147523	1.130655
H	0.125759	1.11684	1.800342
H	-0.230754	2.11077	0.395944
F	2.618555	0.0	0.0
