11
Coordinates from ORCA-job run
  C   -0.76845160645317      0.53410789396890      0.22091610910815
  C   0.51228971716305      0.18818368185402     -0.09957227245997
  H   -1.18491620091140      1.50352819717063     -0.00704510869881
  N   -1.66011180424558     -0.34420229328983      0.91225898390130
  O   -1.26260873025123     -1.48004563828641      1.21360673246211
  O   -2.78091085698938      0.09322376389141      1.17081344089247
  C   1.28417043378331      1.20239979190471     -0.77019864866055
  N   1.93248088605262      2.02317906268428     -1.30834465442674
  N   1.13137941279992     -1.00848484373647      0.06384728665593
  H   0.66007553981258     -1.67979675161366      0.65138030065296
  H   2.13560320923927     -1.03209286454759      0.01233783057316
