11
Coordinates from ORCA-job run
  C   -0.76448483185659      0.52610923119609      0.06115939436031
  C   0.56150948056960      0.20390896435802      0.03500459066441
  H   -1.14909726822283      1.44628586286339     -0.35179184605629
  N   -1.76265618729252     -0.33781375422862      0.61041364232904
  O   -2.92849211590192      0.05129336766199      0.54911064927477
  O   -1.40773487374566     -1.41766186808850      1.10733138810512
  C   1.42845326291280      1.17519598560141     -0.58083280847258
  N   2.14979312755045      1.95219145258241     -1.09020706434897
  N   1.18078643671882     -0.87575326006135      0.57622587188940
  H   2.10932440288516     -1.09642474399639      0.25876004709807
  H   0.58259856638267     -1.62733123788844      0.88482613515671
