11
Coordinates from ORCA-job run
  C   -0.76468455111858      0.53405604508603      0.10564291963193
  C   0.54741526158250      0.18391531351494     -0.03001634728738
  H   -1.17425754890170      1.43781927721051     -0.31954823678906
  N   -1.71744228571744     -0.27770585873371      0.79712191978406
  O   -2.87741023752640      0.13202086799962      0.82781550864512
  O   -1.33231104153804     -1.33596179478278      1.31733774633469
  C   1.36505858481666      1.10167366419883     -0.78046320760829
  N   2.04391694122405      1.83464113264412     -1.40126861611493
  N   1.19972096896680     -0.87679476816467      0.50986268817329
  H   2.08898597320834     -1.13522246012905      0.11749394880653
  H   0.62200793500381     -1.59744141884386      0.91602167642405
