11
Coordinates from ORCA-job run
  C   -0.84127231759352     -0.31501645202596      0.22729028707125
  C   0.47759741523912     -0.13623887042727     -0.02717329714622
  H   -1.37671013975660     -1.21460723828275     -0.04613249537504
  N   -1.67808937491602      0.66654566287163      0.87050037246952
  O   -1.19510254816787      1.74741374252113      1.20162694841688
  O   -2.84997654593085      0.32414494185135      1.04207576217493
  C   1.20939159188177      1.04653621696637      0.34296973234070
  N   1.95323005448087      1.92293477851619      0.59212253221567
  N   1.23245084578753     -1.04449600167763     -0.73659913867298
  H   2.22459063225260     -1.02709204984301     -0.56238715309798
  H   0.84489038672298     -1.96912473047007     -0.84229355039674
