11
Coordinates from ORCA-job run
  C   -0.77638860634125      0.50812825673822      0.06741321240209
  C   0.53093149026668      0.14902875340350     -0.08922017466269
  H   -1.18866526105637      1.40855570386350     -0.36194368743621
  N   -1.70581078348978     -0.25943896207722      0.83650209579508
  O   -1.31530624281597     -1.31107725901853      1.36602991193997
  O   -2.85019260221628      0.18370692634323      0.92799474381220
  C   1.33553086613162      1.05062988445582     -0.87287575832806
  N   2.00751890151666      1.78244229751276     -1.50235754002228
  N   1.15442712487630     -0.98079334951882      0.33160789013184
  H   0.64915420885283     -1.54934865330606      0.99453571130565
  H   2.15980090427556     -0.98083359839641      0.36331359506240
