11
Coordinates from ORCA-job run
  C   -0.75766801122328      0.54729270694458      0.24742579307914
  C   0.52921303311101      0.20609240313606     -0.05258178802672
  H   -1.18400892919227      1.50332465835313     -0.01583938293794
  N   -1.66126712573027     -0.33969581873676      0.91175604416200
  O   -1.25367498435212     -1.46115995113963      1.25089086565626
  O   -2.80436017691983      0.07369787738945      1.10363573932873
  C   1.29493876123304      1.20690807171879     -0.74993574454528
  N   1.93202043976213      2.00678820432063     -1.33102070962676
  N   1.20510421415398     -0.92267902643662      0.28160216682427
  H   0.65064632276782     -1.68612615286400      0.63914988478696
  H   2.04905645638978     -1.13444297268563     -0.22308286870065
