11
Coordinates from ORCA-job run
  C   -0.79890232060722     -0.38162668418033      0.34248916491997
  C   0.50436722792275     -0.14590161971588      0.05563889023247
  H   -1.25252309521105     -1.36012749784961      0.25478345059472
  N   -1.71737777334460      0.62723074851898      0.80672065701834
  O   -1.31472734796091      1.77561857454017      0.98110799463792
  O   -2.87238990189961      0.23811958040738      0.99331080015299
  C   1.12094619822995      1.15088612889597      0.15056618064347
  N   1.76742121474476      2.13345475660187      0.15228687275196
  N   1.38828082866859     -1.14694168649207     -0.28316636817664
  H   0.98549696517987     -2.02664097262019     -0.56701185572059
  H   2.18940800427747     -0.86407132810631     -0.82472578705462
