11
Coordinates from ORCA-job run
  C   -0.76531957043495      0.52931595879778      0.08397059403711
  C   0.54738075406996      0.17547937010686     -0.03583492317425
  H   -1.17517601885176      1.41479759397089     -0.37766504229824
  N   -1.71882826993519     -0.25685920676061      0.80323101682293
  O   -1.33366608314927     -1.29383958399114      1.36482489885190
  O   -2.87939712593529      0.15239276277367      0.81573077280761
  C   1.36565417870208      1.06612428495315     -0.81757064368180
  N   2.04564650999188      1.77721457722740     -1.46217775401551
  N   1.19996394185093     -0.86331132272468      0.54473587041223
  H   0.62287598079027     -1.56865616080473      0.97772383413804
  H   2.09086570290134     -1.13365827354859      0.16403137609999
