11
Coordinates from ORCA-job run
  C   -0.84580093567293     -0.28882125971509      0.09050712688051
  C   0.48639152327675     -0.07695609822445     -0.03766000758390
  H   -1.37821101598931     -1.04705281780992     -0.46860563864095
  N   -1.70245494805021      0.47234932366599      0.96457699079681
  O   -1.22485332912216      1.38871674469187      1.63027690226571
  O   -2.88474070133379      0.12255394207846      0.97338249324582
  C   1.21233556422613      0.91605299231547      0.70947308458511
  N   1.95239714015569      1.65478007423227      1.24808646142822
  N   1.26553278840253     -0.74516223774910     -0.95702418372554
  H   0.87259137645962     -1.58421379985523     -1.35496483862650
  H   2.24681253764767     -0.81124686363027     -0.73804839062528
