11
Coordinates from ORCA-job run
  C   -0.63205462543458      0.64653285243809      0.42056356868832
  C   0.52085452854994      0.14353784755681     -0.11101136824335
  H   -0.83536701146272      1.70551118604717      0.46292065671345
  N   -1.63313918494979     -0.17172544143480      1.02889010427034
  O   -1.48279632782935     -1.40312486114414      1.01056452608476
  O   -2.59708493343025      0.40419733526539      1.53266926292305
  C   1.43195812590278      1.12286146701594     -0.64537069194046
  N   2.18611072138018      1.91243668077439     -1.08270279532435
  N   0.87975922198162     -1.15281612977227     -0.27946271274010
  H   0.31294133621716     -1.84294662723049      0.18770886631929
  H   1.84581814907502     -1.36346430951608     -0.46376941675095
