11
Coordinates from ORCA-job run
  C   -0.77752124370967      0.52181213338390      0.16647484720386
  C   0.50708819259751      0.16276908651577     -0.12282782072625
  H   -1.21390258886996      1.45005447676882     -0.16994940018405
  N   -1.64915325603807     -0.28661288113071      0.96083945405902
  O   -1.22864442706529     -1.37218353641719      1.38957813775397
  O   -2.77682722693932      0.15720444073493      1.17451870913165
  C   1.25645963306149      1.10581365395597     -0.91244034438874
  N   1.88664276873632      1.86966062247769     -1.54720759249802
  N   1.14912072974140     -0.99454707089656      0.17526836843861
  H   0.69418988197369     -1.60292742598112      0.83922516805645
  H   2.15254753651191     -1.01204349941150      0.10952047315350
