11
Coordinates from ORCA-job run
  C   -0.76905306212634      0.53080594180195      0.12787026861060
  C   0.55355854585857      0.21246993012294      0.01756216249203
  H   -1.17283255870490      1.47170600033110     -0.21399865227765
  N   -1.73944968589791     -0.36245945342823      0.68015178238897
  O   -1.36154106689424     -1.46760820571697      1.09843349538222
  O   -2.90589978915904      0.02906531489026      0.70163719449542
  C   1.38963507667696      1.21768752031680     -0.58618468097455
  N   2.08539795096985      2.02245411250526     -1.08799657130009
  N   1.19750560226550     -0.89427457675650      0.46739941837622
  H   2.10912578679572     -1.09594319549505      0.09338910305430
  H   0.61355320021583     -1.66190338857154      0.76373647975253
