11
Coordinates from ORCA-job run
  C   -0.65654188574517      0.64434441553969      0.26823452108384
  C   0.53541677300775      0.10280715082869     -0.10588588599803
  H   -0.87070843704612      1.69640782587862      0.17525370419771
  N   -1.67553544563591     -0.11529054081927      0.92756918644510
  O   -2.66008544560334      0.51102680770406      1.31803791576190
  O   -1.50914630989294     -1.33398543317600      1.07441353631682
  C   1.46561520307370      1.05060423898267     -0.67088496925414
  N   2.20283860081449      1.84778105925309     -1.12183379331078
  N   0.92013959115078     -1.20147869524989     -0.10536162693405
  H   0.34078687437982     -1.81816918992400      0.43746582699181
  H   1.90622048149694     -1.38204763901766     -0.13500841530019
