11
Coordinates from ORCA-job run
  C   -0.65025369029787      0.64331718934843      0.38743928414666
  C   0.57161316272539      0.16029184374679      0.01635459845113
  H   -0.88072278476962      1.69741124479984      0.41560456971713
  N   -1.73660454415767     -0.20572804530048      0.76405410785639
  O   -1.56227584933280     -1.43407361527660      0.76107769057766
  O   -2.79291956577482      0.34714842761521      1.06903413207992
  C   1.54752017843459      1.15120111652252     -0.35818575232975
  N   2.34826404280357      1.95515078307205     -0.66814957362474
  N   1.00385864007555     -1.12485338528802      0.01215780961122
  H   1.84458935991235     -1.35110209268662     -0.49104848183578
  H   0.30493105038134     -1.83776346655310      0.15166161535015
