11
Coordinates from ORCA-job run
  C   -0.81097555480501     -0.37498350907174      0.28518942498627
  C   0.49115059551281     -0.13071291751400      0.00048317458067
  H   -1.31779123164124     -1.28416073320280     -0.01026397678720
  N   -1.65905415267572      0.53027040819350      1.01891763169585
  O   -1.19170125870328      1.58483609296162      1.44413055606209
  O   -2.82563819938992      0.15667360673030      1.15990641078800
  C   1.17606389232276      1.07931252988148      0.37162209549715
  N   1.87050310100428      2.00611192190283      0.57696526149554
  N   1.30985422853109     -1.05634586224874     -0.60886672793697
  H   2.10411372975568     -0.68515607935550     -1.10528982726085
  H   0.85247485008856     -1.82584545827695     -1.07279402312054
