11
Coordinates from ORCA-job run
  C   -0.75968107474639      0.54612391265077      0.22470992226564
  C   0.52551954044421      0.19406586273373     -0.07016664248152
  H   -1.19396022386320      1.48352005427212     -0.08811218087264
  N   -1.65252277554182     -0.30665183697924      0.94578511880649
  O   -1.23533291652148     -1.40487667240981      1.34441834528271
  O   -2.79645953969013      0.11064208540495      1.12406929675431
  C   1.27947955688024      1.15923588044911     -0.82779450776815
  N   1.90626980713327      1.93095047415625     -1.45639036889393
  N   1.21016171823977     -0.91139067031358      0.31874200241950
  H   2.05144015691218     -1.14632596636949     -0.17995308088909
  H   0.66408575075336     -1.65529312359482      0.72669209537667
