11
Coordinates from ORCA-job run
  C   -0.57302623085003     -0.16130627065619      0.86127271764531
  C   0.45000662076138     -0.21210002906780     -0.02583138130296
  H   -0.64074670848050     -0.81681495259663      1.71951216621491
  N   -1.68154936606125      0.75422075537743      0.76114387937948
  O   -2.50374542863612      0.68261574700486      1.67705390951018
  O   -1.74174173868441      1.52760006511350     -0.19252660527199
  C   0.56596004241828      0.66372292528076     -1.16195799448947
  N   0.82273825009771      1.30586247655495     -2.11333219750886
  N   1.44434596819712     -1.16429026751761      0.03261378772094
  H   1.53894410175010     -1.66318773608805      0.90367172959483
  H   2.31981448948772     -0.91532271340524     -0.39962001149237
