11
Coordinates from ORCA-job run
  C   -0.86847290556326     -0.06420279243292     -0.03840192513326
  C   0.48536603750174     -0.12041891003151     -0.01896771757263
  H   -1.46522179413714     -0.52233370562166     -0.81614132363371
  N   -1.66077191884159      0.61303252890177      0.95675063717916
  O   -1.09835889075454      1.20503721122356      1.87572407746917
  O   -2.88088181676548      0.53486869921360      0.79707970970616
  C   1.29443661310700      0.47018605245885      1.01440228296008
  N   2.09354861449187      0.87153331645724      1.77845777753928
  N   1.22520427635626     -0.68479912391946     -1.03535563464129
  H   0.72946944599901     -1.29149025215543     -1.66993914512703
  H   2.14468233860613     -1.01041302409402     -0.78360873874592
