11
Coordinates from ORCA-job run
  C   -0.85170081344512     -0.25280689719411      0.05003438732173
  C   0.50030726247424     -0.16368121338657      0.06024555162176
  H   -1.38937308768615     -0.97165937452910     -0.55410960934417
  N   -1.72066331184036      0.58657188436734      0.83584762737061
  O   -2.92692316156080      0.39724518506713      0.66467416172964
  O   -1.23024694559265      1.41495727810161      1.60041352947098
  C   1.23082849673579      0.79995518838186      0.84064013140563
  N   1.97181657976955      1.52892075405729      1.39097433046669
  N   1.31347602471846     -1.04326544620782     -0.62095023287627
  H   2.22841401291137     -0.69899272682175     -0.86501988703378
  H   0.87406494351567     -1.59724463183588     -1.33974999013281
