11
Coordinates from ORCA-job run
  C   -0.70219060693244      0.65956697644022      0.23442766628513
  C   0.51906937122060      0.14835002255548     -0.09526680783225
  H   -0.94716245642301      1.70862808279393      0.15029834598719
  N   -1.71240464680651     -0.11894717089261      0.89489434787737
  O   -1.53878976241920     -1.33426247238187      1.05468084004568
  O   -2.69721805487746      0.50390766602916      1.28931528929342
  C   1.50725468935366      1.05660396619366     -0.61512110743127
  N   2.43434805321393      1.69292520252824     -0.96812796784759
  N   0.99429366686200     -1.10936925051845      0.10492237030476
  H   0.33888620382372     -1.80185671744803      0.42664642514340
  H   1.80291354298471     -1.40754630529971     -0.41566940182585
