11
Coordinates from ORCA-job run
  C   -0.68597483930951      0.63440818323036      0.25431893761505
  C   0.57684582710648      0.16208402287155      0.04289368721124
  H   -0.95409632402704      1.66935092599928      0.10532591174764
  N   -1.77089493293153     -0.20437319024666      0.65955949333835
  O   -1.55130285298416     -1.40959587909782      0.85466625585558
  O   -2.87048028981815      0.33325962592869      0.78682765291681
  C   1.54470909995285      1.13668192209794     -0.39021670569735
  N   2.34671871236413      1.91611011795317     -0.75477400577806
  N   1.05976356028635     -1.08807693321153      0.25813364272535
  H   0.37456762317641     -1.80974618298963      0.42469157685331
  H   1.92914441618417     -1.34010261253533     -0.18042644678794
