11
Coordinates from ORCA-job run
  C   -0.66111947271435      0.62348417185416      0.41326133833971
  C   0.56736656788202      0.17545371044794      0.02220707501485
  H   -0.87317634769776      1.66772533574269      0.58532867178652
  N   -1.76591800427390     -0.25138246006893      0.65419967039882
  O   -2.81544869197686      0.26904616464122      1.03066761928047
  O   -1.61034788752645     -1.46932240894299      0.47628848711988
  C   1.57582426179816      1.18944386553613     -0.15030529195761
  N   2.41233417619677      2.00544301376058     -0.28419373276912
  N   0.94481370371669     -1.08808422013082     -0.29595161697827
  H   1.92794055004555     -1.29741546986184     -0.32803513345522
  H   0.29673114455013     -1.82439170297815     -0.06046708678004
