11
Coordinates from ORCA-job run
  C   -0.67210445431680      0.59742988705890      0.44679666571340
  C   0.54440317544079      0.19692083623276     -0.02470266501151
  H   -0.96779523647007      1.63454711168928      0.49311684417363
  N   -1.67257942143652     -0.32204394498093      0.89240241665618
  O   -1.41523109344555     -1.53556576015944      0.87567717205235
  O   -2.74110664278923      0.15826066930056      1.26843616762391
  C   1.42350360338563      1.25429622507549     -0.45433735540853
  N   2.14989408958447      2.10564564605081     -0.81663325947217
  N   1.06351352491101     -1.05511034111652     -0.07078794847607
  H   1.86418042856087     -1.21886488130120     -0.65698105536874
  H   0.42432202657540     -1.81451544784972      0.10801301751756
