11
Coordinates from ORCA-job run
  C   -0.84881992003530     -0.28705737284980      0.11236222286015
  C   0.50105432782281     -0.17363769165310      0.07984799195371
  H   -1.38111870110983     -1.10889157452389     -0.34817432648315
  N   -1.72174750154398      0.65819896949688      0.76119783978256
  O   -2.92614519521968      0.41650623782554      0.65602638726860
  O   -1.23637211786999      1.61797902387198      1.35657840212364
  C   1.22579196038903      0.92082097274711      0.67012269125171
  N   1.96195608076337      1.74481120779193      1.07315793146000
  N   1.31988167994463     -1.14176105018791     -0.45963354650292
  H   2.22445963197133     -0.82933754672221     -0.77461463839146
  H   0.88005975488763     -1.81763117579655     -1.06487095532285
