11
Coordinates from ORCA-job run
  C   -0.79907746563762     -0.37673186613742      0.35660504375868
  C   0.49357866554769     -0.14718937247394      0.02127117202332
  H   -1.28150025703670     -1.33535369932101      0.21828787046438
  N   -1.66875396605522      0.61483279489620      0.93742280408152
  O   -2.82438343285432      0.23965340143172      1.14711395096522
  O   -1.22852732573935      1.73712368792778      1.17800467456951
  C   1.14617034623792      1.12579404132182      0.18025649178840
  N   1.81635376928967      2.09142704489378      0.22174610042979
  N   1.33517233962225     -1.13722366351611     -0.43723769573640
  H   0.89757334924131     -1.98409751633702     -0.76557052973315
  H   2.11439397738435     -0.82923485268581     -0.99689988261127
