11
Coordinates from ORCA-job run
  C   -0.68405720418600      0.63398543011797      0.26399751116073
  C   0.57911705824087      0.16332907981354      0.05125040202517
  H   -0.91850991715289      1.68746898256895      0.28118620581728
  N   -1.80097980958020     -0.22358773614513      0.51310773230363
  O   -2.88398655083753      0.32177880416222      0.72224180027916
  O   -1.62161335486262     -1.45098391178563      0.50855793681539
  C   1.59287597499971      1.16568373485103     -0.15246682213532
  N   2.43443926015573      1.97240823462037     -0.30866245125315
  N   0.99342197355224     -1.12413989898257     -0.06842389621184
  H   0.33264320847769     -1.83271513529098      0.21367967548311
  H   1.97564936119300     -1.31422758392977      0.03653190571585
