11
Coordinates from ORCA-job run
  C   -0.66264787296240      0.63528489997997      0.37555368199186
  C   0.56959997352328      0.16723674349998      0.02142649696230
  H   -0.91185966533012      1.68550435160121      0.36797946819252
  N   -1.73842677908988     -0.22455661496336      0.75997159195405
  O   -1.53888378041864     -1.44843434394935      0.79627260212746
  O   -2.81115793274481      0.31474774809958      1.02964920436602
  C   1.53069054704139      1.16713694850923     -0.36693755158290
  N   2.32558428687713      1.96790270180547     -0.69905494673763
  N   1.03124218792723     -1.10848275665602      0.05438684918986
  H   1.86429081428355     -1.32468563414495     -0.46621578937767
  H   0.34056822089328     -1.83165404378174      0.18796839291412
