11
Coordinates from ORCA-job run
  C   -0.66465785149240      0.64968777209857      0.29163567938407
  C   0.53136383525070      0.12284199696236     -0.10143003389236
  H   -0.91588697346819      1.69073154936009      0.15610548289899
  N   -1.67652356924082     -0.12163549837997      0.94387761320598
  O   -1.47035653487047     -1.32871619215390      1.14227571611981
  O   -2.70188072202937      0.47345303112126      1.27395339981636
  C   1.44698616557866      1.04652669428487     -0.72012605845131
  N   2.20850217972570      1.79129972681497     -1.21894261052173
  N   0.94160492894952     -1.17031962226926     -0.05641636085660
  H   1.92624310197794     -1.35638363954517     -0.14273157762916
  H   0.37660543961875     -1.79948581829382      0.49379874992595
