11
Coordinates from ORCA-job run
  C   -0.84021290277860     -0.30615699297188      0.09553961104829
  C   0.48776618780692     -0.07224818897292     -0.03674891151599
  H   -1.35611847172846     -1.08897331235992     -0.44482400413258
  N   -1.71134279753888      0.45646828341377      0.95417769701042
  O   -2.88696043451347      0.08526865227032      0.97014072539722
  O   -1.25090304882280      1.39481625676682      1.60137373315417
  C   1.19324512901561      0.95352313056261      0.68511095626134
  N   1.91804973371867      1.71894400358857      1.20687529091051
  N   1.28004774166727     -0.74791478336055     -0.93969262690001
  H   0.90336989950978     -1.60537623268008     -1.31355559107363
  H   2.26205896366393     -0.79035081625675     -0.71739688015973
