11
Coordinates from ORCA-job run
  C   -0.76343418966578      0.54158739517352      0.15766400553238
  C   0.53088386739206      0.17515960313172     -0.07242746331151
  H   -1.19516723449739      1.44302216010019     -0.25017040518963
  N   -1.67023296677786     -0.25270435244504      0.92644931121985
  O   -2.82180310304475      0.16741030127191      1.03529908218145
  O   -1.25671716612827     -1.30746026348880      1.43190523302427
  C   1.29875889127546      1.07635832196766     -0.89260865105685
  N   1.93746253512150      1.79612593260795     -1.56899039655481
  N   1.21200302526385     -0.88560393359567      0.43021571468997
  H   0.65998706896533     -1.59530183205561      0.88812202898767
  H   2.06725927209586     -1.15659333266784     -0.02445845952280
