11
Coordinates from ORCA-job run
  C   -0.63583385525029      0.64845581996223      0.41655745472727
  C   0.50983950031832      0.14454953425277     -0.12765346357085
  H   -0.86474687883670      1.70333351005347      0.42001026997834
  N   -1.61720038354423     -0.17124285148076      1.05645638460319
  O   -2.59454026607970      0.40362797010033      1.53461532339652
  O   -1.43328529643920     -1.39730446970352      1.09889734952898
  C   1.40447789571849      1.11244803039311     -0.70829995799169
  N   2.15242219575072      1.88966991668797     -1.17732594944142
  N   0.88327598485877     -1.15350023823738     -0.26099869989600
  H   0.34291079821664     -1.83020399771612      0.25654128985149
  H   1.85168030528718     -1.34983322431210     -0.44880000118583
