11
Coordinates from ORCA-job run
  C   -0.87766286874312     -0.18181137002584      0.11763832769456
  C   0.47160504568653     -0.18067986296083     -0.00764616304945
  H   -1.52445050721330     -0.80551956006911     -0.48519693057015
  N   -1.59977156229789      0.62892528698095      1.06534031784827
  O   -0.97659361023405      1.35777340896300      1.83469915814463
  O   -2.82716065964571      0.52110366152598      1.01880753160213
  C   1.34531889410570      0.65416377867815      0.77395484918021
  N   2.18956699098266      1.27689565592558      1.30570832199246
  N   1.14541835171243     -1.03978171467083     -0.84795438041251
  H   0.59749571742063     -1.49447678833488     -1.56172876835057
  H   2.05623420822613     -0.73659249601217     -1.15362226407957
