11
Coordinates from ORCA-job run
  C   -0.84530146456339     -0.29153715157290      0.09675495969334
  C   0.48682012293118     -0.08169165422560     -0.03460828839591
  H   -1.37458862039182     -1.06534603752193     -0.44361645015115
  N   -1.70393566654756      0.48917721440898      0.95101959744256
  O   -1.22918031884693      1.42577501153420      1.59031483718649
  O   -2.88526223767019      0.13650927522808      0.96969760369856
  C   1.21143993639223      0.92903095918517      0.68963809579845
  N   1.95058010173282      1.67902792169988      1.21363037238739
  N   1.26696376082110     -0.77000295480121     -0.93879867513277
  H   2.24784543466505     -0.83096411161073     -0.71647926646260
  H   0.87461895147752     -1.61897847232394     -1.31555278606435
