11
Coordinates from ORCA-job run
  C   -0.71449567131922     -0.08571348001012      0.70589760420383
  C   0.54523562038357     -0.12143626752118      0.20396276484105
  H   -1.00277691066192     -0.58218893698413      1.62037146305383
  N   -1.82698845955380      0.59093526948298      0.07938960209600
  O   -1.69474465881852      1.08694114997187     -1.03698734415061
  O   -2.86934827042756      0.58528108806941      0.73897345583408
  C   0.91991121053633      0.53434470691006     -1.02298672659886
  N   1.29046070750678      1.02923563593272     -2.02225964200848
  N   1.60234171649806     -0.69787122525000      0.87169795601837
  H   1.39341122857304     -1.31980228813447      1.63625605432702
  H   2.35699348728324     -1.01972565246714      0.28768481238376
