11
Coordinates from ORCA-job run
  C   -0.52651742905592     -0.18035742308738      0.89322394465040
  C   0.45513491824474     -0.18654100663309     -0.04058676892016
  H   -0.49163474056807     -0.78670598365726      1.78876811930911
  N   -1.71148400171091      0.63574620514780      0.81031171155781
  O   -1.91647138898674      1.30077004715502     -0.20319311226881
  O   -2.44573299334411      0.59476325005384      1.79998482717566
  C   0.44048751127665      0.64024680860762     -1.21839667431698
  N   0.59445196987424      1.25999699008313     -2.20612432087610
  N   1.53154530176251     -1.04564960547159      0.01028620762785
  H   2.36298973816646     -0.73938802277423     -0.46950148168756
  H   1.70723111434117     -1.49388125942387      0.89622754774877
