11
Coordinates from ORCA-job run
  C   -0.63900927769012      0.49240754199956      0.66245993018187
  C   0.58865117256903      0.18293661464254      0.15204963085101
  H   -0.82890476670050      1.40622550157499      1.20492442884349
  N   -1.78346662864858     -0.34877264525117      0.49709500156631
  O   -1.65183160533321     -1.42183297909841     -0.11079478615804
  O   -2.84192135412023      0.05563597654343      0.97732629781328
  C   1.62574808593845      1.15474624055535      0.38329373750985
  N   2.47871257131716      1.94591978632869      0.55624237113798
  N   0.97861172151213     -0.95362514307303     -0.47918901762418
  H   0.24376136323661     -1.58173781013494     -0.76822143639922
  H   1.82964871791926     -0.93090308408702     -1.01418615772234
