11
Coordinates from ORCA-job run
  C   -0.80893829679408     -0.38272065660511      0.29460264793014
  C   0.48374585603498     -0.12085589358278     -0.01778198813090
  H   -1.31369606565010     -1.29003503577806     -0.00677830485808
  N   -1.64162917901695      0.50085937746159      1.06990678287686
  O   -2.79729691420799      0.10727324799287      1.24571945117822
  O   -1.17201327646458      1.55047421867605      1.50504417998776
  C   1.16469567002726      1.09123310614333      0.35447062834139
  N   1.85747905794536      2.02355032354470      0.53935334248992
  N   1.30084687338606     -1.02742893825726     -0.65479615425123
  H   2.07781503594216     -0.64194177238971     -1.16601535764833
  H   0.84999123879787     -1.81040797720563     -1.10272522791576
