11
Coordinates from ORCA-job run
  C   -0.66180605716104      0.65006641583986      0.31224117794709
  C   0.56286491118987      0.14623321194033     -0.01793317603341
  H   -0.92108788577603      1.68883036607696      0.17440144002225
  N   -1.71622799388552     -0.15687262912406      0.84244960337294
  O   -2.78479404429234      0.40772884009022      1.07415804851700
  O   -1.50374467531835     -1.36409170023182      1.03353202756055
  C   1.49992309110063      1.09247973968022     -0.56658689772806
  N   2.27346431803289      1.84966794708409     -1.02683538707219
  N   1.03831905861762     -1.11121694214238      0.16802661095469
  H   1.85508913830698     -1.38954528353255     -0.34876253373358
  H   0.35900013918530     -1.81427996568086      0.41730908619274
