11
Coordinates from ORCA-job run
  C   -0.80141779422550     -0.37770626347522      0.34142743824145
  C   0.48868775373670     -0.13982776277876      0.00198444156778
  H   -1.29786798536741     -1.31820082617342      0.14202038532904
  N   -1.64829531950820      0.57841012792331      1.00901675215019
  O   -1.18988344113006      1.67511722637047      1.32243708133546
  O   -2.80392474863941      0.20095722426791      1.21431361661734
  C   1.16035468135846      1.11041823004355      0.24140881744941
  N   1.84359449529981      2.06261208405333      0.34081364813456
  N   1.30936869267405     -1.10452482807019     -0.54083439109424
  H   2.08385893458667     -0.76699093832405     -1.08982583340010
  H   0.85452473121489     -1.91926427383694     -0.92276195633089
