11
Coordinates from ORCA-job run
  C   -0.82037375132795     -0.35658911396657      0.27877615160154
  C   0.47751128659681     -0.12531788658721     -0.03455376007859
  H   -1.31147820647158     -1.30221064816456      0.09076589082981
  N   -1.69064167804233      0.62175733547065      0.88116250700972
  O   -1.26180216579390      1.75065851086567      1.11115485268675
  O   -2.83292517020072      0.22697997495564      1.12490773145710
  C   1.15182722822890      1.11957415455553      0.22345457436964
  N   1.85121327637889      2.05159700603658      0.38340611116462
  N   1.25960467641571     -1.04052881190243     -0.70523870076811
  H   2.25377219128569     -0.95748508768424     -0.56461745330652
  H   0.92229231293047     -1.99043543357905     -0.72721790496597
