11
Coordinates from ORCA-job run
  C   -0.76324607810367      0.53671674666378      0.08733322879343
  C   0.56082268301304      0.21046526431292      0.04617030221583
  H   -1.14150218667948      1.47977589800095     -0.27561296839275
  N   -1.76533154699060     -0.34509778193044      0.60039679458396
  O   -1.41610618429087     -1.45360322997564      1.03238261036344
  O   -2.92798719340548      0.05716375422125      0.57052457496543
  C   1.43551720314366      1.20094822016735     -0.52680696044358
  N   2.17112262388217      1.98151164121704     -1.00823962700664
  N   1.17509430176644     -0.89721788693303      0.53550076292883
  H   0.57086703373766     -1.66110156488296      0.80004659803894
  H   2.09974934392714     -1.10956106086121      0.20030468395312
