11
Coordinates from ORCA-job run
  C   -0.85571197897131     -0.26168075261132      0.10056006556303
  C   0.47793685417134     -0.07864637161633     -0.05395966439512
  H   -1.42186062784712     -0.97966237998883     -0.47812878888112
  N   -1.66859172103402      0.48005452404850      1.03123473212791
  O   -1.14921568714051      1.35290509295723      1.72379514208724
  O   -2.85930779513875      0.16104296708483      1.05645103817289
  C   1.25022821830243      0.85932109472341      0.71726658650422
  N   2.02460509743785      1.55192453098363      1.26868216923802
  N   1.21394237516640     -0.72420081747261     -1.02406546333222
  H   2.19843388310092     -0.82622601513001     -0.83499630331587
  H   0.78754138195277     -1.53483187297851     -1.44583951376899
