14

C	0.0	0.0	0.0
C	-0.554103	0.436632	-1.399735
Br	1.950155	0.0	0.0
H	-1.319567	1.180707	-1.176415
H	-0.330796	-1.011195	0.213949
C	-0.415173	0.902159	1.069562
N	-0.586051	1.639894	1.967888
N	-1.155595	-0.771563	-1.961414
H	-1.540436	-0.510615	-2.86674
H	-1.966647	-0.838799	-1.309656
N	0.442822	1.05613	-2.257411
H	1.007902	0.320508	-2.669895
H	-0.057907	1.514213	-3.011104
F	-2.634044	0.0	0.0
