14

C	0.0	0.0	0.0
C	-0.499319	0.172932	-1.469722
Br	1.947651	0.0	0.0
H	-1.56321	-0.074084	-1.336725
H	-0.348092	-0.958194	0.377475
C	-0.448936	1.060195	0.893759
N	-0.640134	1.952092	1.635928
N	0.122707	-0.695099	-2.44733
H	1.133004	-0.627874	-2.382049
H	-0.144459	-1.6531	-2.257437
N	-0.262967	1.555247	-1.880736
H	-0.946382	2.118884	-1.384115
H	-0.516144	1.590789	-2.862922
F	-2.597859	0.0	0.0
