14

C	0.0	0.0	0.0
C	-0.501062	0.167145	-1.467884
Br	1.94783	0.0	0.0
H	-1.571009	-0.043819	-1.320484
H	-0.352145	-0.953508	0.38401
C	-0.446486	1.071914	0.882004
N	-0.65422	1.975839	1.60539
N	0.086541	-0.742085	-2.428204
H	-0.222113	-1.684128	-2.221992
H	1.098641	-0.709923	-2.363358
N	-0.212188	1.529308	-1.908379
H	-0.471519	1.560776	-2.887653
H	-0.854866	2.141996	-1.414344
F	-2.612851	0.0	0.0
