14

C	0.0	0.0	0.0
C	-0.446501	0.059283	-1.519673
Br	1.946708	0.0	0.0
H	0.469299	0.053185	-2.118457
H	-0.325894	-0.933468	0.448634
C	-0.427703	1.112222	0.83931
N	-0.59067	2.024911	1.561175
N	-1.137447	1.310553	-1.745076
H	-1.437867	1.28782	-2.715633
H	-1.977969	1.192454	-1.159719
N	-1.239537	-1.093569	-1.915718
H	-2.025376	-1.045965	-1.24878
H	-0.705392	-1.943056	-1.752981
F	-2.618946	0.0	0.0
