14

C	0.0	0.0	0.0
C	-0.272102	-0.09684	-1.580905
Br	1.95886	0.0	0.0
H	0.529821	0.506018	-2.030802
H	-0.402208	-0.867255	0.511591
C	-0.447223	1.255585	0.5813
N	-0.634919	2.320641	1.041115
N	-1.515741	0.369909	-2.102828
H	-1.467337	1.381236	-2.167326
H	-2.231529	0.16084	-1.330374
N	-0.13508	-1.521338	-1.903122
H	-0.631121	-1.637906	-2.778809
H	0.839341	-1.755332	-2.046693
F	-2.706443	0.0	0.0
