14

C	0.0	0.0	0.0
C	-0.498618	0.163146	-1.429905
Br	1.963085	0.0	0.0
H	-1.596002	0.132381	-1.212227
H	-0.335871	-0.958982	0.381179
C	-0.428444	1.079512	0.883768
N	-0.59267	1.953498	1.65131
N	-0.102312	-1.015567	-2.199356
H	0.858633	-0.915665	-2.515319
H	-0.693224	-1.069975	-3.020591
N	-0.111983	1.465962	-1.950505
H	0.839629	1.446121	-2.303152
H	-0.731272	1.717222	-2.709796
F	-2.643111	0.0	0.0
