17

C	0.0	0.0	0.0
C	-0.560493	0.02693	-1.43778
Br	1.936805	0.0	0.0
H	-1.666089	0.121291	-1.180631
N	-0.363227	1.32546	0.72898
O	-0.474181	2.333903	0.040505
O	-0.441827	1.286799	1.945556
N	-0.551868	-1.028189	0.786787
H	-0.361608	-1.919829	0.341949
H	-1.591496	-0.831099	0.706504
C	-0.35417	-1.306892	-1.988555
N	-0.169533	-2.36048	-2.478572
C	-0.091108	1.054064	-2.469756
H	-0.439138	2.048067	-2.206316
H	-0.501225	0.781231	-3.446116
H	0.99898	1.064875	-2.549821
H	-2.90074	0.0	0.0
