17

C	0.0	0.0	0.0
C	-0.185723	0.014309	-1.560561
Br	2.002475	0.0	0.0
H	0.327228	-0.910394	-1.848334
N	-0.357584	1.244956	0.706356
O	-0.459089	2.277427	0.03265
O	-0.357579	1.208292	1.942816
N	-0.190463	-1.257881	0.691278
H	0.547372	-1.376545	1.379148
H	-1.096284	-1.235962	1.137348
C	0.538626	1.103058	-2.238039
N	1.031534	1.906345	-2.941037
C	-1.585192	-0.024146	-2.188678
H	-2.12967	-0.905695	-1.856133
H	-1.467632	-0.057702	-3.28113
H	-2.151029	0.865538	-1.914977
H	-1.751096	0.0	0.0
