14

C	-0.079255	0.00694	-1.408743
C	-0.089961	0.085663	0.125014
Br	-2.059321	0.15109	-1.992314
H	0.941118	0.357241	0.377908
H	-0.782507	0.880833	0.416724
C	0.555426	1.169302	-2.017627
N	0.889528	2.18864	-2.500167
C	0.375177	-1.264147	-1.964526
N	0.402586	-2.33452	-2.457836
C	-0.452224	-1.241101	0.771246
H	0.326469	-1.971905	0.548344
H	-0.516466	-1.123927	1.857286
H	-1.409983	-1.623866	0.409744
F	2.144876	-0.355262	-1.12279
