16

C	0.0	0.0	0.0
C	-0.559087	0.001987	-1.415779
Br	2.031384	0.0	0.0
H	-1.629341	0.234979	-1.263487
H	-0.21712	-0.970955	0.441219
N	-0.503749	1.015857	0.795873
H	-0.252212	0.963632	1.768799
H	-0.421735	1.937268	0.398585
C	-0.399554	-1.31955	-2.128427
H	0.648934	-1.609541	-2.212407
H	-0.951769	-2.069398	-1.558396
H	-0.83204	-1.268505	-3.126569
N	0.022222	1.130095	-2.211476
O	-0.033697	2.255602	-1.712394
O	0.504637	0.891483	-3.316843
Cl	-3.707553	0.0	0.0
