16

C	0.0	0.0	0.0
C	-0.495916	0.000574	-1.461214
Br	1.972314	0.0	0.0
H	-1.56039	0.25646	-1.376057
H	-0.292395	-0.963709	0.41777
N	-0.475087	1.030806	0.864391
H	-0.380401	1.920409	0.386648
H	-1.477661	0.852486	0.971511
C	-0.326712	-1.325912	-2.16356
H	-0.703525	-1.271144	-3.185418
H	-0.920745	-2.064391	-1.620656
H	0.718535	-1.636705	-2.19351
N	0.141424	1.112192	-2.229993
O	-0.02208	2.254536	-1.796197
O	0.792862	0.845823	-3.239248
Cl	-3.516134	0.0	0.0
