16

C	0.0	0.0	0.0
C	-0.367859	-0.43054	-1.426139
Br	2.012928	0.0	0.0
H	-0.01302	0.329359	-2.126757
H	-0.252897	-0.791721	0.704312
N	-0.564377	1.228095	0.417971
H	-1.489708	1.06486	0.806521
H	-0.646637	1.883906	-0.350215
C	-1.842451	-0.73	-1.618809
H	-2.147405	-1.598762	-1.035817
H	-2.017099	-0.915231	-2.683299
H	-2.488592	0.083944	-1.296318
N	0.37416	-1.673583	-1.818662
O	0.298538	-2.633912	-1.054598
O	0.961513	-1.670756	-2.900104
Cl	-4.591507	0.0	0.0
