16

C	0.0	0.0	0.0
C	-0.493976	0.007552	-1.461728
Br	1.972341	0.0	0.0
H	-1.558277	0.264118	-1.37677
H	-0.291244	-0.966021	0.413234
N	-0.476149	1.02647	0.868395
H	-1.480224	0.849532	0.96962
H	-0.37607	1.918994	0.39814
C	-0.323996	-1.315833	-2.169499
H	0.72089	-1.628514	-2.195992
H	-0.695656	-1.256302	-3.192756
H	-0.921397	-2.056421	-1.632599
N	0.14505	1.122476	-2.224512
O	0.799581	0.860017	-3.233034
O	-0.01981	2.263188	-1.786404
Cl	-3.511515	0.0	0.0
