16

C	0.0	0.0	0.0
C	-0.334243	0.109136	-1.502515
Br	1.963476	0.0	0.0
H	0.174188	0.985571	-1.912458
H	-0.297206	-0.980014	0.370922
N	-0.556972	1.017783	0.825234
H	-0.493591	1.925731	0.380846
H	-1.539568	0.80265	0.992256
C	-1.810441	0.122399	-1.836222
H	-1.927398	0.159415	-2.923336
H	-2.33071	-0.746767	-1.439937
H	-2.310759	0.984772	-1.401771
N	0.269384	-1.046531	-2.24386
O	0.861988	-0.801257	-3.294075
O	0.083762	-2.170536	-1.782387
Cl	-4.470132	0.0	0.0
