16

C	0.0	0.0	0.0
C	-0.473746	-0.023418	-1.453349
Br	2.031275	0.0	0.0
H	-1.54235	0.239888	-1.399852
H	-0.236809	-0.95665	0.461183
N	-0.508005	1.04998	0.738753
H	-0.298095	1.025361	1.723159
H	-0.383679	1.956954	0.317986
C	-0.278508	-1.360677	-2.131322
H	-0.91033	-2.08783	-1.618904
H	0.763124	-1.681564	-2.100472
H	-0.593561	-1.311176	-3.173002
N	0.196687	1.078847	-2.222557
O	0.065508	2.22358	-1.784951
O	0.830377	0.798828	-3.238242
Cl	-3.639393	0.0	0.0
