16

C	0.0	0.0	0.0
C	-0.344439	0.089405	-1.495341
Br	1.948618	0.0	0.0
H	0.176206	0.952392	-1.911529
H	-0.262553	-0.988561	0.385772
N	-0.558271	1.122684	0.697451
H	-0.335528	1.049932	1.683067
H	-1.574112	1.064098	0.612964
C	-1.81549	0.113229	-1.851145
H	-2.295601	1.016452	-1.480637
H	-1.920794	0.095518	-2.938624
H	-2.364166	-0.717744	-1.413516
N	0.246757	-1.093405	-2.207154
O	0.060718	-2.205211	-1.716369
O	0.825719	-0.879425	-3.271665
Cl	-4.463064	0.0	0.0
