16

C	0.0	0.0	0.0
C	-0.323584	-0.035532	-1.509355
Br	1.96394	0.0	0.0
H	0.200196	0.789627	-1.998304
H	-0.295418	-0.940932	0.462147
N	-0.563263	1.090353	0.720342
H	-1.549824	0.892482	0.888573
H	-0.491988	1.952597	0.193107
C	-1.794573	-0.036108	-1.867654
H	-2.28849	0.872792	-1.532955
H	-1.88471	-0.104572	-2.956091
H	-2.334209	-0.854818	-1.398263
N	0.272068	-1.265557	-2.128037
O	0.869547	-1.132535	-3.195394
O	0.075087	-2.335885	-1.556941
Cl	-4.428658	0.0	0.0
