16

C	0.0	0.0	0.0
C	-0.484569	0.014284	-1.447021
Br	2.03154	0.0	0.0
H	-1.552964	0.273923	-1.368864
H	-0.241687	-0.965809	0.438804
N	-0.503797	1.03435	0.767149
H	-0.397046	1.948192	0.358306
H	-0.281282	0.991217	1.747027
C	-0.288364	-1.305748	-2.154223
H	-0.621042	-1.238471	-3.190606
H	-0.904817	-2.049184	-1.644984
H	0.756989	-1.613352	-2.143871
N	0.1848	1.132713	-2.192504
O	0.037586	2.27036	-1.741478
O	0.840019	0.870508	-3.198498
Cl	-3.68029	0.0	0.0
