12

C	0.0	0.0	0.0
C	-0.395008	-0.031647	-1.502838
Cl	1.789105	0.0	0.0
H	-1.493806	-0.109523	-1.449335
H	-0.337202	0.914214	0.460977
H	0.051007	-0.906681	-1.981473
N	-0.378762	-1.158949	0.829058
H	-1.419933	-0.987386	0.813809
H	-0.249567	-1.988159	0.25288
C	-0.03779	1.182852	-2.206097
N	0.22195	2.199596	-2.736888
H	-2.52902	0.0	0.0
