12

C	0.0	0.0	0.0
C	-0.538515	0.024054	-1.42285
Cl	1.783472	0.0	0.0
H	-0.263674	-0.908342	-1.921751
H	-0.273823	0.944394	0.484269
H	-1.644197	0.05952	-1.269191
N	-0.540938	-1.168733	0.634022
H	-0.312666	-1.131697	1.622675
H	-1.569678	-1.004265	0.557413
C	-0.10132	1.169728	-2.203832
N	0.231267	2.09619	-2.844772
H	-3.030571	0.0	0.0
