12

C	0.0	0.0	0.0
C	-0.644412	-0.053365	-1.361588
Cl	1.838117	0.0	0.0
H	-0.371706	0.807252	-1.976981
H	-0.290864	0.932342	0.4827
H	-1.757309	-0.005302	-1.057701
N	-0.441763	-1.096135	0.784814
H	-0.249686	-0.969298	1.764959
H	-0.052631	-1.969334	0.459861
C	-0.35352	-1.286151	-2.067273
N	-0.117593	-2.293525	-2.625911
H	-3.186921	0.0	0.0
