12

C	0.0	0.0	0.0
C	-0.526929	-0.013462	-1.425263
Cl	1.786565	0.0	0.0
H	-1.631991	0.032902	-1.287415
H	-0.27746	0.970013	0.430507
H	-0.183713	0.870363	-1.968904
N	-0.532098	-1.133126	0.693107
H	-1.560201	-0.987751	0.606726
H	-0.308951	-1.05222	1.679721
C	-0.157132	-1.208332	-2.167407
N	0.109393	-2.141954	-2.82596
H	-3.02446	0.0	0.0
