17

C	-0.553826	-0.212519	-1.423697
C	0.0	0.0	0.0
Br	0.042098	-1.963243	-2.128244
H	1.099924	0.0	0.0
C	-2.077784	-0.173619	-1.468173
H	-2.481608	-0.935148	-0.801922
H	-2.436127	-0.339157	-2.485106
H	-2.398707	0.813802	-1.130219
C	-0.015233	0.798053	-2.33144
N	0.324092	1.605382	-3.115694
N	-0.544357	-1.023543	0.900945
H	-0.029674	-0.916203	1.771005
H	-0.271191	-1.93457	0.543096
N	-0.436071	1.322633	0.42242
H	0.339675	1.804422	0.859903
H	-1.199884	1.227403	1.081975
Br	3.552572	0.0	0.0
