17

C	-0.418477	0.040563	-1.472774
C	0.0	0.0	0.0
Br	-2.403229	0.290564	-1.570085
H	1.097396	0.0	0.0
C	0.258841	1.17948	-2.214633
H	1.339625	1.028099	-2.121284
H	-0.006893	2.117946	-1.731519
H	-0.030248	1.192898	-3.266864
C	-0.167592	-1.237681	-2.133034
N	0.057762	-2.230046	-2.719939
N	-0.447425	-1.235498	0.613593
H	0.17048	-1.4644	1.382104
H	-1.39452	-1.143218	0.962593
N	-0.369356	1.260757	0.635209
H	0.303227	1.45422	1.367085
H	-1.293748	1.197379	1.044854
Br	3.511347	0.0	0.0
