17

C	-0.394981	0.020691	-1.486093
C	0.0	0.0	0.0
Br	-2.346656	0.341977	-1.675519
H	1.103453	0.0	0.0
C	0.3629	1.118963	-2.214776
H	0.118576	2.06943	-1.741989
H	0.097491	1.142425	-3.273058
H	1.433854	0.927629	-2.092928
C	-0.159027	-1.279417	-2.108652
N	0.037563	-2.327226	-2.604749
N	-0.568877	-1.163091	0.683489
H	-0.135541	-1.185135	1.602462
H	-0.252314	-2.009436	0.217284
N	-0.408629	1.236206	0.62848
H	-1.309889	1.098121	1.0722
H	0.281248	1.49432	1.322821
Br	3.552943	0.0	0.0
