17

C	-0.408696	0.046316	-1.474851
C	0.0	0.0	0.0
Br	-2.39435	0.079054	-1.634382
H	1.102685	0.0	0.0
C	0.158569	1.276712	-2.166003
H	-0.06577	1.266769	-3.233439
H	-0.276923	2.169417	-1.71666
H	1.242887	1.273488	-2.014953
C	0.013757	-1.17392	-2.157326
N	0.385699	-2.127769	-2.735185
N	-0.475082	-1.209887	0.613542
H	-1.431739	-1.100214	0.931072
H	0.126462	-1.461667	1.387657
N	-0.464333	1.232148	0.669264
H	0.280321	1.920003	0.589582
H	-0.523189	1.015512	1.658198
Br	3.526003	0.0	0.0
