17

C	-0.57633	-0.026255	-1.428702
C	0.0	0.0	0.0
Br	0.083042	-1.622286	-2.395037
H	1.104857	0.0	0.0
C	-2.10084	-0.064172	-1.433374
H	-2.447477	-0.941796	-0.889699
H	-2.463197	0.835891	-0.93119
H	-2.482739	-0.08485	-2.455113
C	-0.107608	1.135334	-2.180837
N	0.227659	2.056269	-2.828883
N	-0.522567	-1.144623	0.760882
H	0.041962	-1.183018	1.606213
H	-0.288222	-1.992179	0.250985
N	-0.447297	1.244806	0.608057
H	0.340344	1.699383	1.053037
H	-1.163467	1.041691	1.293958
Br	3.561478	0.0	0.0
