18

C	0.0	0.0	0.0
C	-0.561852	-0.119577	-1.415845
F	1.364031	0.0	0.0
H	-1.643054	-0.205655	-1.250875
N	-0.484939	1.09974	0.743064
H	-0.528809	1.86733	0.07904
H	-1.446174	0.882241	1.010645
N	-0.320374	-1.278233	0.806027
O	-1.14598	-1.224463	1.705955
O	0.323783	-2.277931	0.485549
C	-0.044064	-1.289769	-2.241351
H	1.047662	-1.261654	-2.310401
H	-0.463767	-1.217428	-3.248906
H	-0.331533	-2.251345	-1.818539
N	-0.310504	1.182321	-2.051138
H	-1.093792	1.409972	-2.649887
H	0.525476	1.129018	-2.62273
Cl	-3.777965	0.0	0.0
