18

C	0.0	0.0	0.0
C	-0.540004	-0.137473	-1.429488
F	1.364199	0.0	0.0
H	-1.615751	-0.292273	-1.289649
N	-0.488868	1.111944	0.716736
H	-0.503145	1.868739	0.038664
H	-1.461036	0.912686	0.95762
N	-0.323833	-1.264364	0.825368
O	-1.042152	-1.163724	1.8088
O	0.225497	-2.298444	0.446621
C	0.064682	-1.254119	-2.269995
H	-0.147191	-2.239203	-1.861081
H	1.150911	-1.140219	-2.334581
H	-0.355191	-1.196553	-3.278572
N	-0.352383	1.183017	-2.05148
H	-1.18506	1.42692	-2.571599
H	0.432475	1.15603	-2.691129
Cl	-3.727159	0.0	0.0
