18

C	0.0	0.0	0.0
C	-0.507053	-0.03149	-1.446828
F	1.364098	0.0	0.0
H	-1.598683	-0.05197	-1.346878
N	-0.521283	1.042039	0.791173
H	-1.508344	0.828315	0.947767
H	-0.489006	1.866225	0.200763
N	-0.336016	-1.330704	0.697813
O	0.428113	-2.267423	0.458561
O	-1.307696	-1.371987	1.437792
C	-0.024937	-1.212906	-2.277468
H	-0.4032	-2.162384	-1.898076
H	1.067628	-1.26213	-2.286013
H	-0.381753	-1.091021	-3.304347
N	-0.131393	1.271521	-2.012397
H	-0.819614	1.547261	-2.698615
H	0.766797	1.197822	-2.474472
Cl	-3.847852	0.0	0.0
