18

C	0.0	0.0	0.0
C	-0.379899	0.178887	-1.502404
F	1.378762	0.0	0.0
H	0.500604	-0.228645	-2.006589
N	-0.572773	0.881428	0.902228
H	-1.58126	0.903264	0.716226
H	-0.449813	0.536402	1.848374
N	-0.227022	-1.501247	0.419726
O	0.063067	-2.364887	-0.403765
O	-0.588317	-1.717442	1.572654
C	-0.470965	1.668983	-1.811276
H	-1.373162	2.095101	-1.367273
H	0.398276	2.212976	-1.433204
H	-0.536299	1.784776	-2.895027
N	-1.531267	-0.499152	-2.044931
H	-2.38129	-0.243308	-1.543809
H	-1.41446	-1.498696	-1.951005
Cl	-3.884641	0.0	0.0
