18

C	0.0	0.0	0.0
C	-0.468033	-0.270584	-1.444152
F	1.361479	0.0	0.0
H	-1.503995	-0.601193	-1.359987
N	-0.506807	1.138863	0.667355
H	-1.521258	0.999797	0.749993
H	-0.363955	1.943782	0.069187
N	-0.331637	-1.20431	0.907397
O	-0.91229	-2.167224	0.417345
O	0.081253	-1.12886	2.060236
C	0.386012	-1.313359	-2.154024
H	0.448599	-2.241809	-1.586672
H	1.399039	-0.936082	-2.32218
H	-0.06504	-1.52263	-3.12531
N	-0.4788	0.951862	-2.247648
H	-1.279472	1.514709	-1.988311
H	0.371277	1.487429	-2.105928
Cl	-3.579791	0.0	0.0
