18

C	0.0	0.0	0.0
C	-0.408222	-0.029493	-1.483852
F	1.389344	0.0	0.0
H	-0.120034	0.978367	-1.810376
N	-0.514208	1.081976	0.710432
H	-1.514398	1.158022	0.543243
H	-0.352744	0.954718	1.702303
N	-0.267559	-1.344423	0.75185
O	-0.451377	-2.374118	0.109424
O	-0.216969	-1.279394	1.977297
C	-1.888633	-0.230205	-1.732847
H	-2.531485	0.530083	-1.295568
H	-2.044943	-0.240017	-2.812701
H	-2.245586	-1.177631	-1.328853
N	0.361677	-0.967746	-2.298542
H	1.344261	-0.884938	-2.069838
H	0.071328	-1.905716	-2.051951
Cl	-4.710319	0.0	0.0
