18

C	0.0	0.0	0.0
C	-0.427951	0.162964	-1.46097
F	1.359914	0.0	0.0
H	0.158471	1.044602	-1.74678
N	-0.505734	0.991641	0.856167
H	-0.216661	0.801287	1.808916
H	-1.521535	1.014473	0.807172
N	-0.325088	-1.412173	0.562176
O	-1.070489	-2.159124	-0.061926
O	0.175544	-1.65567	1.658787
C	-1.899279	0.453486	-1.696524
H	-2.559912	-0.32622	-1.321212
H	-2.230313	1.382843	-1.230896
H	-2.059212	0.557365	-2.774177
N	0.110643	-0.960767	-2.234571
H	0.239458	-0.649001	-3.189143
H	-0.583918	-1.698249	-2.245783
Cl	-4.760596	0.0	0.0
