18

C	0.0	0.0	0.0
C	-0.375595	-0.077605	-1.507799
F	1.370248	0.0	0.0
H	0.432467	-0.677852	-1.937298
N	-0.542105	0.99677	0.830821
H	-0.605725	1.864493	0.315081
H	-1.487412	0.725533	1.099244
N	-0.329099	-1.365671	0.631291
O	-1.014445	-1.413367	1.644855
O	0.166768	-2.332168	0.053805
C	-0.329554	1.32411	-2.103318
H	0.568302	1.872156	-1.80252
H	-0.345318	1.242881	-3.190223
H	-1.218326	1.887514	-1.806241
N	-1.622766	-0.706601	-1.863497
H	-1.60306	-1.687583	-1.612887
H	-2.424258	-0.300177	-1.374597
Cl	-4.126962	0.0	0.0
