18

C	0.0	0.0	0.0
C	-0.197542	0.207144	-1.545894
F	1.389751	0.0	0.0
H	0.54886	0.966842	-1.807336
N	-0.337833	1.287345	0.757745
O	-0.66298	1.211641	1.933607
O	-0.155442	2.339928	0.144993
N	-0.609549	-1.075014	0.623375
H	-1.639892	-0.764264	0.575546
H	-0.527745	-1.835722	-0.04705
C	-1.528988	0.649798	-2.115912
H	-1.777095	1.645867	-1.752674
H	-2.335238	0.004191	-1.7739
H	-1.426526	0.689981	-3.211143
N	0.168747	-1.107283	-2.11348
H	1.177454	-1.198523	-2.119202
H	-0.154838	-1.145683	-3.071963
F	-2.880069	0.0	0.0
