18

C	0.0	0.0	0.0
C	-0.186441	0.055853	-1.553951
F	1.409085	0.0	0.0
H	0.50927	0.838511	-1.876974
N	-0.347584	1.345127	0.633764
O	-0.200756	2.338152	-0.079744
O	-0.649856	1.374363	1.817908
N	-0.589549	-1.022075	0.722662
H	-0.478334	-1.841263	0.128139
H	-1.627534	-0.730593	0.631617
C	-1.533431	0.349751	-2.179811
H	-2.266809	-0.401884	-1.908285
H	-1.934998	1.290528	-1.81623
H	-1.370635	0.415957	-3.266562
N	0.268382	-1.276872	-2.00516
H	-0.029706	-1.407791	-2.964078
H	1.280213	-1.308872	-1.983117
F	-2.828337	0.0	0.0
