18

C	0.0	0.0	0.0
C	-0.487309	-0.082645	-1.47878
F	1.35449	0.0	0.0
H	0.450491	-0.18768	-2.037938
N	-0.182355	1.513634	0.548526
O	0.452739	2.400498	-0.01772
O	-0.854821	1.681556	1.561048
N	-0.588571	-0.884747	0.874822
H	-1.61614	-0.731198	0.714381
H	-0.370534	-0.610495	1.825419
C	-1.240885	1.153984	-1.991062
H	-1.547984	0.948327	-3.021471
H	-0.641678	2.062559	-1.988662
H	-2.134327	1.248511	-1.368485
N	-1.27629	-1.303804	-1.668418
H	-2.150039	-1.089339	-1.163398
H	-1.51022	-1.337144	-2.656359
F	-2.930276	0.0	0.0
