18

C	0.0	0.0	0.0
C	-0.504193	0.099519	-1.432605
F	1.384745	0.0	0.0
H	-1.517225	0.48975	-1.316165
N	-0.240906	1.399151	0.696668
O	-0.797223	2.314995	0.106498
O	0.167911	1.462796	1.860329
N	-0.590009	-1.010477	0.738694
H	-1.633374	-0.787345	0.574684
H	-0.347716	-0.879883	1.715323
C	-0.601277	-1.285926	-2.058735
H	0.35875	-1.813873	-2.008337
H	-1.357026	-1.871246	-1.537811
H	-0.893915	-1.183463	-3.109181
N	0.353393	1.025757	-2.179561
H	-0.22697	1.572039	-2.799108
H	1.01368	0.503347	-2.740813
F	-2.834638	0.0	0.0
