18

C	0.0	0.0	0.0
C	-0.521086	0.112538	-1.42807
F	1.361275	0.0	0.0
H	-1.599112	0.273968	-1.26748
N	-0.230284	1.405689	0.70381
O	0.6988	2.208794	0.630349
O	-1.274096	1.596397	1.303225
N	-0.632884	-0.935901	0.833304
H	-0.522837	-1.85196	0.41212
H	-1.668031	-0.652558	0.684052
C	-0.304041	-1.215248	-2.161965
H	-0.605669	-1.106314	-3.208942
H	0.750719	-1.512839	-2.142486
H	-0.913133	-2.013617	-1.73405
N	0.08084	1.263011	-2.096501
H	1.078766	1.115755	-2.198513
H	-0.321911	1.346789	-3.022026
F	-2.936317	0.0	0.0
