18

C	0.0	0.0	0.0
C	-0.416739	-0.251581	-1.492701
F	1.371646	0.0	0.0
H	0.538771	-0.500079	-1.972425
N	-0.26976	1.425864	0.581137
O	0.335803	1.652737	1.625777
O	-1.006778	2.227988	0.021703
N	-0.540019	-0.87473	0.964132
H	-0.483504	-1.796173	0.537209
H	-1.558007	-0.632295	0.898016
C	-1.061156	0.887999	-2.283722
H	-0.454195	1.796524	-2.311737
H	-2.029842	1.098727	-1.834948
H	-1.189368	0.535138	-3.315648
N	-1.251517	-1.459169	-1.508891
H	-1.469017	-1.659739	-2.479505
H	-2.119192	-1.132816	-1.040305
F	-2.858932	0.0	0.0
