18

C	0.0	0.0	0.0
C	-0.185713	-0.144051	-1.55179
F	1.389715	0.0	0.0
H	0.477562	0.621027	-1.973883
N	-0.354645	1.410785	0.464478
O	-0.481392	1.601851	1.667052
O	-0.381533	2.292149	-0.394108
N	-0.596479	-0.925186	0.839596
H	-0.477719	-1.812791	0.357386
H	-1.632736	-0.648514	0.709393
C	-1.541056	0.001567	-2.207029
H	-1.99088	0.957192	-1.961482
H	-2.238005	-0.745551	-1.842678
H	-1.388086	-0.069195	-3.295071
N	0.326858	-1.502531	-1.829251
H	0.027474	-1.773774	-2.757204
H	1.338504	-1.492913	-1.813909
F	-2.836375	0.0	0.0
