18

C	0.0	0.0	0.0
C	-0.185587	-0.293503	-1.527272
F	1.408543	0.0	0.0
H	0.536744	0.370942	-2.013499
N	-0.335908	1.461971	0.302941
O	-0.140279	2.262473	-0.612551
O	-0.679373	1.766284	1.43614
N	-0.60433	-0.81458	0.937157
H	-0.495258	-1.756714	0.566737
H	-1.642881	-0.546053	0.765495
C	-1.522122	-0.099633	-2.211784
H	-1.378101	-0.340565	-3.276229
H	-2.299605	-0.691049	-1.739663
H	-1.845927	0.935085	-2.125323
N	0.2292	-1.707027	-1.661756
H	1.240022	-1.756722	-1.60705
H	-0.044775	-2.030868	-2.581594
F	-2.846922	0.0	0.0
