13

C	0.0	0.0	0.0
C	-0.457535	0.289999	-1.447248
Cl	1.793663	0.0	0.0
H	-1.553352	0.199431	-1.437747
H	-0.023054	-0.433619	-2.141776
N	-0.477889	0.908555	0.997916
H	-0.216329	1.85289	0.72946
H	-1.502105	0.828764	0.978248
C	-0.397328	-1.373631	0.355857
N	-0.631271	-2.479164	0.673901
C	-0.076074	1.642225	-1.835215
N	0.213359	2.742345	-2.126389
Cl	-3.446103	0.0	0.0
