13

C	0.0	0.0	0.0
C	-0.229637	-0.004857	-1.551805
Cl	1.796779	0.0	0.0
H	0.404795	-0.794805	-1.963549
H	0.199198	0.941125	-1.90099
N	-0.515624	1.085403	0.757611
H	-1.538378	0.940654	0.773873
H	-0.327087	1.950776	0.261617
C	-0.400839	-1.285581	0.590337
N	-0.587842	-2.349629	1.05075
C	-1.524089	-0.155809	-2.223962
N	-2.277316	-0.250074	-3.123037
Cl	-3.358309	0.0	0.0
