13

C	0.0	0.0	0.0
C	-0.502615	-0.215904	-1.431481
Cl	1.787506	0.0	0.0
H	-0.15492	-1.184105	-1.800286
H	-1.602166	-0.224926	-1.375052
N	-0.503644	1.241417	0.498153
H	-0.249524	1.346876	1.474289
H	-1.528745	1.175186	0.439008
C	-0.353188	-1.193152	0.807511
N	-0.570146	-2.14719	1.458519
C	-0.046412	0.836715	-2.332533
N	0.299635	1.649492	-3.105167
Cl	-3.504629	0.0	0.0
