13

C	0.0	0.0	0.0
C	-0.499583	-0.245284	-1.427534
Cl	1.785552	0.0	0.0
H	-0.180954	0.613296	-2.025074
H	-1.600037	-0.263817	-1.377671
N	-0.51467	1.265573	0.433006
H	-0.266004	1.410152	1.405836
H	-1.54062	1.177213	0.382912
C	-0.353511	-1.140084	0.877993
N	-0.589978	-2.030549	1.607808
C	0.004779	-1.477619	-2.017858
N	0.396708	-2.463104	-2.521754
Cl	-3.50097	0.0	0.0
