16

C	0.0	0.0	0.0
C	-0.494419	0.152349	-1.450895
Cl	1.786122	0.0	0.0
H	0.358122	0.177763	-2.137853
H	-0.298672	0.88273	0.556293
C	-0.504527	-1.242024	0.703303
H	-1.594503	-1.142779	0.715612
H	-0.198931	-2.145365	0.173703
H	-0.107089	-1.265668	1.721976
N	-1.024285	1.622871	-1.632599
O	-0.630995	2.516002	-0.886498
O	-1.733604	1.808387	-2.617597
N	-1.440026	-0.810566	-1.843818
H	-2.266265	-0.633082	-1.19684
H	-1.695435	-0.643637	-2.808622
F	-2.973831	0.0	0.0
