16

C	0.0	0.0	0.0
C	-0.597375	-0.009972	-1.391467
Cl	1.793497	0.0	0.0
H	-1.699266	-0.062881	-1.14089
H	-0.306513	0.96719	0.389716
C	-0.501399	-1.092841	0.921692
H	-1.595421	-1.019478	0.849988
H	-0.155853	-0.891543	1.93972
H	-0.139767	-2.074236	0.614124
N	-0.196115	-1.285393	-2.118223
O	-0.690075	-2.346437	-1.743766
O	0.600634	-1.201578	-3.058564
N	-0.23249	1.153202	-2.129134
H	0.741725	1.100991	-2.400425
H	-0.788731	1.212149	-2.970985
F	-2.901396	0.0	0.0
