16

C	0.0	0.0	0.0
C	-0.64742	-0.581583	-1.30543
Cl	1.787206	0.0	0.0
H	-1.213034	-1.467612	-1.024569
H	-0.284613	1.051656	0.02683
C	-0.546801	-0.705452	1.220422
H	-0.176058	-0.240317	2.137765
H	-0.247571	-1.757564	1.212078
H	-1.638326	-0.601655	1.133314
N	0.431352	-1.088545	-2.227653
O	0.788998	-2.258943	-2.086395
O	0.911981	-0.303598	-3.039694
N	-1.5243	0.293906	-2.0012
H	-2.334884	0.341768	-1.317994
H	-1.082677	1.201913	-2.09641
F	-3.079072	0.0	0.0
