16

C	0.0	0.0	0.0
C	-0.623195	0.033568	-1.37975
Cl	1.793575	0.0	0.0
H	-1.724106	-0.032814	-1.099213
H	-0.301274	0.958822	0.419039
C	-0.497018	-1.110609	0.904881
H	-1.590662	-1.039027	0.84571
H	-0.139873	-2.086884	0.576806
H	-0.143701	-0.92792	1.924123
N	-0.235094	-1.20707	-2.165096
O	0.490535	-1.070942	-3.157339
O	-0.672216	-2.291623	-1.783343
N	-0.295728	1.233258	-2.079205
H	0.649846	1.181582	-2.438355
H	-0.922558	1.34537	-2.864495
F	-2.917171	0.0	0.0
