16

C	0.0	0.0	0.0
C	-0.479193	-0.279484	-1.454719
Cl	1.796444	0.0	0.0
H	0.402069	-0.515308	-2.063215
H	-0.310675	0.994855	0.298246
C	-0.496152	-1.018004	1.002325
H	-1.588388	-0.930165	0.969644
H	-0.159047	-2.02802	0.753444
H	-0.118205	-0.767309	1.99712
N	-0.950694	1.042242	-2.079177
O	-0.577054	2.0967	-1.566664
O	-1.595848	0.973185	-3.115989
N	-1.493418	-1.25348	-1.678486
H	-2.27474	-0.946022	-1.034982
H	-1.130113	-2.158517	-1.406645
F	-2.924324	0.0	0.0
