18

C	-0.57354	-0.005043	-1.43581
C	0.0	0.0	0.0
Cl	0.466637	-0.946138	-2.553245
H	1.092396	0.0	0.0
C	-1.991074	-0.578532	-1.508193
H	-2.648197	-0.060405	-0.805781
H	-1.965163	-1.640624	-1.262077
H	-2.381171	-0.464823	-2.520306
C	-0.604379	1.368636	-1.94648
N	-0.697453	2.454993	-2.385312
N	-0.426697	-1.288231	0.637427
O	0.089495	-2.318606	0.212751
O	-1.300112	-1.249207	1.509401
C	-0.467034	1.179043	0.831882
H	-0.000486	2.083837	0.44075
H	-0.118689	1.041927	1.855563
H	-1.551868	1.299114	0.848152
Br	3.443728	0.0	0.0
