18

C	-0.461408	-0.00138	-1.461611
C	0.0	0.0	0.0
Cl	0.380076	1.377767	-2.27407
H	1.090949	0.0	0.0
C	-0.081968	-1.283615	-2.198736
H	0.984206	-1.475334	-2.067526
H	-0.304126	-1.183225	-3.262761
H	-0.654633	-2.12414	-1.800655
C	-1.896301	0.256044	-1.59545
N	-3.048432	0.460715	-1.714354
N	-0.391843	-1.325578	0.580849
O	-1.592468	-1.53716	0.777863
O	0.51003	-2.121215	0.837947
C	-0.581285	1.108265	0.845664
H	-1.669953	1.043749	0.905695
H	-0.166789	1.049974	1.856481
H	-0.300185	2.076501	0.425829
Br	2.759619	0.0	0.0
