18

C	-0.42627	-0.045524	-1.482681
C	0.0	0.0	0.0
Cl	0.061667	1.526776	-2.22429
H	1.09093	0.0	0.0
C	0.278737	-1.154782	-2.257137
H	1.352402	-1.074001	-2.064641
H	-0.069747	-2.132041	-1.923098
H	0.071598	-1.043507	-3.322844
C	-1.884021	-0.141088	-1.620627
N	-3.0494	-0.24041	-1.747756
N	-0.451654	-1.293203	0.624012
O	-1.510943	-1.283577	1.259655
O	0.2507	-2.285739	0.448992
C	-0.548895	1.165569	0.794462
H	-0.052955	2.078815	0.466909
H	-1.630894	1.268484	0.689303
H	-0.315223	1.01458	1.849306
Br	3.481443	0.0	0.0
