18

C	-0.50811	0.017096	-1.455378
C	0.0	0.0	0.0
Cl	0.222727	-1.341206	-2.377839
H	1.091117	0.0	0.0
C	-2.026036	-0.078836	-1.605167
H	-2.512235	0.74472	-1.079305
H	-2.287621	-0.027571	-2.663007
H	-2.385341	-1.021418	-1.193987
C	-0.051773	1.262143	-2.083376
N	0.235209	2.28635	-2.583859
N	-0.480839	-1.258859	0.652163
O	-1.611018	-1.239844	1.157125
O	0.25809	-2.236698	0.634144
C	-0.462902	1.199007	0.812105
H	-0.052179	1.103966	1.819071
H	-0.044574	2.107894	0.37292
H	-1.548965	1.275373	0.882411
Br	3.466182	0.0	0.0
