18

C	-0.472807	0.001733	-1.457711
C	0.0	0.0	0.0
Cl	0.257003	-1.407738	-2.305803
H	1.091828	0.0	0.0
C	-1.979495	-0.038056	-1.699986
H	-2.185506	-0.006328	-2.771304
H	-2.394945	-0.949998	-1.275242
H	-2.451331	0.825074	-1.225149
C	0.078872	1.218407	-2.068642
N	0.499259	2.221462	-2.515244
N	-0.389089	-1.294861	0.648423
O	-1.585798	-1.490343	0.890408
O	0.517806	-2.063364	0.956046
C	-0.556097	1.144405	0.819276
H	-0.134394	1.098744	1.827847
H	-0.251276	2.09767	0.380101
H	-1.644545	1.110836	0.900883
Br	2.759432	0.0	0.0
