18

C	-0.522567	0.024593	-1.450279
C	0.0	0.0	0.0
Cl	0.239815	-1.292192	-2.403583
H	1.091087	0.0	0.0
C	-2.03881	-0.116477	-1.583474
H	-2.313975	-0.04967	-2.636956
H	-2.363386	-1.07933	-1.191378
H	-2.543641	0.679026	-1.033022
C	-0.118842	1.294698	-2.06103
N	0.141423	2.333194	-2.545941
N	-0.477845	-1.262771	0.645985
O	0.244531	-2.251906	0.582468
O	-1.589495	-1.236974	1.188522
C	-0.454956	1.194703	0.82035
H	-0.014539	2.099522	0.3989
H	-0.060504	1.082596	1.832113
H	-1.538583	1.292524	0.879354
Br	3.465887	0.0	0.0
