17

C	-0.338817	0.137961	-1.48598
C	0.0	0.0	0.0
F	-1.605765	0.629938	-1.688073
H	1.094838	0.0	0.0
N	0.603774	0.962816	-2.100687
H	1.550382	0.753128	-1.780735
H	0.550515	0.922541	-3.109342
N	-0.420449	-1.279688	-2.140139
O	-1.492431	-1.872315	-2.076551
O	0.612883	-1.698847	-2.653123
C	-0.524203	-1.206594	0.623243
N	-0.971801	-2.13961	1.179643
C	-0.455401	1.247026	0.765101
H	-1.543708	1.311962	0.809833
H	-0.051925	1.205994	1.778183
H	-0.057423	2.131839	0.268316
Br	3.440348	0.0	0.0
