17

C	-0.264397	-0.044083	-1.512493
C	0.0	0.0	0.0
F	0.045061	1.178658	-2.018486
H	1.097631	0.0	0.0
N	0.444708	-1.033439	-2.234684
H	0.088202	-1.952241	-1.995557
H	1.424927	-0.965879	-1.957029
N	-1.761365	-0.239201	-1.771761
O	-2.16026	-1.396013	-1.876799
O	-2.460336	0.768983	-1.80354
C	-0.448232	-1.242829	0.61588
N	-0.813397	-2.242739	1.114108
C	-0.537185	1.229235	0.723618
H	-1.628873	1.259418	0.723718
H	-0.180218	1.219187	1.755128
H	-0.154762	2.125862	0.238221
Br	3.41909	0.0	0.0
