17

C	-0.325291	0.096691	-1.496042
C	0.0	0.0	0.0
F	-0.489838	1.441505	-1.827785
H	1.096495	0.0	0.0
N	0.606568	-0.536894	-2.28685
H	0.259852	-1.205985	-2.950542
H	1.508995	-0.708983	-1.859725
N	-1.737784	-0.457499	-1.792412
O	-1.86097	-1.344605	-2.633702
O	-2.654621	0.056328	-1.162415
C	-0.420203	-1.314196	0.479286
N	-0.782712	-2.356659	0.882187
C	-0.512781	1.125228	0.890307
H	-1.602093	1.152738	0.920171
H	-0.1357	2.07522	0.514259
H	-0.121967	0.977802	1.898912
Br	3.451953	0.0	0.0
