17

C	-0.435072	0.005883	-1.459132
C	0.0	0.0	0.0
F	0.157314	1.029934	-2.116045
H	1.095952	0.0	0.0
N	-0.188017	-1.194577	-2.133606
H	-0.510657	-1.163026	-3.091566
H	-0.563796	-1.994376	-1.644345
N	-1.96234	0.382938	-1.487601
O	-2.293057	1.532718	-1.755368
O	-2.726825	-0.536913	-1.198327
C	-0.461759	-1.21052	0.668286
N	-0.840889	-2.180378	1.212905
C	-0.446108	1.257318	0.751073
H	-1.524101	1.275989	0.9309
H	-0.159706	2.138947	0.176949
H	0.077074	1.29137	1.707683
Br	3.443575	0.0	0.0
