17

C	-0.356698	0.135559	-1.490981
C	0.0	0.0	0.0
F	-1.587834	0.701187	-1.643532
H	1.096199	0.0	0.0
N	0.583646	0.866336	-2.272301
H	1.523882	0.54576	-2.032182
H	0.519605	1.844029	-2.011506
N	-0.439003	-1.261072	-2.107136
O	0.639144	-1.821532	-2.260985
O	-1.548435	-1.710031	-2.370674
C	-0.546027	-1.198332	0.620476
N	-1.005786	-2.148896	1.1365
C	-0.424424	1.251127	0.775786
H	-0.002902	2.139834	0.301508
H	-1.509417	1.349819	0.82843
H	-0.013093	1.194798	1.784781
Br	3.443002	0.0	0.0
