17

C	-0.339646	0.135317	-1.486076
C	0.0	0.0	0.0
F	-1.60535	0.630826	-1.688942
H	1.094826	0.0	0.0
N	0.60406	0.956859	-2.102375
H	0.55075	0.914301	-3.110992
H	1.550566	0.747023	-1.782132
N	-0.429213	-1.281955	-2.140908
O	-1.494393	-1.881456	-2.04494
O	0.588371	-1.692911	-2.690052
C	-0.523241	-1.203261	0.630284
N	-0.971747	-2.132527	1.191987
C	-0.453196	1.250535	0.761414
H	-0.047104	1.21306	1.773576
H	-1.541311	1.316104	0.808417
H	-0.056043	2.133187	0.26018
Br	3.439734	0.0	0.0
