15

C	-0.473975	-0.017203	-1.436949
C	0.0	0.0	0.0
F	-0.279145	1.251467	-2.023067
H	1.094634	0.0	0.0
H	0.165467	-0.704291	-2.002569
H	-0.316165	-0.951908	0.453329
C	-1.938641	-0.359091	-1.652827
H	-2.148545	-1.368955	-1.290837
H	-2.576246	0.344114	-1.112376
H	-2.195046	-0.307752	-2.715053
C	-0.53215	1.175125	0.810224
H	-0.214942	2.11129	0.347408
H	-0.096892	1.146441	1.812672
H	-1.625059	1.196712	0.915186
F	2.761953	0.0	0.0
