15

C	0.0	0.0	0.0
C	-0.245826	0.106023	-1.505899
F	1.34018	0.0	0.0
H	0.388854	0.923437	-1.843566
H	0.09449	-0.838563	-1.922751
N	-0.385582	1.239027	0.784335
O	-0.713686	1.174224	1.954247
O	-0.174251	2.272289	0.150803
N	-0.381253	-1.323311	0.609068
O	-0.617843	-2.236654	-0.170585
O	-0.243254	-1.435159	1.820215
N	-1.576177	0.364023	-2.116897
O	-1.932798	1.533499	-2.199694
O	-2.118043	-0.586001	-2.674057
F	-2.185174	0.0	0.0
