15

C	0.0	0.0	0.0
C	-0.473081	0.022988	-1.445092
F	1.368688	0.0	0.0
H	-1.069397	0.906385	-1.615868
H	-1.013712	-0.879741	-1.682982
N	-0.317652	1.276835	0.760489
O	-0.034473	1.275494	1.952661
O	-0.662503	2.254401	0.11292
N	-0.381794	-1.283328	0.711958
O	-0.224104	-2.278331	0.007735
O	-0.67365	-1.283408	1.892941
N	0.715375	0.090698	-2.364156
O	1.231699	1.194594	-2.541806
O	1.090713	-0.953929	-2.897563
F	-2.211199	0.0	0.0
