12

C	-0.524868	0.045345	-1.41514
C	0.0	0.0	0.0
F	-0.315729	-1.170389	-2.07203
H	1.094336	0.0	0.0
H	-0.01725	0.819948	-1.995843
H	-1.608547	0.223532	-1.436439
H	-0.308348	0.938545	0.480128
C	-0.539076	-1.190074	0.784275
H	-1.634956	-1.188952	0.826224
H	-0.155463	-1.178809	1.806651
H	-0.217159	-2.122424	0.319321
Cl	3.686819	0.0	0.0
