20

C	-0.434893	-0.06695	-1.467768
C	0.0	0.0	0.0
Cl	0.140326	1.504929	-2.30477
H	1.095424	0.0	0.0
C	0.280114	-1.174612	-2.2209
H	0.08485	-1.09439	-3.293913
H	1.354342	-1.095071	-2.042731
H	-0.082274	-2.144206	-1.8737
N	-1.853916	-0.19298	-1.604755
H	-2.314105	0.601516	-1.176115
H	-2.102664	-0.201358	-2.58736
C	-0.430439	-1.271932	0.739208
H	-0.096254	-1.202247	1.778236
H	0.036993	-2.16288	0.31702
H	-1.516171	-1.402426	0.722688
C	-0.512869	1.223497	0.752531
H	-0.068454	1.232872	1.750937
H	-0.231324	2.152851	0.257905
H	-1.60338	1.201117	0.879933
Cl	3.56159	0.0	0.0
