15

C	-0.462259	-0.012456	-1.419621
C	0.0	0.0	0.0
Br	0.377609	1.370669	-2.459888
H	1.089391	0.0	0.0
H	-0.161559	-0.965437	-1.853914
N	-1.983915	0.021625	-1.561118
O	-2.502384	0.673899	-2.452852
O	-2.563343	-0.728136	-0.78209
N	-0.304571	-1.255481	0.681876
O	0.005181	-2.268873	0.042918
O	-0.746388	-1.246383	1.828791
N	-0.451672	1.157359	0.74693
O	-1.315063	1.890009	0.233556
O	0.128753	1.377966	1.814735
H	2.35197	0.0	0.0
