15

C	-0.460785	0.012775	-1.422152
C	0.0	0.0	0.0
Br	-2.394854	0.002282	-1.677969
H	1.091181	0.0	0.0
H	-0.08434	0.913516	-1.89719
N	0.16146	-1.142339	-2.170231
O	1.242461	-0.877841	-2.691159
O	-0.411429	-2.224369	-2.181203
N	-0.432766	-1.204793	0.731891
O	-1.447216	-1.160277	1.425918
O	0.273371	-2.199587	0.549227
N	-0.334079	1.212855	0.694103
O	-0.173886	1.210052	1.9233
O	-0.527039	2.230972	0.002449
H	2.340507	0.0	0.0
