15

C	-0.445515	-0.019411	-1.424104
C	0.0	0.0	0.0
Br	0.481943	1.277123	-2.505446
H	1.090084	0.0	0.0
H	-0.197507	-0.999065	-1.83065
N	-1.960002	0.098943	-1.582421
O	-2.596681	-0.531613	-0.746161
O	-2.428517	0.702638	-2.535307
N	-0.321381	-1.253682	0.681837
O	-0.022448	-2.269271	0.040157
O	-0.770294	-1.248149	1.826178
N	-0.436992	1.171954	0.730536
O	0.047913	1.331038	1.854308
O	-1.171925	1.985367	0.147568
H	2.335899	0.0	0.0
