15

C	-0.517859	-0.087631	-1.399222
C	0.0	0.0	0.0
Br	-2.115596	-1.166862	-1.671518
H	1.089578	0.0	0.0
H	-0.767053	0.915006	-1.728415
N	0.573183	-0.549658	-2.343541
O	1.189036	0.376736	-2.868945
O	0.804	-1.742713	-2.472658
N	-0.317447	-1.182594	0.81167
O	0.217707	-2.213192	0.395228
O	-1.07484	-1.103943	1.777755
N	-0.35609	1.238797	0.656897
O	-0.852377	2.170298	-0.001833
O	0.047897	1.343864	1.823611
H	2.300196	0.0	0.0
