16

C	0.0	0.0	0.0
C	-0.417496	0.125264	-1.47705
Br	1.951649	0.0	0.0
H	0.103964	0.98909	-1.900623
H	-0.280402	0.952687	0.453919
C	-0.58944	-1.139113	0.800328
H	-0.301372	-2.104225	0.391882
H	-1.680974	-1.029313	0.763389
H	-0.261495	-1.066169	1.840549
N	-1.793695	0.123086	-1.716673
H	-2.075847	0.902768	-2.292354
H	-2.521086	-0.001877	-0.916427
N	0.240511	-1.021212	-2.299997
O	0.016742	-2.182774	-1.970212
O	0.876627	-0.691047	-3.303825
H	-3.59509	0.0	0.0
