16

C	0.0	0.0	0.0
C	-0.715002	0.040074	-1.315173
Br	1.948263	0.0	0.0
H	-1.857138	0.109617	-0.882034
H	-0.249696	0.917667	0.529146
C	-0.450892	-1.207058	0.797935
H	-1.546475	-1.166587	0.82269
H	-0.050813	-1.168837	1.815244
H	-0.130095	-2.125736	0.303625
N	-0.578992	-1.128489	-2.121204
H	0.230512	-1.040999	-2.725084
H	-1.398036	-1.215852	-2.713701
N	-0.416637	1.297729	-2.037475
O	-0.278965	1.254271	-3.270808
O	-0.370019	2.345134	-1.380508
H	-3.023516	0.0	0.0
