16

C	0.0	0.0	0.0
C	-0.483045	0.058652	-1.461932
Br	1.952934	0.0	0.0
H	0.252814	0.580587	-2.07976
H	-0.273222	0.969244	0.417739
C	-0.586414	-1.11218	0.838834
H	-0.277065	-0.992528	1.879889
H	-1.679898	-1.034855	0.773111
H	-0.268929	-2.095262	0.488938
N	-1.752751	0.630571	-1.533966
H	-2.119348	0.619052	-2.479036
H	-2.525333	0.287117	-0.854503
N	-0.356485	-1.385478	-2.056153
O	-1.276742	-2.177626	-1.871656
O	0.667225	-1.634015	-2.703339
H	-3.664953	0.0	0.0
