16

C	0.0	0.0	0.0
C	-0.681864	-0.032451	-1.328982
Br	1.959044	0.0	0.0
H	-1.81316	0.037952	-0.943922
H	-0.262771	0.942232	0.478451
C	-0.46039	-1.170562	0.846595
H	-0.139186	-2.111617	0.400434
H	-0.068484	-1.08949	1.863193
H	-1.556023	-1.121352	0.861803
N	-0.465791	-1.220257	-2.080869
H	0.432373	-1.177655	-2.550902
H	-1.182053	-1.300094	-2.791218
N	-0.417002	1.217102	-2.093968
O	-0.27965	1.133236	-3.324771
O	-0.420744	2.286174	-1.476621
H	-3.016277	0.0	0.0
