13

C	-0.581521	-0.079168	-1.387936
C	0.0	0.0	0.0
Cl	-2.342985	-0.296886	-1.356627
H	1.09048	0.0	0.0
H	-0.144176	-0.944255	-1.8874
H	-0.335896	-0.867931	0.56588
N	-0.201174	1.096944	-2.282493
O	-1.0646	1.863177	-2.68107
O	0.992332	1.12744	-2.545024
N	-0.482499	1.185386	0.746705
O	-0.512673	2.256427	0.144452
O	-0.784371	1.023897	1.927058
Cl	3.268946	0.0	0.0
