13

C	-0.632313	0.014919	-1.364928
C	0.0	0.0	0.0
Cl	-0.130546	1.476197	-2.228649
H	1.087255	0.0	0.0
H	-1.718915	-0.000491	-1.337802
H	-0.312071	0.895451	0.542708
N	-0.261088	-1.183535	-2.206018
O	0.72065	-1.83405	-1.881685
O	-0.999627	-1.393332	-3.165528
N	-0.513162	-1.145102	0.79807
O	-0.151593	-1.210959	1.965369
O	-1.287961	-1.93435	0.248507
Cl	3.303728	0.0	0.0
