13

C	-0.579487	0.012452	-1.396593
C	0.0	0.0	0.0
Cl	0.184722	1.186887	-2.443579
H	1.088567	0.0	0.0
H	-1.650726	0.20291	-1.38523
H	-0.352863	-0.881273	0.537951
N	-0.453875	-1.399822	-1.961081
O	0.233882	-1.613585	-2.945249
O	-1.121297	-2.22957	-1.345308
N	-0.498721	1.163858	0.786897
O	-1.371676	1.884069	0.295674
O	-0.025882	1.29648	1.908783
Cl	3.283984	0.0	0.0
