13

C	-0.588662	-0.118452	-1.382851
C	0.0	0.0	0.0
Cl	-2.341773	-0.387722	-1.334007
H	1.090406	0.0	0.0
H	-0.129824	-0.977117	-1.872953
H	-0.329433	-0.856401	0.587362
N	-0.255434	1.056048	-2.298064
O	0.934469	1.130612	-2.566197
O	-1.150406	1.779097	-2.706331
N	-0.487943	1.199055	0.720559
O	-0.538723	2.25365	0.090687
O	-0.77308	1.06509	1.908562
Cl	3.262935	0.0	0.0
