13

C	-0.470874	-0.030384	-1.425814
C	0.0	0.0	0.0
Cl	-2.24786	-0.021961	-1.567666
H	1.092662	0.0	0.0
H	-0.094698	-0.892782	-1.966823
H	-0.397629	0.848001	0.549582
N	0.035376	1.189681	-2.14815
O	-0.052325	2.264185	-1.563171
O	0.458184	1.010173	-3.285773
N	-0.438224	-1.234215	0.69217
O	-0.408269	-2.286558	0.055219
O	-0.768012	-1.1304	1.871969
Cl	3.237727	0.0	0.0
