13

C	-0.48155	0.039066	-1.426373
C	0.0	0.0	0.0
Cl	-0.056559	-1.394938	-2.336489
H	1.087972	0.0	0.0
H	-0.000157	0.893054	-1.90456
H	-0.355011	0.888736	0.524226
N	-1.972549	0.347649	-1.525216
O	-2.30852	1.341951	-0.886956
O	-2.69921	-0.330102	-2.231617
N	-0.552855	-1.161633	0.742879
O	0.08873	-1.583673	1.698282
O	-1.655261	-1.582325	0.380211
Cl	3.308858	0.0	0.0
