13

C	-0.626386	0.013155	-1.368137
C	0.0	0.0	0.0
Cl	-0.119435	1.47093	-2.23342
H	1.087256	0.0	0.0
H	-1.713024	-0.0037	-1.348612
H	-0.319332	0.891704	0.544591
N	-0.247354	-1.18978	-2.201984
O	-0.965816	-1.39224	-3.178459
O	0.718219	-1.851319	-1.853172
N	-0.510002	-1.152323	0.793032
O	-1.319229	-1.914804	0.25545
O	-0.112343	-1.247693	1.946128
Cl	3.310367	0.0	0.0
