13

C	-0.597997	-0.046212	-1.380812
C	0.0	0.0	0.0
Cl	-2.355771	-0.280878	-1.332892
H	1.090409	0.0	0.0
H	-0.158262	-0.891261	-1.911768
H	-0.32849	-0.882549	0.547813
N	-0.243469	1.160733	-2.247241
O	0.949317	1.21633	-2.517079
O	-1.122698	1.924806	-2.62107
N	-0.481219	1.162763	0.78176
O	-0.519557	2.25073	0.209559
O	-0.7744	0.968966	1.959957
Cl	3.278857	0.0	0.0
