13

C	-0.587782	-0.156446	-1.379682
C	0.0	0.0	0.0
Cl	-2.327597	-0.484848	-1.322795
H	1.090398	0.0	0.0
H	-0.099077	-1.005002	-1.857175
H	-0.322251	-0.845499	0.607099
N	-0.292933	1.014024	-2.311901
O	0.89938	1.147676	-2.546236
O	-1.214189	1.676507	-2.763482
N	-0.492877	1.208805	0.700293
O	-0.722646	1.103607	1.903503
O	-0.602973	2.241964	0.041974
Cl	3.267784	0.0	0.0
