17
Coordinates from ORCA-job run
  C   -0.49379479447550     -0.00437976386720     -0.49617636795227
  C   0.58366344604333      0.41815815761250      0.50678765015271
  F   0.03458954148371     -0.00088769170782     -1.74966738615364
  H   0.09940526999528      0.50262861719937      1.48393980221782
  N   -1.58339177977398      1.06375553625163     -0.46572012126261
  O   -1.85346733669883      1.64370733081179     -1.50605688888225
  O   -2.10895717183931      1.22561370748590      0.63220702290377
  C   -1.14955586968363     -1.33554017729424     -0.22429470404842
  H   -1.95980339790817     -1.48386792828976     -0.94081806792851
  H   -0.42207768507557     -2.13529168797840     -0.36098114354864
  H   -1.55434587534983     -1.36817938976856      0.78659699872429
  C   1.08229603318008      1.74781499948052      0.14162342183325
  N   1.50374088592545      2.80476484325659     -0.14688595737084
  C   1.73774883577487     -0.58705048603384      0.56905556030058
  H   1.39753327677912     -1.54152388194325      0.97243164162541
  H   2.52388198972160     -0.20554901895220      1.22165865889621
  H   2.16053463190137     -0.74517316626302     -0.42370011950684
