17
Coordinates from ORCA-job run
  C   -0.51167205032136     -0.37798525168142     -0.38378408429559
  C   0.71564022843691     -0.10054124241183      0.49998115564164
  F   -0.14829507534491     -1.28024401934787     -1.35475195891466
  H   0.79050311946984     -0.99251394605283      1.13455592437358
  N   -0.92145867379277      0.87434565019811     -1.16519416876151
  O   -0.01719410767712      1.61626634464482     -1.53664234229634
  O   -2.11385686212939      1.01295961022822     -1.41705259476744
  C   -1.69187085465410     -0.91134898040874      0.38110035183856
  H   -2.50970984967729     -1.12617963951028     -0.30307618153418
  H   -1.39037493457040     -1.83158309521982      0.88406729975170
  H   -2.03267471219807     -0.18740893142657      1.12206734706037
  C   0.41562203014208      1.02376122192507      1.38723350530577
  N   0.16980856001499      1.92382281778157      2.10011813411775
  C   2.06220571779063      0.06782613561405     -0.21406186308846
  H   2.20447034375421     -0.74971818040346     -0.92060064722174
  H   2.85985257311628      0.02544265756891      0.52992904613687
  H   2.11900454764048      1.01309884850206     -0.74488892334630
