20

C	-0.570546	-0.004184	-1.413954
C	0.0	0.0	0.0
Cl	0.264413	-1.212935	-2.432176
H	1.094681	0.0	0.0
C	-2.062182	-0.269715	-1.513604
H	-2.402937	-0.139953	-2.542472
H	-2.618958	0.411191	-0.871287
H	-2.256064	-1.297851	-1.209493
N	-0.290409	1.367264	-2.036757
O	0.820951	1.599157	-2.484425
O	-1.215156	2.181707	-1.968597
C	-0.416623	-1.258528	0.755556
H	0.209298	-1.32766	1.650701
H	-1.469261	-1.245824	1.065256
H	-0.228551	-2.159565	0.166385
C	-0.394665	1.250717	0.782994
H	0.049361	2.148912	0.348664
H	-1.477466	1.397627	0.870884
H	0.024856	1.151586	1.788321
H	2.905577	0.0	0.0
