20

C	-0.374925	0.080212	-1.469011
C	0.0	0.0	0.0
Cl	-2.150893	0.386335	-1.733562
H	1.096067	0.0	0.0
C	0.427052	1.129596	-2.206899
H	1.479885	1.001481	-1.92824
H	0.298147	1.030422	-3.285948
H	0.086342	2.120209	-1.905303
N	-0.093227	-1.281853	-2.11275
O	-0.923735	-2.176758	-1.983383
O	0.993638	-1.403099	-2.670157
C	-0.498278	-1.238864	0.728225
H	-1.585947	-1.348914	0.669876
H	-0.03546	-2.14849	0.342587
H	-0.209649	-1.153974	1.779887
C	-0.40616	1.264771	0.750549
H	-1.491103	1.345748	0.873221
H	-0.036108	2.168789	0.263159
H	0.059186	1.229506	1.739917
H	2.87462	0.0	0.0
