15

C	0.0	0.0	0.0
C	-0.725983	-0.518095	-1.225216
F	1.339857	0.0	0.0
H	-1.46555	-1.241812	-0.874145
H	0.027964	-1.029495	-1.83186
N	-0.385216	1.448187	0.30886
O	0.420553	2.293534	-0.052191
O	-1.455931	1.61552	0.866035
N	-0.321738	-0.78254	1.282594
O	-0.80071	-1.903075	1.169856
O	0.057019	-0.250263	2.319945
N	-1.328807	0.590065	-1.958101
H	-2.277126	0.685173	-1.578344
H	-1.427222	0.314714	-2.926812
Br	-4.148066	0.0	0.0
