12
Coordinates from ORCA-job run
  C   0.47797878670001     -0.39277892197968     -0.57355244177259
  C   -0.70839179099903     -0.08459075349931      0.34566411057068
  H   0.51163656456604     -1.45750339672698     -0.81321729447794
  H   -0.57344644279419     -0.62825966052610      1.28607655596186
  H   0.45334890152990      0.19348950571051     -1.49043969696837
  N   1.76834782899943     -0.07122588346834      0.11820576746004
  O   1.79255654654018     -0.18499371091500      1.34067016103188
  O   2.70760193731000      0.23557691370984     -0.60530590570409
  C   -1.94615746988106     -0.53680329641691     -0.29811185626735
  N   -2.91557148442230     -0.92583217387088     -0.83365709702980
  C   -0.77165865521724      1.34963304465666      0.64921932263301
  N   -0.79824472233174      2.50128833332620      0.87444837456266
