12
Coordinates from ORCA-job run
  C   0.42351496719937     -0.28220867570499     -0.67302544864014
  C   -0.68538205876982     -0.13590275543505      0.37419858844611
  H   0.35569427454872      0.47215701861515     -1.45494308524339
  H   -0.50521444454497     -0.85693279309863      1.17780519169543
  H   0.40366172756797     -1.28013408037999     -1.11575881672644
  N   1.76869169012544     -0.12843811008215     -0.03001016656587
  O   2.66606100570448      0.29444040462040     -0.74818737681042
  O   1.87308370582871     -0.47905872260462      1.14216962758530
  C   -1.97966262207089     -0.42680532452559     -0.25137704718028
  N   -2.99744552050154     -0.68405460750599     -0.77666020181730
  C   -0.67691697825599      1.21136834066482      0.95531911474723
  N   -0.64508574683148      2.29656930543663      1.40146962050976
