12
Coordinates from ORCA-job run
  C   0.50715975752694     -0.42570981858101     -0.52299599103400
  C   -0.74046831693194     -0.04213739173564      0.27933972901380
  H   0.59800761356434      0.14658618409453     -1.44454812579633
  H   -0.72173258773479     -0.57800542516651      1.23364370648774
  H   0.50592152480420     -1.49442965155181     -0.74674219448206
  N   1.74384346195046     -0.16084715396978      0.28164875427245
  O   1.64976849806242     -0.25736163056636      1.50220136476122
  O   2.76035071788814      0.08626832264827     -0.35510795414581
  C   -1.93612084434725     -0.43887198992098     -0.47167942408155
  N   -2.87136504463022     -0.78557510325528     -1.09059359266348
  C   -0.75481580373608      1.39772081649739      0.56165516630586
  N   -0.74054897641621      2.55236284150715      0.77217856136214
