14
Coordinates from ORCA-job run
  C   0.67622012293225     -0.47333215244719      0.76279457002503
  C   -0.57858128966413      0.29944586318516      0.36929422443166
  Br  1.48129748749053      0.28506153595564      2.32715824716644
  H   -1.18397905364309      0.40191471465523      1.27279380248870
  H   0.43612517631314     -1.51365184883869      0.97911262410462
  N   1.65340437222805     -0.51784156446227     -0.39619001017744
  O   1.11733369122157     -0.52634750179300     -1.50399705928156
  O   2.84636608151382     -0.61625292139467     -0.16771363071200
  N   -1.45286376826114     -0.62796969973132     -0.51555572519261
  O   -1.97302880718076     -0.13081568596614     -1.50329949700139
  O   -1.59949341936111     -1.77770483015079     -0.11344768688709
  N   -0.31238834203154      1.56254554645875     -0.19184648857049
  H   0.01913976787857      1.48076508602348     -1.14355308533331
  H   -1.12855201943615      2.15618345850582     -0.17655028506055
