14
Coordinates from ORCA-job run
  C   0.62166202036925     -0.50833658993872      0.78708582971178
  C   -0.60128751986295      0.26102548624422      0.29547622279136
  Br  1.34890379605819      0.33397613487297      2.35081721897896
  H   -1.27691105448512      0.40126351412024      1.15007363986205
  H   0.36980634116650     -1.53809564505943      1.03194487806651
  N   1.61612178726542     -0.56166172645033     -0.35409287561553
  O   2.69192763283633      0.00196940146757     -0.26645773979797
  O   1.18589794830238     -1.19740464717511     -1.31082493776438
  N   -1.41012261090921     -0.63879001118215     -0.62661018860614
  O   -1.79875639576123     -0.17058380821356     -1.68816002239574
  O   -1.66618583064649     -1.75080053523274     -0.18335251307540
  N   -0.19885509467692      1.43793363168744     -0.41080625072509
  H   -0.94252305392740      1.76175625175416     -1.01470216421523
  H   0.06132203427126      2.16774854310544      0.23960890278484
