14
Coordinates from ORCA-job run
  C   0.62164646397868     -0.43279881249767      0.73154611661264
  C   -0.68301076294049      0.26371110813967      0.30721589257494
  Br  1.38453539540998      0.48673283156641      2.23839648482295
  H   -1.28981400849513      0.33464379460158      1.21307179191848
  H   0.43790489837303     -1.46595613139939      1.02612748943734
  N   1.60972717488637     -0.49812300810284     -0.41388202124098
  O   2.80281472959461     -0.56228074909217     -0.16759469602180
  O   1.08790204766751     -0.54835010665306     -1.52679121948476
  N   -1.46216071497660     -0.72175434907000     -0.56593892261241
  O   -1.89302817547151     -0.34230593890322     -1.64049361222752
  O   -1.60371018134116     -1.83809290876904     -0.07139171084845
  N   -0.61943653687874      1.53071799891196     -0.31654698749360
  H   -0.04123419540226      1.53533775601579     -1.14417487810736
  H   -0.35213613440427      2.25751851525197      0.33045627267051
