14
Coordinates from ORCA-job run
  C   0.61265874912529     -0.72796313773352     -0.00980374221180
  C   -0.55019111784033      0.21544276754123      0.28969188525979
  Br  0.63732273468753     -2.26604727366270      1.14076851345311
  H   -0.57474588026394      0.46033428855349      1.34980286453036
  H   0.59940102322111     -1.06580300335452     -1.04433520311187
  N   1.87736316182445      0.06159650608799      0.17252262599258
  O   2.01182135638014      0.65533044168233      1.23716898692055
  O   2.65376714358992      0.07519534743701     -0.77809333752339
  N   -1.81309409644396     -0.54941408590295     -0.00994059915755
  O   -2.62157983613433     -0.70310377051645      0.89698242622919
  O   -1.92694936634756     -0.93574053785259     -1.17126268102326
  N   -0.56790948879848      1.40148981478055     -0.50122965922449
  H   -0.33167324384854      1.23960806530353     -1.47076819324403
  H   -0.00619113915129      2.13807457763659     -0.10150388688919
