14
Coordinates from ORCA-job run
  C   0.58955814015391     -0.73301848315992      0.14813569535880
  C   -0.54639857605923      0.28432614785301      0.22943874513989
  Br  0.54500903486562     -2.01203854981158      1.58055456255532
  H   -0.57918150029193      0.73684973391902      1.21870492801833
  H   0.57911449843450     -1.26909393136395     -0.79898144545545
  N   1.87548497101055      0.04068003488139      0.19668487319623
  O   2.66172368059133     -0.15016019763725     -0.72644856586964
  O   2.01606791012704      0.82539701293941      1.12852195012055
  N   -1.82948552748311     -0.48822683331433      0.06232361164700
  O   -1.93783521711221     -1.09739057133168     -0.99971027644937
  O   -2.65716478950635     -0.43039921032702      0.96289783857726
  N   -0.51400690299711      1.28805533984488     -0.78261523221672
  H   -0.26341859276505      0.92989960157919     -1.69415974952256
  H   0.06153287103205      2.07511990592881     -0.52334693509965
