14
Coordinates from ORCA-job run
  C   0.72564055116036     -0.53941348225145      0.65309732205227
  C   -0.58693686664020      0.21909697218677      0.48159396126137
  Br  1.79909410124830      0.20706098801433      2.05952588673259
  H   -1.19899870671111     -0.01360777975145      1.35808393771238
  H   0.54241322275026     -1.58219016163623      0.89433400843326
  N   1.53323250618360     -0.56956411223421     -0.61963758153644
  O   2.35942733764351     -1.46618454163226     -0.71264822342272
  O   1.30034194387273      0.29774786189077     -1.45994497885287
  N   -1.33894878176264     -0.51252246434113     -0.67005897016741
  O   -1.29488538618169     -1.74022701832870     -0.65520724607030
  O   -1.94772246184960      0.18305246350913     -1.47013776984083
  N   -0.48339063629788      1.60838314883605      0.31854454608875
  H   -0.02298901285084      1.84822075934929     -0.54759012304414
  H   -1.38527781056481      2.05814736638909      0.37104523065408
