14
Coordinates from ORCA-job run
  C   0.60611632581945     -0.67817305681986      0.44874341260609
  C   -0.47450213898302      0.32337292044821      0.08565709997253
  Br  0.56540061570336     -1.11562895171194      2.32197082920608
  H   -0.51194022969529      1.13740018940787      0.81493315238759
  H   0.51172277584713     -1.59191619310309     -0.13106035918747
  N   1.95340658675705     -0.09233643104770      0.13563598169586
  O   2.82053623587219     -0.87731637938610     -0.22441411200923
  O   2.08126997538444      1.12165040281496      0.28600554284648
  N   -1.81863557399949     -0.35502605529552      0.17484962937213
  O   -2.77363977300801      0.40960841358114      0.28501897690597
  O   -1.87300343987439     -1.57516255377329      0.07148711828236
  N   -0.32131710553264      0.71897539936694     -1.29763239617014
  H   -1.17848123190411      1.15783458618272     -1.61649631426819
  H   0.41306697761332      1.41471770933566     -1.35469856164006
