14
Coordinates from ORCA-job run
  C   0.94175320577433      0.08278175697898      0.13883003574559
  C   -0.58543425082638      0.22398599275009      0.28240000881331
  Br  1.60884794650851      0.86466488039291     -1.47590534092073
  H   -0.87836170362705     -0.38569715502178      1.13913212021719
  H   1.40919113209232      0.59558129370290      0.97913954450188
  N   1.35725938711329     -1.37216996391275      0.30272401950423
  O   1.09593005032083     -1.80654991809067      1.42065627557605
  O   1.88437556089609     -1.97162894227698     -0.61731944905961
  N   -1.21405964009987     -0.44590624930986     -0.92344220487340
  O   -1.75335544144044      0.26219620751068     -1.76158190848121
  O   -1.08118683434250     -1.66682479340144     -0.96472968334553
  N   -1.09317314390235      1.53945716686211      0.41774517159386
  H   -0.74024582384467      2.17413273439176     -0.28484323376293
  H   -0.95254044462211      1.90497698942404      1.34819464449129
