14
Coordinates from ORCA-job run
  C   0.64517514968404     -0.76828272519752      0.07447508070082
  C   -0.48431345815714      0.23527379199906      0.22228340787569
  Br  0.59549417707322     -2.11446250663016      1.44808328594563
  H   -0.54743813161810      0.60630099566889      1.24641100908190
  H   0.61029882740325     -1.24723808245116     -0.90074989430698
  N   1.95617792406414     -0.04026570412810      0.16289191931562
  O   1.99139988538618      0.96021691682813      0.87654353649191
  O   2.88800806825696     -0.51689164337672     -0.47091729629835
  N   -1.77569553687119     -0.48921813157542     -0.02918516907288
  O   -2.68962876791611     -0.27470751485475      0.76309414088930
  O   -1.82977045926515     -1.19925692077659     -1.02947333264343
  N   -0.32915819014374      1.24128533405729     -0.80886882108860
  H   -1.22785371267462      1.58915450684845     -1.11976126894132
  H   0.19930422477828      2.01809168358859     -0.43182659794930
