14
Coordinates from ORCA-job run
  C   0.99909107970840      0.01616704853994      0.22804918061801
  C   -0.50436437740288      0.24632570713320      0.32480899747030
  Br  1.75905553342897      0.86334843371046     -1.31348326091855
  H   -0.89010760569462     -0.41423247216672      1.10410992238642
  H   1.45802698905975      0.45364326558760      1.11384701972638
  N   1.33142907294726     -1.46788097662106      0.30547984312425
  O   2.00733216121476     -1.99106529116316     -0.56138315014345
  O   0.88596146987519     -1.99706649997140      1.31826138810142
  N   -1.15437148700006     -0.27737920748397     -0.96866665948451
  O   -1.87146440159398      0.49197537155605     -1.59656075452276
  O   -0.90612516418255     -1.44448866202953     -1.25231244051123
  N   -0.79144454006222      1.59696412471131      0.61948456417256
  H   -1.77086119918115      1.72203247141851      0.83564675377238
  H   -0.55215753111688      2.20165668677876     -0.15628140379123
