14
Coordinates from ORCA-job run
  C   0.66296905628806     -0.44967302335175      0.79243461651291
  C   -0.58592768737960      0.30584891107626      0.34776427664854
  Br  1.42021149797089      0.34528782877292      2.36134005647211
  H   -1.20691052603139      0.44729066763197      1.23501064336281
  H   0.42480047532911     -1.48791798918352      1.02068055364932
  N   1.66581030691647     -0.50482741011298     -0.34412105238892
  O   2.85902821362486     -0.51079768568730     -0.09758737475470
  O   1.14700475358880     -0.61188646639097     -1.45505935489473
  N   -1.44580906939967     -0.65537383450215     -0.51376735076805
  O   -1.93903265058669     -0.20140199138854     -1.53571076893682
  O   -1.60909148700774     -1.78464425564613     -0.06344715461560
  N   -0.30583760875528      1.54403022253805     -0.26146239817523
  H   -1.11853178295020      2.14246021791558     -0.27837416095796
  H   0.03231650839236      1.42160480832856     -1.20670053115368
