14
Coordinates from ORCA-job run
  C   0.89768472600621      0.02493070736184      0.32619963145434
  C   -0.63266514027693      0.16476644313492      0.21467598321723
  Br  1.83502942910513      1.14738850560767     -0.90878938608524
  H   -1.06635126250087     -0.62168355849245      0.83513027299202
  H   1.19180356659939      0.31522839270049      1.33456270095061
  N   1.30473864461328     -1.43717291973214      0.21780610253802
  O   0.85022806881966     -2.11483355699578      1.13486408487439
  O   2.00500501853723     -1.81701814381474     -0.70362281166287
  N   -1.01360510597073     -0.18715533797265     -1.20888491804272
  O   -0.85018188047196     -1.36664545917808     -1.51216560984666
  O   -1.40289334387658      0.71135740172322     -1.94107460887527
  N   -1.18501687649154      1.42369096759598      0.55924960955216
  H   -1.20829646164868      1.56238474240224      1.55918521813117
  H   -0.72747938244360      2.19476181565949      0.09286373080283
