14
Coordinates from ORCA-job run
  C   0.61034177971143     -0.68969596119771      0.24868236415027
  C   -0.55765745431975      0.29231408118052      0.18567800007399
  Br  0.58436119687215     -1.77100041139980      1.83585656652526
  H   -0.61915524639222      0.86601764343272      1.10858510904669
  H   0.63001294276697     -1.34469074203941     -0.62022159515328
  N   1.86899247220686      0.12772334664911      0.20665819046326
  O   1.98350335423205      1.01467528133369      1.04554471920784
  O   2.65839930780174     -0.13422312826421     -0.69634669238375
  N   -1.81366160292372     -0.53683424947195      0.10533619221656
  O   -2.65747658381849     -0.38820501803682      0.98028129040850
  O   -1.88614097454609     -1.28271761926243     -0.86879355278582
  N   -0.54135368566451      1.15859977818467     -0.94642955895398
  H   -0.26298785763567      0.69594554128936     -1.80106738670340
  H   0.00182235170925      1.99309145760224     -0.78376364611213
