14
Coordinates from ORCA-job run
  C   0.67770545170015     -0.46624684610546      0.76927244823065
  C   -0.58076256196367      0.29604413970165      0.36485692147195
  Br  1.46065633803932      0.29348999917637      2.34323826270958
  H   -1.18667140328846      0.41276696235553      1.26603121246537
  H   0.44535929330634     -1.50995014205238      0.97780014537675
  N   1.66072989095262     -0.49289525674868     -0.38490221669459
  O   1.12364587685046     -0.57030680709182     -1.48965251712608
  O   2.85790902341468     -0.50699430003274     -0.15856400222797
  N   -1.45230652570603     -0.64695113849937     -0.50549844623348
  O   -1.60568617539593     -1.78686013131959     -0.07911426901309
  O   -1.96319701822681     -0.17019628623186     -1.50817369356046
  N   -0.31570673233346      1.55007842752898     -0.21768661021386
  H   0.00991693755745      1.45269853320306     -1.17017218310110
  H   -1.13159239490667      2.14432284611632     -0.20843505208365
