14
Coordinates from ORCA-job run
  C   0.61107363250005     -0.72134705107398     -0.10972529650802
  C   -0.54143387208114      0.18008526509499      0.32737032861231
  Br  0.66096567858693     -2.38121358994731      0.85631806621005
  H   -0.53735337707493      0.30015023721650      1.40901416248397
  H   0.56894978684610     -0.93898095351488     -1.17525521567152
  N   1.88223274717603      0.04179429854219      0.12825992194094
  O   2.63657414229899      0.15830116925927     -0.83297814868398
  O   2.04368473198880      0.51569519102129      1.24780648761466
  N   -1.81371760950556     -0.54526756352050     -0.02560277067699
  O   -2.60221076686498     -0.79595152800754      0.87715972560392
  O   -1.95641638232769     -0.79969800990919     -1.21960269416546
  N   -0.57901538152133      1.45031148088458     -0.31972199591935
  H   -0.00105042676279      2.13384825524166      0.14593876517951
  H   -0.37128290325848      1.40127279871294     -1.30798133602004
