11
Coordinates from ORCA-job run
  C   0.00096630420363      0.13404687473133      0.42965816624971
  C   -0.83773804393604     -0.87838265136993     -0.31070842051407
  F   -0.67204958798595      0.62714866160149      1.49608157410900
  H   -1.07189029174907     -1.70380389099347      0.36220588489549
  H   -0.29754411173655     -1.25239026100263     -1.17915290699951
  H   -1.76521963195358     -0.39652898001251     -0.62567171142692
  C   1.30100645728367     -0.38808449072182      0.86599142135832
  N   2.31732183975146     -0.84313209693961      1.23865158862974
  N   0.28316146275073      1.30633929972133     -0.52449688853526
  O   -0.28972490231610      2.35880585492297     -0.29915673916972
  O   1.03271050568781      1.03698168006285     -1.45340196859677
