11
Coordinates from ORCA-job run
  C   0.13555839988624      0.13004208554150      0.40927094051256
  C   -1.01107538162389     -0.73897859947596     -0.04509579067565
  F   -0.14679536787109      0.71490210084242      1.59740402717219
  H   -1.90708029602586     -0.12007002093898     -0.12056564124881
  H   -1.17617321411116     -1.52242786672561      0.69510500474384
  H   -0.78454886096168     -1.18691922373661     -1.01155716755933
  C   1.41251743131533     -0.58658272883941      0.50387073367625
  N   2.41246730833022     -1.19306109770462      0.60939240236137
  N   0.32307855774584      1.25022856338307     -0.62733735086230
  O   0.74838759663873      0.87407251491071     -1.71122671346817
  O   -0.00533617332266      2.37679427274348     -0.29626044465196
