11
Coordinates from ORCA-job run
  C   0.12591012846355      0.10817424979534      0.41885286636023
  C   -1.02438064549258     -0.71313042243109     -0.10944690848700
  F   -0.18052897541973      0.64443767704583      1.62373696092548
  H   -1.90232227097885     -0.06968298418938     -0.19022184447644
  H   -0.77537238872526     -1.12756003978806     -1.08515782732483
  H   -1.23377482628486     -1.52106921324990      0.59202504658730
  C   1.38391578831809     -0.64057464397229      0.51765086559587
  N   2.36793351550907     -1.27228646927396      0.62415631967377
  N   0.36788848440823      1.27009589162146     -0.55913755502485
  O   0.81565823444488      0.93390685056847     -1.64710615719986
  O   0.05507295575746      2.38768910387359     -0.18535176662966
