11
Coordinates from ORCA-job run
  C   0.07751729208429      0.14889660540739      0.37238969061602
  C   -0.94880745571472     -0.83631663874946     -0.10836345635821
  F   -0.37404794530986      0.80881278740717      1.48156842419596
  H   -0.60802930559676     -1.32582852539654     -1.02113510541247
  H   -1.88245205075690     -0.31233873837308     -0.30403460159620
  H   -1.09901568065387     -1.58543228480721      0.67001010822757
  C   1.37384063404241     -0.47145356935133      0.66947752779343
  N   2.37011474776156     -1.04228909446128      0.91442715759553
  N   0.31586517386215      1.25925133246481     -0.66421196269290
  O   1.39368745578535      1.83791184415397     -0.59957468774577
  O   -0.61967286550367      1.51878628170557     -1.41055309462296
