11
Coordinates from ORCA-job run
  C   0.13461969795154      0.11406093131146      0.41411349875968
  C   -1.02152541248726     -0.72211062914738     -0.07645804972385
  F   -0.14696259269147      0.66254144853847      1.61957176207861
  H   -0.79629419358543     -1.13822551499757     -1.05727027384782
  H   -1.20151280716739     -1.52922059497980      0.63419991050373
  H   -1.90823006907971     -0.08814067462799     -0.13374537937434
  C   1.40055379582099     -0.62378432439430      0.49171577030715
  N   2.39111502212753     -1.24789125438981      0.58201474318812
  N   0.34488755173485      1.26591451000403     -0.58296425343383
  O   0.03109280802198      2.38538688524301     -0.21558088219147
  O   0.77125619935435      0.92046921743988     -1.67659684626600
