19

C	-0.035155	-0.040598	-1.541855
C	0.0	0.0	0.0
Br	-1.869427	-0.424701	-2.245869
H	1.094195	0.0	0.0
C	0.462045	1.252267	-2.15714
H	1.438415	1.434147	-1.700682
H	-0.195998	2.097505	-1.965359
H	0.569491	1.096065	-3.230498
N	0.856397	-1.094537	-2.003713
H	0.514197	-1.989245	-1.670341
H	1.734048	-0.895547	-1.48696
C	-0.564985	-1.202017	0.717142
H	-0.032033	-2.096165	0.391897
H	-0.39116	-1.096987	1.790358
H	-1.634517	-1.327413	0.547109
N	-0.564941	1.244716	0.562402
O	-1.672865	1.188292	1.111936
O	0.090023	2.284412	0.461843
F	2.644672	0.0	0.0
