19

C	-0.25182	0.044481	-1.502087
C	0.0	0.0	0.0
Br	-2.236313	0.794838	-1.841957
H	1.093551	0.0	0.0
C	0.698767	0.962602	-2.241295
H	0.484375	2.0062	-2.036832
H	0.643594	0.779932	-3.318019
H	1.685513	0.712298	-1.829173
N	-0.19126	-1.252287	-2.034518
H	-0.273765	-1.239605	-3.041996
H	-0.883209	-1.872724	-1.637265
C	-0.547919	-1.209699	0.715796
H	-0.350027	-1.120693	1.782441
H	-0.013633	-2.088411	0.352835
H	-1.628255	-1.330576	0.582932
N	-0.428007	1.252328	0.661683
O	0.010356	2.316269	0.223657
O	-1.176139	1.177825	1.643186
F	2.58589	0.0	0.0
