19

C	-0.190781	-0.000431	-1.557833
C	0.0	0.0	0.0
Br	-0.305905	-1.940873	-2.134292
H	1.091102	0.0	0.0
C	-1.484174	0.624276	-2.052742
H	-2.353059	0.153463	-1.589354
H	-1.488907	1.690732	-1.809388
H	-1.551201	0.512478	-3.135762
N	0.955389	0.54458	-2.214873
H	0.840415	1.552658	-2.232953
H	1.776455	0.351639	-1.608906
C	-0.625703	-1.077343	0.847654
H	-0.48636	-0.830981	1.901616
H	-0.112515	-2.015017	0.647003
H	-1.69701	-1.204402	0.665871
N	-0.439863	1.343376	0.456718
O	-1.337787	1.428246	1.304314
O	0.097786	2.333709	-0.048488
F	2.629623	0.0	0.0
