19

C	-0.373288	-0.06879	-1.494538
C	0.0	0.0	0.0
Br	-0.017996	1.739748	-2.254116
H	1.090721	0.0	0.0
C	0.633979	-1.006394	-2.148766
H	0.392304	-2.042075	-1.875489
H	0.584608	-0.919574	-3.235164
H	1.627285	-0.760702	-1.750987
N	-1.731007	-0.400984	-1.863939
H	-2.36192	0.117764	-1.260281
H	-1.86859	-1.391175	-1.692283
C	-0.468533	-1.228157	0.768627
H	-0.176562	-1.115629	1.816099
H	-1.550295	-1.380724	0.718922
H	0.054024	-2.107052	0.388364
N	-0.606939	1.178603	0.664502
O	-1.840809	1.293735	0.592603
O	0.111865	1.959287	1.27906
F	2.640134	0.0	0.0
