19

C	-0.083932	-0.050616	-1.5289
C	0.0	0.0	0.0
Br	-1.945291	-0.530513	-2.176854
H	1.094365	0.0	0.0
C	0.272949	1.266635	-2.198924
H	-0.430924	2.069624	-1.981519
H	1.264825	1.530535	-1.822113
H	0.308814	1.114583	-3.281705
N	0.815097	-1.119126	-1.890129
H	1.002103	-1.070891	-2.885218
H	1.690929	-0.912832	-1.369375
C	-0.553243	-1.208963	0.71321
H	-1.642864	-1.237562	0.691958
H	-0.152804	-2.095282	0.221138
H	-0.217469	-1.201755	1.753803
N	-0.535269	1.255642	0.569032
O	0.117064	2.290677	0.41169
O	-1.605194	1.213862	1.188752
F	2.644337	0.0	0.0
