19

C	-0.400757	-0.067533	-1.469383
C	0.0	0.0	0.0
Br	0.121304	1.771006	-2.27157
H	1.090148	0.0	0.0
C	0.544487	-1.036119	-2.163604
H	1.555813	-0.831822	-1.792706
H	0.247665	-2.055856	-1.897076
H	0.487854	-0.931628	-3.249915
N	-1.765947	-0.34311	-1.714684
H	-1.966179	-0.325177	-2.707235
H	-2.341433	0.336471	-1.230522
C	-0.473532	-1.213253	0.792999
H	-0.018483	-2.111265	0.373901
H	-0.107901	-1.111969	1.818389
H	-1.561024	-1.321599	0.79021
N	-0.559741	1.190954	0.69194
O	-1.739233	1.500556	0.464074
O	0.145305	1.773934	1.507695
F	2.62573	0.0	0.0
