19

C	-0.19146	-0.028357	-1.555368
C	0.0	0.0	0.0
Br	-0.217146	-1.971626	-2.103673
H	1.091108	0.0	0.0
C	-1.511125	0.532159	-2.054638
H	-1.574157	0.408042	-3.137827
H	-2.352493	0.018249	-1.584158
H	-1.5677	1.599525	-1.819457
N	0.933323	0.551644	-2.226967
H	0.805375	1.557843	-2.186617
H	1.761699	0.349994	-1.636907
C	-0.612051	-1.076055	0.860207
H	-1.681609	-1.223462	0.672965
H	-0.083337	-2.008601	0.673546
H	-0.484715	-0.814306	1.911815
N	-0.435357	1.344844	0.458575
O	0.016615	2.335952	-0.125001
O	-1.225602	1.434164	1.40633
F	2.616365	0.0	0.0
