19

C	-0.367796	-0.070686	-1.496196
C	0.0	0.0	0.0
Br	-0.028194	1.74393	-2.252059
H	1.090685	0.0	0.0
C	0.650296	-0.997487	-2.147289
H	1.639954	-0.743656	-1.747913
H	0.600923	-0.911897	-3.233501
H	0.419124	-2.033981	-1.871703
N	-1.719751	-0.416196	-1.870561
H	-2.357804	0.08698	-1.262395
H	-1.845285	-1.410831	-1.715854
C	-0.462923	-1.232876	0.764387
H	-1.543396	-1.394708	0.708891
H	-0.175374	-1.120314	1.81332
H	0.069029	-2.106234	0.383494
N	-0.616552	1.172647	0.663722
O	0.093447	1.95622	1.28445
O	-1.850819	1.278692	0.585528
F	2.64313	0.0	0.0
