13

C	-0.331239	-0.024303	-1.504935
C	0.0	0.0	0.0
Cl	0.332204	1.46072	-2.26677
H	1.097211	0.0	0.0
C	0.281397	-1.198997	-2.142414
N	0.695992	-2.132412	-2.724332
C	-1.775202	-0.050137	-1.752557
N	-2.935996	-0.070999	-1.941595
C	-0.458006	-1.214	0.641362
N	-0.747774	-2.225985	1.169617
C	-0.518702	1.183883	0.647714
N	-0.850924	2.167855	1.203081
H	2.400194	0.0	0.0
