13

C	-0.342295	0.000641	-1.490301
C	0.0	0.0	0.0
Cl	-2.134821	-0.001811	-1.794354
H	1.098466	0.0	0.0
C	0.201472	1.200867	-2.134207
N	0.597018	2.156105	-2.693061
C	0.205014	-1.197037	-2.136035
N	0.598836	-2.15266	-2.695437
C	-0.470295	-1.201025	0.653678
N	-0.777402	-2.198742	1.197919
C	-0.47042	1.200328	0.654835
N	-0.777296	2.197361	1.200448
H	2.404276	0.0	0.0
