13

C	-0.292819	6e-06	-1.5021
C	0.0	0.0	0.0
Cl	-2.070085	-0.00024	-1.869714
H	1.098454	0.0	0.0
C	0.279268	1.19833	-2.126022
N	0.691536	2.154336	-2.67129
C	0.279603	-1.198049	-2.126259
N	0.691672	-2.154129	-2.67156
C	-0.480996	-1.202097	0.640454
N	-0.793544	-2.203288	1.175427
C	-0.481085	1.202028	0.640535
N	-0.793892	2.202866	1.176033
H	2.398762	0.0	0.0
