13

C	-0.326206	0.01933	-1.505785
C	0.0	0.0	0.0
Cl	0.333215	-1.472068	-2.258259
H	1.097218	0.0	0.0
C	-1.768843	0.050598	-1.760276
N	-2.927822	0.076249	-1.959951
C	0.294395	1.188611	-2.146149
N	0.717826	2.116408	-2.731254
C	-0.521168	-1.180097	0.651867
N	-0.860335	-2.159941	1.210636
C	-0.456798	1.217438	0.635401
N	-0.748793	2.231651	1.158413
H	2.39914	0.0	0.0
