13

C	-0.347693	-0.017382	-1.500698
C	0.0	0.0	0.0
Cl	0.334195	1.454943	-2.269559
H	1.097142	0.0	0.0
C	0.232848	-1.204152	-2.145709
N	0.629215	-2.143859	-2.730723
C	-1.795486	-0.014691	-1.729698
N	-2.959197	-0.009555	-1.901068
C	-0.458223	-1.212637	0.643077
N	-0.750954	-2.22345	1.171915
C	-0.508538	1.185021	0.654347
N	-0.834137	2.169745	1.21216
H	2.402179	0.0	0.0
