13

C	-0.338183	0.018951	-1.5028
C	0.0	0.0	0.0
Cl	0.336844	-1.460658	-2.265504
H	1.097162	0.0	0.0
C	-1.783731	0.028818	-1.74432
N	-2.944977	0.034557	-1.931932
C	0.257918	1.199848	-2.144834
N	0.658921	2.140958	-2.724441
C	-0.514075	-1.18348	0.652209
N	-0.846102	-2.166376	1.209571
C	-0.457469	1.2141	0.640957
N	-0.749112	2.22542	1.169462
H	2.400739	0.0	0.0
