13

C	-0.354479	-0.017687	-1.498755
C	0.0	0.0	0.0
Cl	0.331798	1.450138	-2.273311
H	1.097139	0.0	0.0
C	0.216212	-1.208394	-2.144776
N	0.599171	-2.155736	-2.726156
C	-1.803423	-0.007336	-1.721156
N	-2.968217	0.004136	-1.886184
C	-0.458332	-1.21102	0.646359
N	-0.752573	-2.220238	1.177426
C	-0.504993	1.186532	0.654893
N	-0.827632	2.172446	1.212273
H	2.403136	0.0	0.0
