13

C	-0.295692	0.000354	-1.499983
C	0.0	0.0	0.0
Cl	-2.076354	0.001079	-1.860604
H	1.098462	0.0	0.0
C	0.273565	1.198551	-2.125768
N	0.688981	2.153136	-2.671534
C	0.272666	-1.198013	-2.126201
N	0.689451	-2.15162	-2.672629
C	-0.479316	-1.202627	0.641073
N	-0.791469	-2.203525	1.176511
C	-0.479138	1.202393	0.641655
N	-0.791127	2.202976	1.177772
H	2.397235	0.0	0.0
