13

C	-0.355457	-0.017522	-1.498512
C	0.0	0.0	0.0
Cl	0.333828	1.448364	-2.274264
H	1.09715	0.0	0.0
C	0.21196	-1.20971	-2.144531
N	0.598295	-2.154404	-2.727964
C	-1.804553	-0.003603	-1.719892
N	-2.969425	0.010781	-1.884117
C	-0.458582	-1.210738	0.64668
N	-0.753004	-2.219821	1.177918
C	-0.504371	1.186787	0.654993
N	-0.826513	2.172616	1.212802
H	2.403112	0.0	0.0
