14
Coordinates from ORCA-job run
  C   0.90646306489110     -0.25969860456055     -0.70767518465846
  C   -0.28253884907781     -0.24836118194675      0.26216181685911
  Cl  1.08005045369412      1.29691006543826     -1.56087707664153
  H   -0.22441492711456     -1.16841823179176      0.85035915851104
  H   0.68894062024469     -1.00885622611274     -1.47402706924069
  C   2.16878561292583     -0.62125178581748     -0.06854548344772
  N   3.19799517021945     -0.94507384512060      0.39510129160952
  C   -1.61894108565382     -0.12055644269795     -0.43361993536016
  H   -2.42437170598614     -0.10323069355700      0.30088014558107
  H   -1.76842978665050     -0.98259846440491     -1.08824345563159
  H   -1.67401777454172      0.79322067951109     -1.02170698124817
  N   -0.07627617783812      0.85369078370246      1.26851181781736
  O   -0.76335619322047      1.86476727317431      1.16325078263300
  O   0.79111157810794      0.64945667418363      2.11443017321722
