14
Coordinates from ORCA-job run
  C   0.96030946336546     -0.76035534914699     -0.36821768162573
  C   -0.38563219073603     -0.40153995159093      0.26991401468187
  Cl  0.68591882151787     -1.83497331158878     -1.76769251507051
  H   -0.88663737449422     -1.33847735549661      0.53445402661996
  H   1.56540869988283     -1.32110073069944      0.34161597654625
  C   1.68655499510672      0.43698906755832     -0.77814857036802
  N   2.24968102244213      1.41883555168607     -1.09129162246560
  C   -1.27245094838154      0.47848451972616     -0.58309632437037
  H   -2.22821775657318      0.64231373562196     -0.09000772776318
  H   -1.45054848620335     -0.00464324292550     -1.54403807720985
  H   -0.80183706749409      1.44784544378783     -0.75555915261565
  N   -0.10301109722483      0.26370357790908      1.60634936131922
  O   0.92642182264859     -0.06810265594324      2.19031885206278
  O   -0.94595990385635      1.04302070110206      2.03339944025883
