14
Coordinates from ORCA-job run
  C   0.89441760111565     -0.35290123187495     -0.76033801835755
  C   -0.27060992120066     -0.29235792093651      0.23513601866269
  Cl  0.88744673049692      0.92005770031900     -2.00591534245543
  H   -0.27047346931536     -1.24107776067411      0.77700744151747
  H   0.78437210369128     -1.29556883697279     -1.30397476148416
  C   2.17795750912659     -0.37608667426446     -0.06390605716107
  N   3.19761827097244     -0.42413371263228      0.51679569434218
  C   -1.62152795264507     -0.02623291255480     -0.40024287192737
  H   -2.40401067488031     -0.11791944221391      0.35510756020216
  H   -1.65108997196021      0.97459208020950     -0.82887315914109
  H   -1.81361347236998     -0.75427823396228     -1.19110962648357
  N   -0.01962530788330      0.73957645876149      1.29503229910167
  O   0.27797253078948      1.86774958288307      0.91477720033475
  O   -0.16883397593747      0.37758090391305      2.45950362284932
