14
Coordinates from ORCA-job run
  C   0.89231538371473     -0.40614561203342     -0.73759445654659
  C   -0.27646479480902     -0.27453261614435      0.24593589607452
  Cl  0.92007229440363      0.80697114915332     -2.04131853140075
  H   -0.30345544667598     -1.19845296878595      0.82859869105510
  H   0.76439363505869     -1.37042482061758     -1.23779858911011
  C   2.17107913335227     -0.42749058152541     -0.03244203094377
  N   3.18842783088265     -0.48054663514978      0.55193650805422
  C   -1.61803084638150     -0.00588038802819     -0.40900891756860
  H   -1.82268150255122     -0.76284977544937     -1.16892402203777
  H   -1.62295155939658      0.97587531161700     -0.88092563049391
  H   -2.40559102676816     -0.04725249092506      0.34541156056349
  N   -0.01238378485077      0.79745488088764      1.26210712057336
  O   -0.24163573503481      0.50860045863033      2.43381361241879
  O   0.36690641905607      1.88567408837083      0.84020878936203
