14
Coordinates from ORCA-job run
  C   0.99360724268692     -0.73095820061295     -0.28508491950564
  C   -0.38796026037545     -0.39719786560609      0.29243757320543
  Cl  0.83045444513596     -1.92775928008182     -1.59743791020072
  H   -0.82915184755686     -1.33499987130659      0.63913284005943
  H   1.59721581504513     -1.19982877254374      0.49291665163938
  C   1.66752346031931      0.46895550540472     -0.77021670121389
  N   2.19104713639342      1.45306311646746     -1.14034307660855
  C   -1.30552139687544      0.35431969455037     -0.64111157222669
  H   -1.49574309509496     -0.25196926061721     -1.52754318533540
  H   -0.86728776271258      1.30557914669207     -0.94290030483748
  H   -2.25637336721639      0.55771202920299     -0.14874687586537
  N   -0.12058272576481      0.38371454502484      1.56257243018369
  O   -0.53461483461265      1.53520428011100      1.64107557978105
  O   0.51538719062842     -0.21583506668505      2.42724947092475
