14
Coordinates from ORCA-job run
  C   0.97793997217653     -0.75548661614089     -0.33120627118783
  C   -0.38071879628417     -0.39906290345901      0.28042863823059
  Cl  0.73608149583539     -1.88201967148313     -1.69629906030163
  H   -0.86919130793354     -1.33483924124524      0.57131033606070
  H   1.58575592182882     -1.28153468782649      0.40251763104622
  C   1.68734552887832      0.43930199677867     -0.77637780802159
  N   2.23558096581371      1.41907544829424     -1.12084117278283
  C   -1.27353819320292      0.43553422951843     -0.61149456794612
  H   -1.43683890804018     -0.08509338405012     -1.55528879915692
  H   -0.81599707259255      1.40495743619538     -0.81619126904326
  H   -2.23529135295805      0.60264663210123     -0.13146629668228
  N   -0.12596748260276      0.31668430051034      1.59581096871298
  O   -0.99962208834229      1.07545886597986      1.99747967548231
  O   0.91446131742368      0.04337759482674      2.19061799558967
