14
Coordinates from ORCA-job run
  C   1.02800546307101     -0.63234723796609     -0.44197084343018
  C   -0.31594698525814     -0.46060165967424      0.27020945785719
  Cl  0.79492186087134     -1.72902449401636     -1.83539800471406
  H   -0.72991993472435     -1.45320013996450      0.46680920083621
  H   1.74385590350487     -1.11728777847756      0.22105456374355
  C   1.57945125306274      0.63929962313409     -0.89684063261575
  N   1.99903381256417      1.66844186218317     -1.27580668315985
  C   -1.31680933286779      0.40474037458655     -0.47168687335080
  H   -0.94199041788451      1.42532006266848     -0.57228412337653
  H   -2.25898051027677      0.42512041037074      0.07396386903176
  H   -1.49460770565571     -0.00393269572055     -1.46689929417656
  N   -0.08084926440245      0.13334744321593      1.63812060959701
  O   1.06476054030788      0.46248734307652      1.94065386011590
  O   -1.07192468231227      0.23763688658380      2.35107489364214
