14
Coordinates from ORCA-job run
  C   1.19502480260671     -0.01407268208512     -0.18842733215982
  C   -0.19539631978009     -0.14109803633857      0.42569760896112
  Cl  2.43938578088455     -0.01901830330271      1.08919073326728
  H   -0.22977903533041     -0.99587631074456      1.10219121100962
  H   1.27043438112895      0.94674749785069     -0.70194366458306
  C   1.43520501114287     -1.10334014497826     -1.12716976270652
  N   1.59541406464770     -1.98390194027217     -1.88770167496629
  C   -1.30077693874053     -0.18388062663359     -0.61584024284696
  H   -2.27231437771970     -0.19231771130891     -0.11817540504401
  H   -1.24657346800733      0.69087337751026     -1.26660518867607
  H   -1.21647937998134     -1.08736829975474     -1.22088910259383
  N   -0.42221920752857      1.06282611494960      1.29591384436874
  O   -0.88183931056273      0.86086120076309      2.41492327034329
  O   -0.17108600276007      2.15756586434501      0.79883570562652
