14
Coordinates from ORCA-job run
  C   1.04532822552992     -0.61391638695008     -0.42587555175511
  C   -0.29580475556393     -0.45819742623370      0.29497114756862
  Cl  0.83733570845047     -1.78166997684198     -1.76439252660497
  H   -0.66962481805730     -1.45508795987777      0.54357949280986
  H   1.78569854666676     -1.04144344147526      0.24963060893045
  C   1.54585676495656      0.65415671579374     -0.94531228402111
  N   1.92721824557426      1.67830931099817     -1.37473504202682
  C   -1.33738254144613      0.33262805812540     -0.47317747049147
  H   -1.00081433633184      1.35909045372225     -0.63179060408071
  H   -1.51489218557545     -0.13270336586726     -1.44319720372308
  H   -2.27171347001933      0.34783725076407      0.08594948572890
  N   -0.06701524173931      0.20801797667481      1.63058927338543
  O   -1.05260677182144      0.30785322668024      2.35177352864560
  O   1.06841662937677      0.59512556448735      1.90098714563440
