14
Coordinates from ORCA-job run
  C   1.14837628216239      0.03144490539110     -0.37982723835350
  C   -0.11814465496784     -0.14779214829638      0.45103391608142
  Cl  2.58289022393783      0.07425813839278      0.67907534609610
  H   -0.00979139816518     -1.00250404886102      1.11978861189887
  H   1.10373675782003      0.99423752217952     -0.89318834065972
  C   1.27357080611621     -1.04833625820434     -1.35124899136608
  N   1.34083385515402     -1.92320282287844     -2.13201373235428
  C   -1.37540868523352     -0.23342395135704     -0.39777803353539
  H   -1.45879951785854      0.64074032748848     -1.04635290559930
  H   -1.35775564988805     -1.13510200915121     -1.01113727205703
  H   -2.25266242873731     -0.27512294039314      0.25055568515541
  N   -0.24590464211426      1.04727032355879      1.35289413549127
  O   -0.11946487171499      2.15034035259961      0.82769000854995
  O   -0.51047607651080      0.82919260953129      2.53050881065227
