14
Coordinates from ORCA-job run
  C   1.00241323832630     -0.69000253322127     -0.34678736406730
  C   -0.35936274713432     -0.41534177451895      0.30341360626741
  Cl  0.81525985745721     -1.87017619319038     -1.67143844254388
  H   -0.74953515831600     -1.37354422559429      0.65537727242654
  H   1.66053559056939     -1.15007499639746      0.39132360635632
  C   1.61073934762910      0.53999793447311     -0.84290670117907
  N   2.08460680280556      1.54594767979614     -1.22124097969884
  C   -1.34778713758765      0.31857680966360     -0.56941633668053
  H   -2.27492885099985      0.48947846456922     -0.02294575366041
  H   -0.95425612683298      1.28484633523613     -0.88424774784760
  H   -1.57012999975179     -0.28366903389225     -1.45090394134293
  N   -0.05603371319679      0.35374194969123      1.57341138259316
  O   0.63946526427330     -0.23897533986311      2.39594479178534
  O   -0.50098636724147      1.49019492324830      1.69141660759179
