14
Coordinates from ORCA-job run
  C   1.17943908270324     -0.15751588223349     -0.22049543498437
  C   -0.21183619373364     -0.17644511372714      0.40408280392964
  Cl  2.41487091624205     -0.54516898874151      1.00620527121166
  H   -0.36975891151789     -1.11320280926887      0.93978518543965
  H   1.39393347453665      0.85122318550773     -0.57958173391289
  C   1.25109858404629     -1.10766733792253     -1.32391639296721
  N   1.27610404780758     -1.86895307928811     -2.21798369379411
  C   -1.31554639359609      0.10648592844937     -0.60122736438987
  H   -1.37664362142077     -0.70006646415714     -1.33325235395089
  H   -2.27382099697247      0.17401305822637     -0.08243464398402
  H   -1.12873164057499      1.04915517970373     -1.11962440881135
  N   -0.25511334604127      0.89453280611809      1.45668175978353
  O   0.15149989042521      2.00620604804522      1.12879293691229
  O   -0.73449489190392      0.58740346928827      2.54296806951795
