13
Coordinates from ORCA-job run
  C   0.85820402489534     -0.11827173752815      0.28833294884441
  C   -0.57249200414161     -0.48105206713154     -0.16987486138781
  F   1.05810175198654     -0.74024051624292      1.49747597329613
  H   -0.62878718546778     -1.56479638963819     -0.29492150075344
  C   1.06446212703823      1.32893785652504      0.44015063010442
  N   1.29697982464130      2.47592139736752      0.54832993400376
  C   1.80723822878883     -0.65232915877623     -0.70067690314734
  N   2.54432006022889     -1.09991052951015     -1.49925519898345
  C   -0.93600254626568      0.22787983615040     -1.38524215248949
  N   -1.21524289503519      0.79288016817947     -2.37697622620769
  N   -1.53597799466780     -0.13602830286352      0.95115566149771
  O   -1.65011314159764      1.05316050557776      1.21535615275961
  O   -2.09069025040344     -1.08615106210950      1.48614554246317
