13
Coordinates from ORCA-job run
  C   0.91200576372473      0.13547587237299     -0.28442067786802
  C   -0.49858262312064     -0.49142546340934     -0.40808063001595
  F   1.51016191524447     -0.06282441519992     -1.50912015799297
  H   -0.37650132117711     -1.51592682826749     -0.76729202640934
  C   1.67541168274597     -0.58037522561786      0.74899085234460
  N   2.26754982682716     -1.18334336558861      1.56562622553241
  C   0.88051640326537      1.57554028043346     -0.00486567498667
  N   0.90185295136201      2.73892120109437      0.16042056227631
  C   -1.34213729133277      0.28526293450143     -1.30346996900965
  N   -2.01807662966337      0.91417174942391     -2.03022950394218
  N   -1.14922616427054     -0.58421226801026      0.95572568923492
  O   -1.64369078423463     -1.66565144564954      1.24261682898038
  O   -1.11928372937067      0.43538697391688      1.63409848185617
