13
Coordinates from ORCA-job run
  C   0.86220452622209     -0.10144245262952      0.27985900703239
  C   -0.56260237590042     -0.49575284837327     -0.17060195071671
  F   1.09072184964696     -0.73467646307398      1.47817218773466
  H   -0.59244400672926     -1.57946937162256     -0.30564437552799
  C   1.03128497514024      1.34842956258619      0.45186489390293
  N   1.24126873484296      2.49771761397261      0.58052684953531
  C   1.81622030682211     -0.59443138666189     -0.72550798287388
  N   2.55958161236510     -1.00531392840742     -1.53781969901129
  C   -0.95133915442951      0.21472130993994     -1.37731311831237
  N   -1.25258597310762      0.78227659280296     -2.36110861910562
  N   -1.52476587836828     -0.18345419902550      0.95971590776011
  O   -2.04179893287306     -1.15108247998016      1.50111849920449
  O   -1.67474568363132      1.00147805047260      1.22573840037797
