13
Coordinates from ORCA-job run
  C   0.92940066592443      0.07602468521797     -0.25684888331825
  C   -0.52736768106998     -0.42264037706637     -0.40029309229305
  F   1.46523068785453     -0.00023187522260     -1.52540934245723
  H   -0.50263487493351     -1.45986206155482     -0.74941338892745
  C   1.69585663498412     -0.81366377227010      0.62624269715858
  N   2.32204759676199     -1.56703850633574      1.27502905571294
  C   0.98764607850652      1.46984462440591      0.19958435983116
  N   1.04297228601608      2.60151882048508      0.51123878209316
  C   -1.27402458698920      0.40686425667603     -1.33467824716365
  N   -1.86267518632066      1.08535164335628     -2.09192296741067
  N   -1.25269049998336     -0.44656392561734      0.93517486081966
  O   -0.63450883631614     -0.03901592846646      1.91163586866066
  O   -2.38925228443481     -0.88958758360782      0.89766029729414
