13
Coordinates from ORCA-job run
  C   0.86315370300972     -0.09351710414621      0.28771587836571
  C   -0.55710695673346     -0.49890347722645     -0.16701420217781
  F   1.08356381828868     -0.70719473111276      1.49706927772504
  H   -0.58214447817321     -1.58404538882202     -0.29047228910740
  C   1.02695267894770      1.35967410573750      0.43452022313022
  N   1.22152600426235      2.51465678504909      0.53096177597949
  C   1.82533484928687     -0.60060665671216     -0.70303930320270
  N   2.57340305988689     -1.02731794761477     -1.50274646266140
  C   -0.94417565695808      0.19820562870573     -1.38214401473022
  N   -1.24403491559148      0.76093504805306     -2.36921631728593
  N   -1.52926431912022     -0.18074815147203      0.95506376917863
  O   -2.06229252078606     -1.14623301348712      1.48457877716773
  O   -1.67291526631968      1.00409490304815      1.22372288761863
