15

C	0.0	0.0	0.0
C	-0.332181	-0.059248	-1.537693
Cl	1.832862	0.0	0.0
H	0.463865	0.471075	-2.066345
C	-0.367668	1.329749	0.509364
N	-0.572	2.390688	0.968767
N	-0.55616	-1.002462	0.837906
H	-0.440735	-1.918968	0.419059
H	-1.554556	-0.811143	0.952696
N	-1.566789	0.608032	-1.818582
H	-2.378583	0.248546	-1.304629
H	-1.769941	0.621881	-2.808855
C	-0.22926	-1.48333	-1.951073
N	-0.162391	-2.603281	-2.303363
Br	-4.195251	0.0	0.0
