15

C	0.0	0.0	0.0
C	-0.428007	-0.041275	-1.518249
Cl	1.772995	0.0	0.0
H	0.426437	0.359101	-2.070612
C	-0.363089	1.344371	0.497957
N	-0.575767	2.413706	0.944551
N	-0.58356	-1.071505	0.73921
H	-1.595466	-1.030892	0.572814
H	-0.432857	-0.935239	1.732666
N	-1.566336	0.726293	-1.894952
H	-2.419085	0.556176	-1.365541
H	-1.331603	1.696022	-2.068335
C	-0.525001	-1.454186	-1.936843
N	-0.51545	-2.543714	-2.377871
Br	-4.061663	0.0	0.0
