15

C	0.0	0.0	0.0
C	-0.527212	-0.168084	-1.436898
Cl	1.812693	0.0	0.0
H	-1.616674	-0.02691	-1.327559
C	-0.330493	1.36737	0.463612
N	-0.540862	2.449436	0.872623
N	-0.494894	-1.0435	0.832675
H	-0.392929	-0.770439	1.804092
H	-1.499063	-1.126813	0.641893
N	-0.285858	-1.503912	-1.93757
H	0.668773	-1.601856	-2.259345
H	-0.918525	-1.691553	-2.704027
C	0.00301	0.896028	-2.308485
N	0.433178	1.671564	-3.080154
Br	-3.682057	0.0	0.0
