15

C	0.0	0.0	0.0
C	-0.32832	0.203716	-1.551718
Cl	1.784925	0.0	0.0
H	0.406845	0.92777	-1.917232
C	-0.411982	1.234275	0.681963
N	-0.706429	2.239266	1.213813
N	-0.571161	-1.127366	0.653506
H	-1.576633	-0.964373	0.759711
H	-0.429344	-1.961308	0.092569
N	-1.630849	0.661345	-1.930658
H	-2.389679	0.122729	-1.506215
H	-1.766718	1.612415	-1.607576
C	-0.032162	-1.082599	-2.203866
N	0.208928	-2.128576	-2.679848
Br	-4.152933	0.0	0.0
