15

C	0.0	0.0	0.0
C	-0.389696	-0.624952	-1.39257
Cl	1.82073	0.0	0.0
H	0.301664	-0.193286	-2.122538
C	-0.384125	1.414779	-0.024018
N	-0.622238	2.563402	-0.092273
N	-0.630957	-0.661879	1.044741
H	-0.417012	-1.640603	1.141233
H	-0.738979	-0.166715	1.912159
N	-1.730042	-0.424123	-1.842899
H	-2.447234	-0.667184	-1.151017
H	-1.894224	0.554202	-2.049111
C	-0.076841	-2.062955	-1.311416
N	0.173596	-3.206814	-1.225858
Br	-4.476321	0.0	0.0
