18

C	0.0	0.0	0.0
C	-0.307697	-0.192924	-1.515705
Br	1.969689	0.0	0.0
H	0.359832	0.475167	-2.065925
C	-0.488212	1.344578	0.50205
H	-1.585111	1.242738	0.492109
H	-0.111884	1.501491	1.516649
H	-0.153687	2.164074	-0.136445
C	-0.506837	-1.137837	0.858661
H	-0.20566	-0.969918	1.896435
H	-0.118025	-2.103914	0.530348
H	-1.603837	-1.061454	0.751686
N	-1.673701	0.238425	-2.056746
O	-2.38514	-0.613334	-2.561637
O	-1.825346	1.450376	-2.124163
C	-0.041244	-1.561718	-1.956907
N	0.231942	-2.646121	-2.316278
F	-2.848726	0.0	0.0
