18

C	0.0	0.0	0.0
C	-0.401838	0.090113	-1.492875
Br	1.964155	0.0	0.0
H	-0.006528	-0.795559	-1.994299
C	-0.492528	1.159922	0.846496
H	-0.170534	1.012371	1.88094
H	-0.117863	2.116387	0.484907
H	-1.586155	1.097234	0.770386
C	-0.496207	-1.329602	0.541894
H	-1.591396	-1.236651	0.512946
H	-0.141453	-2.16871	-0.063929
H	-0.144642	-1.461926	1.568711
N	0.309651	1.226066	-2.209279
O	1.096756	0.911525	-3.09985
O	0.042198	2.374563	-1.872005
C	-1.824142	0.228878	-1.885928
N	-2.582459	0.352362	-2.787589
F	-2.859427	0.0	0.0
