18

C	0.0	0.0	0.0
C	-0.302749	0.003618	-1.529077
Br	1.969583	0.0	0.0
H	0.355141	0.747794	-1.984606
C	-0.494561	1.266038	0.66836
H	-1.591791	1.158454	0.640079
H	-0.160809	2.16265	0.142476
H	-0.12352	1.292352	1.696912
C	-0.506227	-1.242653	0.698389
H	-0.207988	-1.212448	1.750032
H	-1.603655	-1.155098	0.600137
H	-0.113293	-2.156064	0.246488
N	-1.67732	0.481309	-2.013759
O	-2.383189	-0.314918	-2.610001
O	-1.840098	1.691577	-1.938863
C	-0.015726	-1.291512	-2.144409
N	0.27561	-2.313176	-2.646803
F	-2.854978	0.0	0.0
