18

C	0.0	0.0	0.0
C	-0.653824	0.088106	-1.380672
Br	1.959699	0.0	0.0
H	-1.771308	0.032085	-1.055852
C	-0.461147	1.226038	0.785173
H	-0.103367	2.153233	0.33237
H	-0.079305	1.166927	1.807217
H	-1.55574	1.17322	0.775109
C	-0.455181	-1.266462	0.718749
H	-0.083306	-2.170828	0.236757
H	-0.086238	-1.241826	1.747161
H	-1.549306	-1.231798	0.695313
N	-0.307791	-1.078041	-2.251089
O	-0.934279	-2.118979	-2.059047
O	0.584315	-0.939067	-3.090776
C	-0.334366	1.313255	-2.093
N	-0.133788	2.330744	-2.646444
F	-2.933752	0.0	0.0
