18

C	0.0	0.0	0.0
C	-0.302379	-0.011755	-1.529901
Br	1.969735	0.0	0.0
H	0.351164	0.733334	-1.990663
C	-0.495791	1.273634	0.654165
H	-0.125084	1.312389	1.682443
H	-0.162991	2.164046	0.117521
H	-1.593052	1.166099	0.626178
C	-0.508831	-1.234105	0.712379
H	-0.118116	-2.153002	0.270056
H	-0.21201	-1.193711	1.763902
H	-1.606098	-1.144192	0.612374
N	-1.678132	0.449781	-2.019232
O	-2.380651	-0.358979	-2.601927
O	-1.848716	1.660014	-1.962735
C	-0.007246	-1.309775	-2.135391
N	0.284461	-2.334623	-2.629352
F	-2.857783	0.0	0.0
