18

C	0.0	0.0	0.0
C	-0.300132	-0.029223	-1.529342
Br	1.969569	0.0	0.0
H	0.351428	0.712718	-1.997255
C	-0.496779	1.280461	0.639307
H	-1.594035	1.171586	0.611999
H	-0.126919	1.331807	1.667381
H	-0.164308	2.164971	0.092385
C	-0.507604	-1.226545	0.725825
H	-1.604943	-1.138729	0.6272
H	-0.117548	-2.149954	0.292263
H	-0.207954	-1.175743	1.776407
N	-1.677985	0.422155	-2.024922
O	-1.852151	1.63188	-1.982561
O	-2.376393	-0.396258	-2.598973
C	0.001413	-1.331765	-2.122046
N	0.303517	-2.358166	-2.606816
F	-2.856142	0.0	0.0
