16

C	0.0	0.0	0.0
C	-0.60641	0.137606	-1.405108
Br	1.929143	0.0	0.0
H	-1.705767	0.261539	-1.213676
N	-0.398471	1.235878	0.819732
O	-0.283189	1.142875	2.034003
O	-0.75808	2.228928	0.200742
C	-0.493241	-1.245007	0.706331
H	-1.5873	-1.222092	0.710454
H	-0.133847	-2.128401	0.177574
H	-0.113698	-1.254765	1.726471
C	-0.406581	-1.103707	-2.154875
N	-0.246595	-2.092205	-2.769369
C	-0.082604	1.248521	-2.200438
N	0.341495	2.087686	-2.904768
Br	-3.730123	0.0	0.0
