16

C	0.0	0.0	0.0
C	-0.603762	0.085595	-1.4114
Br	1.929113	0.0	0.0
H	-1.701243	0.219991	-1.227228
N	-0.402377	1.262892	0.77108
O	-0.756768	2.232053	0.11332
O	-0.291134	1.215554	1.988505
C	-0.494609	-1.219248	0.749892
H	-0.136014	-2.121125	0.252794
H	-1.588365	-1.192491	0.750426
H	-0.115715	-1.193322	1.770006
C	-0.40643	-1.184203	-2.112664
N	-0.247077	-2.194188	-2.691149
C	-0.075494	1.163349	-2.247783
N	0.34862	1.975068	-2.983377
Br	-3.727864	0.0	0.0
