16

C	-0.103677	0.087668	-1.534009
C	0.0	0.0	0.0
Cl	-1.723028	0.757444	-2.105759
H	1.098929	0.0	0.0
N	0.953087	0.953217	-1.955576
H	1.797512	0.6977	-1.39094
H	1.125296	0.861643	-2.948653
C	-0.03849	-1.251059	-2.152058
N	0.084132	-2.287272	-2.695255
C	-0.608041	-1.187225	0.556975
N	-1.110081	-2.12653	1.056118
C	-0.454162	1.275593	0.700421
H	-0.013595	2.127732	0.18275
H	-1.541498	1.381028	0.71399
H	-0.079958	1.264455	1.726663
F	2.624797	0.0	0.0
