16

C	-0.391548	-0.004524	-1.456261
C	0.0	0.0	0.0
Cl	-2.313538	-0.235384	-1.608599
H	1.096566	0.0	0.0
N	0.000111	1.163799	-2.131387
H	-0.284746	1.150595	-3.101358
H	-0.352047	1.990626	-1.669957
C	0.123815	-1.184064	-2.15607
N	0.53525	-2.128983	-2.719247
C	-0.481192	-1.183394	0.679076
N	-0.857627	-2.120649	1.282109
C	-0.393462	1.278358	0.734671
H	-1.451494	1.539101	0.622223
H	0.245814	2.093269	0.386955
H	-0.176225	1.148165	1.795767
F	2.498484	0.0	0.0
