16

C	-0.102863	0.099	-1.532727
C	0.0	0.0	0.0
Cl	-1.725463	0.764207	-2.100977
H	1.098959	0.0	0.0
N	0.949724	0.973822	-1.947681
H	1.119043	0.892274	-2.942327
H	1.795124	0.713252	-1.387889
C	-0.030434	-1.23529	-2.160592
N	0.08412	-2.264935	-2.718083
C	-0.606676	-1.191926	0.548283
N	-1.10796	-2.13347	1.044063
C	-0.456877	1.269605	0.709637
H	-0.018429	2.126491	0.197682
H	-0.083323	1.252427	1.735845
H	-1.544619	1.372149	0.723364
F	2.622466	0.0	0.0
