16

C	-0.113826	-0.044385	-1.542954
C	0.0	0.0	0.0
Cl	0.083951	1.73788	-2.185076
H	1.097559	0.0	0.0
N	0.904674	-0.887308	-1.985575
H	1.772952	-0.668048	-1.448155
H	1.026481	-0.888267	-2.989035
C	-1.442487	-0.403106	-2.05381
N	-2.519583	-0.693726	-2.42811
C	-0.47873	-1.269482	0.524304
N	-0.876208	-2.26618	1.006306
C	-0.632925	1.173753	0.727372
H	-0.104279	2.092059	0.480903
H	-0.543442	1.008825	1.803238
H	-1.693538	1.291835	0.483476
F	2.62104	0.0	0.0
