17
Coordinates from ORCA-job run
  C   -0.69652501091016     -0.05393163528406      0.42832835039930
  C   0.84186182338683     -0.16559019490601      0.47826960291366
  Cl  -1.21117610141055      0.43632441917599      2.13514105045658
  H   1.08225592968504     -0.89318366234349      1.26344639008119
  N   -1.23716443512365     -1.31757899351130      0.06044615803091
  H   -2.24494615332506     -1.26571283752855     -0.02636399686299
  H   -1.01335745811783     -2.02667726298645      0.74955272605205
  C   -1.19556845116784      1.02985906897811     -0.50661370334749
  H   -0.76465096771044      1.99692808707253     -0.24780128585347
  H   -2.28188833717271      1.11179663256752     -0.43030868640175
  H   -0.93782391744748      0.77418202627436     -1.53599777734904
  C   1.44225892770108      1.10963038410983      0.87343498749311
  N   1.95616680535701      2.13345178701370      1.13078017417832
  C   1.44958846714296     -0.63270478112838     -0.84999610363710
  H   0.97947634897710     -1.56219759003024     -1.16679186365182
  H   2.52221004440220     -0.79319597848030     -0.72600045718677
  H   1.31128248573349      0.11760053100674     -1.62952556531466
