17
Coordinates from ORCA-job run
  C   -0.67077226212668     -0.11142622341857      0.28327647420130
  C   0.85522520203738      0.14530625914511      0.28603673214062
  Cl  -1.06539951870854     -1.04083436169881      1.77526178557534
  H   1.08224632670450      0.73550137252346      1.18104060449245
  N   -1.00098754185494     -0.95770678242687     -0.84372582408483
  H   -0.84073150415359     -0.44189247462712     -1.70430033384345
  H   -1.98223661960414     -1.20978264250162     -0.80718973336756
  C   -1.45465191716409      1.19371792552547      0.35702981592038
  H   -1.27029440264687      1.78718341352036     -0.54225037584142
  H   -2.52315188179405      0.97776877950766      0.41885630581598
  H   -1.17167648330501      1.78084809246428      1.23357504010729
  C   1.17262332158874      0.96900391070791     -0.88507010639575
  N   1.40083515253229      1.59799096294255     -1.85069320559603
  C   1.71022478181004     -1.12439684639570      0.27385159497252
  H   1.52823282797269     -1.70424190038998      1.17788819480247
  H   2.76822362394044     -0.85836505287073      0.23574558500873
  H   1.46029089477183     -1.73767443200741     -0.59033255390804
