17
Coordinates from ORCA-job run
  C   -0.63202323985033      0.01832651317707      0.40086988445984
  C   0.81833265407763     -0.34006843838761      0.02149088839317
  Cl  -0.61631095697720      1.40973909586589      1.53689792346798
  H   0.74471306399392     -1.24775634429371     -0.59478546512430
  N   -1.17443776401800     -1.10773338423853      1.13545018565643
  H   -2.07906222348211     -0.86702308646486      1.52489317940394
  H   -1.29974301721243     -1.89248109965508      0.50353084732796
  C   -1.45090979279234      0.42834976933021     -0.81766647826434
  H   -1.42915092334549     -0.37670056934232     -1.55996077641502
  H   -2.48713197422683      0.59194794750570     -0.51539942924979
  H   -1.08409117575394      1.34594794744404     -1.27790522763971
  C   1.58284669167423     -0.70119592646287      1.21818513121577
  N   2.26949035962092     -0.96753750117095      2.13205828546642
  C   1.56422139519644      0.73045303661147     -0.77842612987775
  H   2.59073795823871      0.40753052002764     -0.95887376545917
  H   1.59331419673505      1.67026930221800     -0.22609730039561
  H   1.08820474812178      0.89793221783591     -1.74526175296583
