17
Coordinates from ORCA-job run
  C   -0.64465194418455      0.11500175549891      0.36475347063194
  C   0.78579718366887     -0.39479159180214      0.10255030175846
  Cl  -0.56157206780381      1.63069387804982      1.32763093462414
  H   0.66415537312326     -1.36194465066608     -0.40656248213903
  N   -1.30520899653723     -0.86736267159185      1.20020982024791
  H   -2.21228562057511     -0.52257546059709      1.49429987136657
  H   -1.44614859126909     -1.72144615212502      0.66955619771751
  C   -1.37775380726001      0.43545256622743     -0.93268662085946
  H   -2.40871489140362      0.71270326091148     -0.70433475016572
  H   -1.39150535527038     -0.45314674340421     -1.57289640673339
  H   -0.91897620787116      1.25988085570608     -1.47878225629912
  C   1.47039699577677     -0.66708854717997      1.36919913061573
  N   2.09575441045780     -0.87306982986759      2.34096044812489
  C   1.64673154913623      0.51189595213112     -0.78013939629508
  H   1.72258572482646      1.50907272459969     -0.34520622812875
  H   2.65256730885729      0.09758766236881     -0.86449468025226
  H   1.22782893632828      0.59013699174060     -1.78405735421434
