17
Coordinates from ORCA-job run
  C   -0.70857454573099     -0.04965836335744      0.40772367968146
  C   0.82785361478575     -0.15752033435863      0.50363313354460
  Cl  -1.27319476183322      0.45785044574542      2.09392855445431
  H   1.04602165941621     -0.87435255048413      1.30505271964201
  N   -1.23586036945995     -1.31840006225194      0.03815622635778
  H   -1.02710151691047     -2.02004338779842      0.73962996606283
  H   -2.24154680306633     -1.27083046065062     -0.07384671460234
  C   -1.18300343232143      1.02318058292068     -0.55228166265915
  H   -2.27132809015594      1.10237429092815     -0.50877737874379
  H   -0.89466425831720      0.75790552691610     -1.57103769904290
  H   -0.76271501656109      1.99411991755118     -0.29068130825125
  C   1.41439512147211      1.12374434024716      0.89999733818733
  N   1.91790221878645      2.15193707047824      1.16038087125976
  C   1.47499770334978     -0.64197713918673     -0.79943447533966
  H   1.02444059628751     -1.58312454367578     -1.11056616297516
  H   1.34739117514575      0.09141025174539     -1.59683695793413
  H   2.54598670511307     -0.78661558476864     -0.64504012964170
