14

C	-0.598782	-0.144708	-1.399109
C	0.0	0.0	0.0
Cl	0.466114	-1.076037	-2.50564
H	1.096211	0.0	0.0
H	-1.53975	-0.703194	-1.374309
C	-0.851075	1.162903	-2.00549
N	-1.067597	2.17283	-2.565501
N	-0.402302	-1.192866	0.801013
O	-0.413266	-1.077135	2.028668
O	-0.663084	-2.24442	0.207564
N	-0.36923	1.226575	0.641342
H	0.426228	1.529722	1.188735
H	-1.163426	1.119614	1.260191
F	2.497959	0.0	0.0
