14

C	-0.50135	-0.137889	-1.43259
C	0.0	0.0	0.0
Cl	0.117949	1.20088	-2.434048
H	1.101461	0.0	0.0
H	-0.10973	-1.057244	-1.861006
C	-1.963412	-0.146922	-1.499821
N	-3.138312	-0.162579	-1.506758
N	-0.39237	-1.258264	0.718581
O	-0.677701	-1.177213	1.914973
O	-0.355716	-2.320523	0.090649
N	-0.467053	1.176114	0.645419
H	-1.325938	1.020606	1.158021
H	0.247354	1.487973	1.289528
F	2.513227	0.0	0.0
