14

C	-0.659146	0.051888	-1.374375
C	0.0	0.0	0.0
Cl	-0.361734	-1.418085	-2.351874
H	1.090042	0.0	0.0
H	-1.744925	0.119787	-1.253311
C	-0.20222	1.227765	-2.108102
N	0.097385	2.162887	-2.750592
N	-0.534035	-1.25993	0.651983
O	0.208805	-2.223417	0.792662
O	-1.723586	-1.239252	1.002113
N	-0.434319	1.165728	0.7131
H	0.289182	1.418501	1.37333
H	-1.321997	1.021875	1.177942
F	2.547862	0.0	0.0
