14

C	-0.342565	0.037215	-1.470102
C	0.0	0.0	0.0
Cl	-2.11194	0.304895	-1.803731
H	1.091672	0.0	0.0
H	0.154649	0.934919	-1.842248
C	0.12277	-1.08116	-2.284857
N	0.497138	-1.920794	-3.015091
N	-0.523486	-1.231651	0.660329
O	-0.510379	-1.271573	1.885751
O	-0.883011	-2.167471	-0.062596
N	-0.387414	1.16621	0.724244
H	0.422733	1.755101	0.850984
H	-1.161368	1.669965	0.315122
F	2.506578	0.0	0.0
