14

C	-0.499751	-0.18923	-1.427551
C	0.0	0.0	0.0
Cl	0.116498	1.116488	-2.474187
H	1.101445	0.0	0.0
H	-0.104491	-1.121132	-1.823859
C	-1.961327	-0.203682	-1.497432
N	-3.135844	-0.2095	-1.51618
N	-0.393067	-1.231071	0.763922
O	-0.358025	-2.315934	0.174343
O	-0.677763	-1.106582	1.956866
N	-0.467431	1.19915	0.601318
H	-1.325577	1.06445	1.119772
H	0.247288	1.534788	1.23272
F	2.513209	0.0	0.0
