14

C	-0.334791	0.080876	-1.470643
C	0.0	0.0	0.0
Cl	-2.039307	0.600677	-1.839429
H	1.091429	0.0	0.0
H	0.297268	0.888458	-1.846498
C	-0.034573	-1.112133	-2.256055
N	0.217933	-2.03001	-2.943441
N	-0.575345	-1.215466	0.642482
O	-0.303634	-1.397414	1.824252
O	-1.271434	-1.97784	-0.039357
N	-0.351675	1.159734	0.761283
H	-1.098391	1.705453	0.355171
H	0.482051	1.712092	0.903093
F	2.513842	0.0	0.0
