14

C	-0.439941	0.036825	-1.442145
C	0.0	0.0	0.0
Cl	-2.248422	0.043438	-1.617988
H	1.092632	0.0	0.0
H	-0.113705	1.01204	-1.802773
C	0.112548	-0.984721	-2.326392
N	0.520973	-1.730443	-3.135805
N	-0.465839	-1.253424	0.658995
O	-0.39133	-2.299403	0.015797
O	-0.864689	-1.18489	1.826182
N	-0.40802	1.185767	0.684561
H	0.304475	1.394267	1.371856
H	-1.289969	1.055537	1.162865
F	2.500776	0.0	0.0
