13

C	-0.489207	0.118428	-1.448735
C	0.0	0.0	0.0
Br	-0.274002	-1.622656	-2.332748
H	1.093959	0.0	0.0
H	-1.565685	0.300897	-1.48847
H	-0.353898	-0.919843	0.470964
C	0.288909	1.177471	-2.205394
H	0.111062	2.151784	-1.737792
H	-0.023971	1.228533	-3.25011
H	1.357001	0.960363	-2.143884
C	-0.496726	1.145267	0.759532
N	-0.926353	2.081702	1.323736
Cl	3.395646	0.0	0.0
