16

C	0.0	0.0	0.0
C	-0.334904	-0.021952	-1.51376
Cl	1.797172	0.0	0.0
H	0.107792	-0.922927	-1.940578
H	-0.302321	-0.971785	0.394428
N	-0.558487	1.021538	0.815878
H	-0.500167	1.911497	0.337728
H	-1.539561	0.801191	0.979275
N	0.378902	1.087619	-2.227118
O	1.029691	0.799259	-3.230016
O	0.235256	2.230233	-1.790009
C	-1.801607	0.092224	-1.851317
H	-2.215571	1.042394	-1.523288
H	-2.396555	-0.668388	-1.348488
H	-1.932822	-0.007422	-2.932581
Cl	-4.463405	0.0	0.0
