16

C	0.0	0.0	0.0
C	-0.508133	-0.116499	-1.430668
Cl	1.831223	0.0	0.0
H	-1.593378	-0.264733	-1.321189
H	-0.24998	-0.920932	0.5292
N	-0.501339	1.207165	0.587426
H	-1.52297	1.139774	0.506891
H	-0.280914	1.199379	1.577171
N	0.00402	-1.396154	-2.023392
O	0.465365	-1.373556	-3.164379
O	-0.098322	-2.411272	-1.337347
C	-0.200176	1.069734	-2.310933
H	0.873891	1.187053	-2.456901
H	-0.591988	1.960735	-1.821981
H	-0.676873	0.953609	-3.283806
Cl	-3.550589	0.0	0.0
