16

C	0.0	0.0	0.0
C	-0.519107	-0.035539	-1.435989
Cl	1.783405	0.0	0.0
H	-1.600534	-0.206245	-1.33431
H	-0.274085	-0.945333	0.473461
N	-0.513055	1.176065	0.650568
H	-0.284956	1.119162	1.63721
H	-1.534818	1.095389	0.579833
N	0.016935	-1.267522	-2.10203
O	-0.130802	-2.33166	-1.503208
O	0.554429	-1.1602	-3.204605
C	-0.231187	1.206622	-2.242906
H	0.840842	1.3698	-2.355682
H	-0.667941	2.055558	-1.718586
H	-0.679549	1.126111	-3.232917
Cl	-3.569467	0.0	0.0
