16

C	0.0	0.0	0.0
C	-0.308151	-0.530014	-1.442923
Cl	1.781623	0.0	0.0
H	0.521969	-0.204338	-2.07348
H	-0.291903	-0.783691	0.707298
N	-0.496297	1.301393	0.300421
H	-1.495098	1.272879	0.08042
H	-0.428013	1.428511	1.305286
N	-1.469492	0.066576	-2.216611
O	-1.502287	1.289353	-2.29585
O	-2.174873	-0.705853	-2.854052
C	-0.403953	-2.040318	-1.42462
H	-0.438127	-2.443338	-2.434041
H	0.475752	-2.444077	-0.91361
H	-1.307595	-2.349314	-0.89591
Cl	-3.504463	0.0	0.0
