16

C	0.0	0.0	0.0
C	-0.358964	-0.390421	-1.492572
Cl	1.793243	0.0	0.0
H	0.570894	-0.427102	-2.063809
H	-0.304232	-0.848815	0.612157
N	-0.517638	1.173023	0.60753
H	-0.403509	1.955827	-0.02284
H	-1.522004	1.010853	0.7251
N	-1.093258	0.682083	-2.248843
O	-1.951953	0.349797	-3.055212
O	-0.676824	1.834158	-2.105574
C	-1.058864	-1.72959	-1.588455
H	-2.034204	-1.666818	-1.105612
H	-1.182635	-2.028221	-2.629688
H	-0.435775	-2.476085	-1.086054
Cl	-3.530847	0.0	0.0
