15

C	0.0	0.0	0.0
C	-0.604574	0.549078	-1.274318
F	1.353591	0.0	0.0
H	-1.658517	0.735574	-1.024604
H	-0.373946	0.527595	0.872758
N	-0.193411	-1.494193	0.271145
O	-0.042161	-2.277382	-0.659781
O	-0.23136	-1.810615	1.455293
N	-0.503381	-0.192596	-2.477458
H	0.331296	-0.762636	-2.502169
H	-1.304789	-0.814169	-2.509737
N	0.043976	1.929209	-1.409461
O	0.040735	2.614249	-0.387284
O	0.495489	2.278312	-2.490475
Cl	-3.4497	0.0	0.0
