15

C	0.0	0.0	0.0
C	-0.566612	0.240185	-1.418641
F	1.353484	0.0	0.0
H	-1.469766	0.828404	-1.28126
H	-0.372792	0.756414	0.685831
N	-0.354236	-1.322446	0.633426
O	-0.674906	-1.294311	1.814421
O	-0.158562	-2.338334	-0.030865
N	-0.847532	-0.83408	-2.295994
H	-0.206539	-1.602693	-2.166112
H	-1.788244	-1.143227	-2.074402
N	0.457605	1.183831	-2.032577
O	0.484643	2.315134	-1.547014
O	1.197321	0.772385	-2.91784
Cl	-3.306626	0.0	0.0
