15

C	0.0	0.0	0.0
C	-0.17384	0.080707	-1.552417
F	1.357241	0.0	0.0
H	0.442978	-0.73962	-1.917198
H	-0.417487	0.823578	0.569959
N	-0.371543	-1.282588	0.66749
O	-0.487675	-1.229069	1.887023
O	-0.37092	-2.295961	-0.023958
N	0.35007	1.339176	-2.04198
H	1.234021	1.530742	-1.591254
H	-0.317963	2.068558	-1.826248
N	-1.470283	-0.127406	-2.288155
O	-1.737288	-1.287549	-2.575419
O	-2.064785	0.868003	-2.672322
Cl	-3.141605	0.0	0.0
