15

C	0.0	0.0	0.0
C	-0.466039	-0.15715	-1.452271
F	1.346956	0.0	0.0
H	0.311365	0.346908	-2.03597
H	-0.380411	0.941259	0.394103
N	-0.455945	-1.052358	0.978576
O	-0.626725	-0.647997	2.126112
O	-0.561106	-2.209164	0.587898
N	-1.718818	0.40432	-1.684685
H	-2.496473	0.114457	-1.069708
H	-2.006591	0.315349	-2.648548
N	-0.256248	-1.624903	-1.953114
O	0.895312	-2.050701	-1.916679
O	-1.223421	-2.204184	-2.42814
Cl	-4.289234	0.0	0.0
