15

C	0.0	0.0	0.0
C	-0.574476	0.15541	-1.385628
F	1.354985	0.0	0.0
H	-1.672123	0.129387	-1.263909
H	-0.378868	0.777088	0.655195
N	-0.367106	-1.302465	0.676609
O	-0.103084	-2.345378	0.087887
O	-0.782248	-1.205095	1.828551
N	-0.101332	-0.765723	-2.33754
H	-0.571812	-0.63745	-3.220845
H	0.897684	-0.693854	-2.469592
N	-0.265694	1.629198	-1.783486
O	-0.386579	2.504129	-0.930485
O	0.039952	1.829067	-2.95893
Cl	-3.506941	0.0	0.0
