14
Coordinates from ORCA-job run
  C   -0.62253492944886      0.37397446897689     -0.27547875091468
  C   0.46528087271422     -0.28512235003740      0.28118075939141
  N   -1.87400294770312      0.06673112518192      0.20474736642993
  H   -2.61893752270802      0.09856228632056     -0.47392791946606
  H   -1.85151302020847     -0.77151419161562      0.76985367635726
  N   -0.55074631581581      1.34857737292505     -1.20145031168264
  H   0.35849109746468      1.59232906994686     -1.55975963865738
  H   -1.37494972250801      1.84369468053720     -1.48710113928936
  N   0.22513256445855     -1.31237355580204      1.22254859136731
  H   0.60034297429332     -1.05872801899808      2.13026223166662
  H   0.70708992802628     -2.15909064121698      0.94132305656597
  N   1.80316632515455      0.01166466712639     -0.08429209936798
  O   2.69933988565569     -0.63624676640213      0.47393286884944
  O   2.03584081062503      0.88654185305739     -0.94383869124984
