14
Coordinates from ORCA-job run
  C   -0.54174935650935      0.35697891495618     -0.19804181223845
  C   0.57370396203521     -0.24778524075821      0.32673631954848
  N   -1.78830815804751     -0.10544312536117      0.21478217642410
  H   -2.57602892337907      0.36330189762574     -0.20283169363931
  H   -1.87931603920299     -1.10891266554798      0.23798759349477
  N   -0.56802707748918      1.49877045089455     -0.96273585741101
  H   -1.25078236960264      1.49377382579292     -1.70572109430184
  H   0.35581913006007      1.79487364413146     -1.24828075913310
  N   0.53062423998047     -1.16763795986431      1.38272256432142
  H   0.67445339794858     -2.13485015453542      1.13164311737181
  H   -0.27400262288281     -1.03177144293069      1.97477034820986
  N   1.88988282180203      0.03373595839194     -0.17088059306158
  O   2.07958819785004      1.03149818258777     -0.89100071136620
  O   2.77414279743716     -0.77653228538278      0.11185040178105
