14
Coordinates from ORCA-job run
  C   -0.56790544212926      0.40467536582062     -0.23447334029498
  C   0.54333135312223     -0.31863800124488      0.12262047657031
  N   -1.37193167685687     -0.15144839032888     -1.22105235466394
  H   -0.82716274750150     -0.69069323782917     -1.88379401954043
  H   -1.95589707351929      0.53010970655866     -1.68469912834562
  N   -0.96974657941357      1.61665256914073      0.25679296202728
  H   -0.46176913497993      1.91370519974666      1.07717015137402
  H   -1.97034319450729      1.74016923661265      0.30727906926629
  N   0.83206250218175     -1.53545834314963     -0.53447287149271
  H   0.07340377077395     -2.19525297914609     -0.39638743770556
  H   1.68282359572437     -1.92422766555280     -0.14871075260739
  N   1.40869159042792      0.08639766227317      1.16852890601790
  O   2.31657287789265     -0.69233209605466      1.49595947357080
  O   1.26887015878483      1.21634097315362      1.67523886582402
