14
Coordinates from ORCA-job run
  C   -0.57649890755215      0.30369668405608     -0.28654722389086
  C   0.52848329759632     -0.28343824856095      0.27569048167350
  N   -1.81254846795147     -0.15220660981590      0.17448604695198
  H   -1.93332611373413     -0.06804429314678      1.17820791911004
  H   -2.57695771959871      0.31743577994024     -0.29288264192600
  N   -0.60874008897476      1.29172916294010     -1.26266986057630
  H   0.31906494136562      1.48739111271841     -1.62044655572523
  H   -1.23654560305856      1.07599800329934     -2.03018189175865
  N   0.36415476609133     -1.14985016922300      1.37701364059472
  H   -0.39280512774964     -1.79709398664021      1.18972451981056
  H   1.22674568975037     -1.65222770398924      1.54390123643573
  N   1.86062720734107      0.12290805092967      0.00784208494896
  O   2.07899803770804      1.00279372291742     -0.84276047028627
  O   2.76034808876668     -0.49809150542517      0.58962271463782
