14
Coordinates from ORCA-job run
  C   -0.53898299123164      0.38912680410158     -0.13369173380118
  C   0.57543330590130     -0.30030743831472      0.27614946740040
  N   -1.78559954218825     -0.10995594241772      0.23425802470304
  H   -1.89324862300326     -1.10480690848997      0.11347131309383
  H   -2.57239684195639      0.42456292024082     -0.09739361227000
  N   -0.55932158414241      1.62901491338327     -0.72596433816197
  H   0.36392212485610      1.95084671526307     -0.98416977595635
  H   -1.25643766028775      1.74264449196486     -1.44650783638765
  N   0.53647574111350     -1.36221049057722      1.18968452681137
  H   -0.25597205079909     -1.30253640114818      1.81019908578127
  H   0.65736184594199     -2.28471004733119      0.79746798427511
  N   1.88682366090825      0.03143770301870     -0.20253498183805
  O   2.08062015063688      1.12035943758381     -0.77419286946422
  O   2.76232246425079     -0.82346575727711     -0.05777525418561
