14
Coordinates from ORCA-job run
  C   -0.47796915124620      0.39104979795738     -0.12747800088549
  C   0.53596582793719     -0.43147852972039      0.20281140018049
  N   -1.75960350497205      0.32947863199668      0.45659370087263
  H   -1.99039661090246     -0.57317145594268      0.84867661366072
  H   -2.46060444713426      0.57284800637076     -0.23139295941160
  N   -0.25851013930230      1.45949304152235     -1.03332576638783
  H   -0.29737463562747      1.16646381851861     -2.00012243747657
  H   -0.92493407520517      2.20128108163503     -0.86007107169592
  N   0.53565473367019     -1.57625666023606      1.04058339435812
  H   -0.39698484899418     -1.95509262431405      1.14789240174783
  H   0.88017523578564     -1.34138485210904      1.96614268041924
  N   1.86724761482995     -0.18826132496439     -0.34483861508420
  O   2.77730012653123     -0.12772477148076      0.47924821115234
  O   1.97003387462989      0.07375584076655     -1.54271955144972
