14
Coordinates from ORCA-job run
  C   -0.60487785442663      0.42710272936087     -0.24172711884733
  C   0.44794174469279     -0.32439322796800      0.26345125163494
  N   -1.88333947418227      0.08932594306709      0.14764541360357
  H   -2.58338316509084      0.18810617992261     -0.57239167858104
  H   -1.88714232544248     -0.81452247738748      0.60283503572006
  N   -0.47942659368021      1.51531128550912     -1.01965986734119
  H   0.44305317755610      1.76477158984120     -1.33654441636677
  H   -1.28208422893152      2.06531080601283     -1.26135017119955
  N   0.15256800998725     -1.46463822602098      1.04561334239903
  H   0.50048866796495     -1.34798187431727      1.99112762459717
  H   0.62234404476478     -2.27879294714757      0.66520154232914
  N   1.80383881497278     -0.01916674200630     -0.01816293498401
  O   2.08371290998431      0.95224050314503     -0.75092045027641
  O   2.66630627183099     -0.75267354201115      0.48388242731239
