14
Coordinates from ORCA-job run
  C   -0.61869075309414      0.39281719908350     -0.26492622533450
  C   0.44336805651439     -0.36205891322812      0.19580967449605
  N   -1.85310264524217      0.20951104291328      0.31262775211929
  H   -1.86277221255556     -0.60491769910805      0.91151982399366
  H   -2.62770106690964      0.26673605309753     -0.33104668075119
  N   -0.57279129461851      1.31733719585658     -1.26387020030841
  H   0.36323015365257      1.56190991503747     -1.55424934092712
  H   -1.22884373165662      2.07673982412816     -1.17395457769765
  N   0.20112083568950     -1.35781553881122      1.16917666696984
  H   0.68238934765484     -1.13363906111562      2.03334577676461
  H   0.57063892685902     -2.24946089799199      0.85875256098551
  N   1.79224740806896     -0.10178860621221     -0.19302933576742
  O   2.03574852613731      0.74431684245225     -1.07359588863700
  O   2.67515844950004     -0.75768735610156      0.37343999409434
