14
Coordinates from ORCA-job run
  C   -0.61655783057322      0.39929546547448     -0.25809054443632
  C   0.44234291028750     -0.36183200236020      0.20165872952359
  N   -1.04603640182914      1.57985600303496      0.27337731716436
  H   -1.44597828145121      2.22392445974662     -0.39067528334488
  H   -0.40307373507864      1.97742741398977      0.94417871091477
  N   -1.32643693048310     -0.05744026213625     -1.33728419485501
  H   -2.31047536493041      0.15847235338526     -1.33224540910048
  H   -1.09051929172951     -1.00947131351584     -1.57727690392578
  N   0.68336987090173     -1.62022605196953     -0.39441600331419
  H   1.57954009934602     -1.62688887338590     -0.86865098413131
  H   0.72157500576212     -2.34688086361877      0.31096403532642
  N   1.35273625639880      0.10966958059201      1.19441369698972
  O   1.14990171166716      1.20025792196039      1.76116596650450
  O   2.30761198171191     -0.62616383119703      1.47288086668462
