14
Coordinates from ORCA-job run
  C   -0.60938551901538      0.37982419808052     -0.30212695614112
  C   0.43752179076109     -0.35362834221238      0.22292816796827
  N   -1.86989028829848      0.18581868760418      0.21267924345384
  H   -2.60958326220003      0.22135229806134     -0.47237897166126
  H   -1.89910225578233     -0.62128527563193      0.82085573125988
  N   -0.52476188145294      1.29245730474873     -1.30947601736912
  H   -1.19612707241798      2.04231789598564     -1.26357986252305
  H   0.42140032655885      1.54720886286830     -1.55462063518850
  N   0.15887503444905     -1.34004636997275      1.19617393198973
  H   0.55670234926929     -2.23011729917273      0.91783924996554
  H   0.59133852126212     -1.09712530642087      2.08086806290790
  N   1.80120057270636     -0.07724657713910     -0.09756462585247
  O   2.66252617442292     -0.71118818465625      0.52440083346299
  O   2.07828550973747      0.76065810785729     -0.97599815227261
