14
Coordinates from ORCA-job run
  C   -0.59679987484248      0.34651777247326     -0.34087264377583
  C   0.45185127521387     -0.38564573873651      0.18537072341499
  N   -1.89997783031786     -0.01070793658057     -0.05212124280478
  H   -1.93145748012882     -0.68969056305295      0.69839386096775
  H   -2.44251756654352      0.80412346372219      0.20722472891615
  N   -0.50918655543086      1.43072423192323     -1.16336973980603
  H   0.41543477399610      1.63444767873983     -1.51050130508008
  H   -1.23029683472749      1.47246076151247     -1.86921660165977
  N   0.14118509709215     -1.37444324826927      1.15544110633663
  H   0.52115013597797     -1.11707346920995      2.05770887896938
  H   0.49109597965230     -2.28382042438607      0.89207850468019
  N   1.82323000014984     -0.03147439998401     -0.02185306160841
  O   2.08801542066447      1.02306904787856     -0.61550012389823
  O   2.67827345924434     -0.81948717603023      0.37921691534803
