14
Coordinates from ORCA-job run
  C   -0.63148474360745      0.41908756062497     -0.18139265536476
  C   0.45509233788060     -0.38294344351008      0.11338230944520
  N   -1.85975369726292      0.07185030200174      0.32828468646115
  H   -1.84416946869628     -0.85256253781914      0.73663951281643
  H   -2.63612607616037      0.24798543322719     -0.29083882368964
  N   -0.61447483410885      1.54125345926318     -0.95296803341464
  H   -1.29616444723565      2.24055704092684     -0.70513370428836
  H   0.31367109648494      1.87408488657335     -1.17228570169886
  N   0.24477274676734     -1.57436518509396      0.84451918142142
  H   0.71635313324017     -1.52739827819256      1.74123413452609
  H   0.64619763431264     -2.36369407712426      0.35080671399786
  N   1.79555395971547      0.00399821789919     -0.18937350567840
  O   2.01245253124324      1.03015097094226     -0.86074065646150
  O   2.69907982742712     -0.72700434971874      0.23486654192800
