14
Coordinates from ORCA-job run
  C   -0.58895175878252      0.41683817787604     -0.24148316296468
  C   0.51650391436219     -0.32755583588353      0.17654303261848
  N   -1.14187402132912      1.45969498638141      0.40693299791530
  H   -0.73729642713793      1.71640326059280      1.29945765914887
  H   -1.86558347432676      2.01831423818780     -0.00614640353297
  N   -1.14005221588505      0.13705798332429     -1.46121949282086
  H   -2.12403534419607      0.27295842104318     -1.59429831648428
  H   -0.77904164224158     -0.73514979012002     -1.82435364849503
  N   0.89625808285608     -1.38364948228907     -0.67220007372388
  H   0.94601994705111     -2.24745433819844     -0.16105255151900
  H   1.78625472865655     -1.21269592983556     -1.11466600906220
  N   1.22272350679548     -0.09268944973767      1.40300078699389
  O   2.13984181787479     -0.87225186196728      1.67497043839349
  O   0.87023288630281      0.85017962062606      2.11551474353286
