14
Coordinates from ORCA-job run
  C   -0.53826281255776      0.36972746184521     -0.18311646269544
  C   0.57828611911883     -0.26065018505951      0.30781354526716
  N   -1.78099271506852     -0.04817808313839      0.28651854150344
  H   -2.56940061631766      0.43887642109787     -0.10845919549239
  H   -1.90157459847917     -1.04816971656433      0.32474301745926
  N   -0.56077374468770      1.49939842379361     -0.96530754232351
  H   0.35886965548799      1.76419320624582     -1.29185012327842
  H   -1.27348252814374      1.50516880893217     -1.67952508475962
  N   0.54942531330458     -1.16028819654635      1.38132953752075
  H   0.66095431952855     -2.13498834188032      1.14334765687012
  H   -0.22941369547355     -0.99360938017604      1.99933387175073
  N   1.88206988526136     -0.02644793475438     -0.24391290559580
  O   2.75276620494266     -0.85737327124952      0.02045456510782
  O   2.07252921308412      0.95234078745418     -0.98936942133409
