14
Coordinates from ORCA-job run
  C   -0.62220239951390      0.39390412552721     -0.25422384233853
  C   0.45221789496434     -0.30905716183953      0.25705816098894
  N   -1.88422575098231     -0.12718422869608     -0.09067489424423
  H   -2.60053582289979      0.56088159428351      0.08556349340223
  H   -1.88148480369513     -0.90612021844779      0.55372947245669
  N   -0.56296921072228      1.58411431200214     -0.91346950104790
  H   -1.28498315637408      1.72738023566319     -1.60144242688601
  H   0.37206220690136      1.86245199225101     -1.17512047015299
  N   0.20580884278944     -1.47845892671102      1.01187693510731
  H   0.67294002990524     -1.42090375866651      1.90990322276646
  H   0.58814906326642     -2.29156337223084      0.54140217486229
  N   1.80488749894928      0.04242760218119     -0.03470730107091
  O   2.05607747406072      1.08518323696353     -0.66724441283320
  O   2.68425813335070     -0.72405543227999      0.37734938898986
