14
Coordinates from ORCA-job run
  C   -0.61765363078064      0.40395760780434     -0.24490006124288
  C   0.45409883995155     -0.39267553216257      0.13590705456479
  N   -0.52231048148394      1.53833405816903     -0.97086154162095
  H   0.40179820694834      1.92543928756897     -1.08306625245332
  H   -1.33244855735968      2.11796026985092     -1.09571921819907
  N   -1.88096897912648     -0.05398871177988      0.03441425387725
  H   -2.58617372054848      0.64624200653694      0.19960790181542
  H   -1.86364116426003     -0.81866768459711      0.69489035405852
  N   0.19298006700939     -1.56801527434792      0.87719395538877
  H   0.46577135319790     -2.39060666714668      0.34991341578200
  H   0.75205692743005     -1.57313904220745      1.72317587918226
  N   1.80013361694856     -0.04029049146140     -0.13792674652703
  O   2.05683604864243      1.01516488102739     -0.75311078334617
  O   2.68052147343103     -0.81071470725458      0.26948178872040
