14
Coordinates from ORCA-job run
  C   -0.52960205553888      0.41957086134000     -0.05489143185157
  C   0.57044885738880     -0.35838982984781      0.20975064969577
  N   -0.52391900993961      1.74510651310658     -0.41740940798461
  H   0.40469137789092      2.08575759497768     -0.62770816054392
  H   -1.22521135882091      2.00140923933749     -1.09603347753182
  N   -1.78505026166612     -0.10721544075079      0.23594085450627
  H   -1.91979250028154     -1.06211522172221     -0.05695067772448
  H   -2.56094693921219      0.49671503937512      0.01704564791575
  N   0.51204023206438     -1.56485447545485      0.92008586003422
  H   -0.27045387498668     -1.59574387357724      1.55514790645031
  H   0.60220627057175     -2.40599190093514      0.36896514752521
  N   1.88542648328596      0.02200156354594     -0.22062379429145
  O   2.10143745248538      1.19039119160179     -0.59252207260283
  O   2.73972532675873     -0.86564126099655     -0.24279704359684
