14
Coordinates from ORCA-job run
  C   -0.58896876948405      0.41394597296208     -0.29868613000430
  C   0.47320643057510     -0.33225034221000      0.17390683984685
  N   -0.98066426459457      1.63622739091522      0.15813887844527
  H   -0.53502571195626      1.91316095589339      1.02125702847858
  H   -1.96954512264649      1.81730746310184      0.08890773889343
  N   -1.33787228647001     -0.09574206758339     -1.33391991642930
  H   -0.89295633967750     -0.90521492003949     -1.74466823402541
  H   -1.65756280339327      0.59385373695470     -1.99660608308251
  N   0.81727821817780     -1.53044565978942     -0.49275776822169
  H   0.69893332148961     -2.32625697065891      0.12479060382126
  H   1.79745987540020     -1.51558076363265     -0.75293326298635
  N   1.18329691831948      0.01613121307633      1.36239330369625
  O   2.05335361979416     -0.77535879615281      1.74609386848114
  O   0.93906691446579      1.08922278716314      1.94408313308679
