14
Coordinates from ORCA-job run
  C   -0.63374468385524      0.29704275544792     -0.21112300351794
  C   0.53869004776343     -0.18161560905197      0.25209652054535
  N   -1.24515836813077     -0.21063633064483     -1.35891955507920
  H   -0.80327319460649     -0.07809322128204     -2.25099566269201
  H   -2.24677851505726     -0.09346590573562     -1.37101160153525
  N   -1.51054587893011      1.03162425834601      0.59677954683858
  H   -1.02954019907735      1.34635061077846      1.43394174187290
  H   -1.92516805536552      1.80242646891297      0.08833218244535
  N   1.19727196715626      0.32677472869594      1.38990187917811
  H   2.15599055007427      0.57189282205737      1.18447233047141
  H   1.15495876691406     -0.31761158407856      2.16883441147725
  N   1.24198124540873     -1.22692115909578     -0.47365682783071
  O   1.84030878073282     -2.03740850761639      0.25702394096793
  O   1.26600753697318     -1.23135932673348     -1.70567590314176
