14
Coordinates from ORCA-job run
  C   -0.50787662971776      0.44963932432019      0.00098280073631
  C   0.56767512539375     -0.39115660213422      0.14812146689105
  N   -0.46512129596577      1.77349498779133     -0.36549285677213
  H   0.45303442519651      2.05915960650552     -0.67867589278621
  H   -1.21989102451422      2.07052388922124     -0.96572009418223
  N   -1.75261457221225     -0.00452438721717      0.42887311045229
  H   -1.97083714266078     -0.95030429084484      0.15712263739371
  H   -2.51218164315932      0.64174733342456      0.28660392640318
  N   0.51674896734247     -1.59312721905551      0.86635544856930
  H   0.49779073731251     -2.43755050803119      0.31330062070456
  H   -0.19122618134360     -1.57951086573257      1.58403007208045
  N   1.84880038699363     -0.08595431202955     -0.42204459222469
  O   2.64472013759538     -1.02037649188808     -0.52922875041544
  O   2.08897870973944      1.06793953567029     -0.82322789685015
