14
Coordinates from ORCA-job run
  C   -0.54773926676128      0.51321426372245     -0.20991408085212
  C   0.43006333445421     -0.40757832193377      0.11833065260398
  N   -0.98139535286862      1.54504543128342      0.56769429747484
  H   -0.39513971146768      1.72306083109061      1.37062436917861
  H   -1.29676755944164      2.35652400635127      0.05980448068526
  N   -1.16119197571406      0.40426290683932     -1.43473173329167
  H   -2.13974402988584      0.64815361227397     -1.43559841878227
  H   -0.94293136969723     -0.47390538265076     -1.88516366174096
  N   0.64500706094001     -1.51128061821429     -0.74293670752651
  H   1.59855784095700     -1.51503915692034     -1.09110384719289
  H   0.51673195773324     -2.38000104194976     -0.23415336213375
  N   1.22383692575257     -0.30457721442277      1.29704342427394
  O   1.00572333044686      0.60755324359547      2.11741565564244
  O   2.04498881555245     -1.20643255906481      1.50068893166110
