14
Coordinates from ORCA-job run
  C   -0.62092340289746      0.41535424165175     -0.22358548086770
  C   0.45546396581493     -0.28450488524501      0.30033036743335
  N   -1.87943296506751     -0.03424324794982      0.08753714459420
  H   -1.86081693113922     -0.97888504952400      0.44690789384157
  H   -2.60844285883069      0.16379329206222     -0.57914359698582
  N   -0.53671756057043      1.58766175940874     -0.90188482641363
  H   -1.32827533835212      1.86642413250933     -1.45644574032694
  H   0.38744498664296      1.81884230404063     -1.23655051672822
  N   0.20108234425622     -1.47361327830212      1.02347264084177
  H   0.75415201432487     -2.23059199591777      0.63709153109282
  H   0.49062499858236     -1.37270594990839      1.99052668630577
  N   1.80305009812011      0.07735662346860      0.03848306762878
  O   2.05591516396242      1.10672340725858     -0.62022266485885
  O   2.68587548515356     -0.66161135355273      0.49448349444292
