14
Coordinates from ORCA-job run
  C   -0.60705803829741      0.45310470590354     -0.18290888323657
  C   0.43238706317822     -0.40546214842537      0.12023329788586
  N   -0.53355416095653      1.55160759632443     -0.98512040266494
  H   -1.16642667087564      2.29781763071559     -0.74428174258556
  H   0.40997676808675      1.82146137215237     -1.22453271010922
  N   -1.84748968077723      0.19692474503932      0.35253526398482
  H   -2.61808280219553      0.39760691460910     -0.26686007697900
  H   -1.88211573762603     -0.71718772271550      0.78297796363888
  N   0.16014197340523     -1.56305234189637      0.88434270146149
  H   0.50631668501111     -2.38786413421302      0.40710768566410
  H   0.64544614126753     -1.52210780001133      1.77399810978531
  N   1.78922893454969     -0.11265605920808     -0.21459763972168
  O   2.65216372001685     -0.88930046979477      0.21269500552246
  O   2.05806580521299      0.88010771152008     -0.91658857264595
