14
Coordinates from ORCA-job run
  C   -0.54038946215055      0.35380483097922     -0.20683965563817
  C   0.57603206589679     -0.23714889688530      0.33091657535454
  N   -1.78560779174299     -0.07011790863368      0.25060169569313
  H   -1.88995964313483     -1.07019304393267      0.32082442523227
  H   -2.57388276476174      0.38865375108409     -0.17710531033902
  N   -0.56582324887579      1.45417862523555     -1.03029269996181
  H   -1.25943680220487      1.41742379590261     -1.76230897185777
  H   0.35687433831562      1.72266126624435     -1.34545783680350
  N   0.54082989344977     -1.09873744447670      1.43561583349811
  H   -0.25761303950269     -0.92582060344961      2.02666410886506
  H   0.67009644807009     -2.07917772247822      1.23149430380358
  N   1.88688957577908     -0.00118246889079     -0.20338977875153
  O   2.76462605291676     -0.80847944898380      0.10681954616152
  O   2.07736437794536      0.95413526828494     -0.97854223525641
