14
Coordinates from ORCA-job run
  C   -0.62027236449271      0.44612513614224     -0.15422728787830
  C   0.44753011615977     -0.39674292838027      0.09020741053021
  N   -0.56155707061361      1.65659822645088     -0.77527359659121
  H   0.37709355011254      2.00616761747496     -0.90573426156465
  H   -1.25362025134574      2.32484842074897     -0.47585658493856
  N   -1.87446975705368      0.04901261540020      0.24713370796802
  H   -2.61512546183215      0.30386395891793     -0.38867903486197
  H   -1.87936035339813     -0.92167313875658      0.53005597617957
  N   0.19725567788978     -1.67040305342806      0.64974759628390
  H   0.61896497870448     -1.74334098008734      1.56929824199964
  H   0.62416387441884     -2.39295912230477      0.08089341207632
  N   1.80240735629189      0.00974284348872     -0.10259670630536
  O   2.68191546599642     -0.78075711280632      0.26112926607215
  O   2.05507423916227      1.11051751713943     -0.62709813896976
