14
Coordinates from ORCA-job run
  C   -0.61358058196180      0.37010103778207     -0.30168059719694
  C   0.46021627962099     -0.36660676236785      0.18042068901555
  N   -0.51385665172433      1.51176377499748     -1.01388696708610
  H   0.39416162939942      1.94797379357211     -1.04985287474424
  H   -1.34016301691783      2.03362909592384     -1.24244666746421
  N   -1.87093677292821     -0.15880271447520     -0.14313610637415
  H   -2.62272677583122      0.50344357058671     -0.03539074380196
  H   -1.87060403406534     -0.92389781948773      0.51748227414485
  N   0.19585653897783     -1.55546869055127      0.89876653466254
  H   0.56195107663778     -2.36106997012583      0.40262777825596
  H   0.67269526645985     -1.53073292699536      1.79336807094240
  N   1.80394745339547      0.06020113391111      0.03203412403988
  O   2.05794724602043      1.12973949057057     -0.55986701820411
  O   2.68409234291698     -0.66127301334065      0.52156150381052
