14
Coordinates from ORCA-job run
  C   -0.61249737458219      0.45046816984217     -0.16931160680556
  C   0.43724258058996     -0.40392389709239      0.10943453191640
  N   -0.55702417830484      1.56093925253676     -0.95586871933953
  H   0.38108257368085      1.84271330610246     -1.20251363464681
  H   -1.19506611168065      2.29747889057575     -0.69960860749631
  N   -1.84489226753924      0.17558831661360      0.37585874430682
  H   -2.62367477709521      0.37805650023524     -0.23263920115187
  H   -1.86588985793828     -0.74533722362885      0.79255515216036
  N   0.18335540005845     -1.57426245414215      0.86000621542288
  H   0.53070704787836     -2.38956255688160      0.36750954622035
  H   0.67730902300681     -1.54219196871658      1.74525613948232
  N   1.78777998140987     -0.09394421949067     -0.23548826798776
  O   2.04063195078056      0.91067308353504     -0.92628194271971
  O   2.66193600973555     -0.86869519948878      0.17209165063842
