14
Coordinates from ORCA-job run
  C   -0.60975409928141      0.44770236965535     -0.20165903754758
  C   0.45222961329447     -0.32679202296352      0.24659236835490
  N   -0.50038130425076      1.50325058859164     -1.01625151997604
  H   0.41465026859539      1.73710280597346     -1.35966361065808
  H   -1.28831959744222      2.10236137147497     -1.16230400115877
  N   -1.86786830745567      0.15078061777343      0.26912042221488
  H   -1.86674718561733     -0.73596927324041      0.75541478669430
  H   -2.61753687498747      0.28274934342731     -0.39195104435787
  N   0.18005143842513     -1.46316945235716      1.04959414154699
  H   0.60086912206669     -2.28283543674632      0.62242140079141
  H   0.61580733244014     -1.35894591298418      1.95933673603565
  N   1.78813292014302     -0.07663302010598     -0.14372855299143
  O   2.65039951493437     -0.85773514918086      0.27561024893599
  O   2.04746715913565      0.87713317068229     -0.90253233788434
