14
Coordinates from ORCA-job run
  C   -0.60764618256072      0.38116805127037     -0.30465254553691
  C   0.43285822694570     -0.35260331406182      0.23309857696024
  N   -1.84159773647759      0.30734824334179      0.29727530480089
  H   -1.87321579808711     -0.43232243174857      0.98563045201655
  H   -2.62062463612933      0.31963739941868     -0.34338550626840
  N   -0.54032723137915      1.18398469711626     -1.40273739906898
  H   0.40088706438642      1.36130848421237     -1.72369469850831
  H   -1.16960422583371      1.97080359767154     -1.39564475283029
  N   0.16636763228732     -1.22187276830438      1.31533348900928
  H   0.50204431265450     -2.15542443420503      1.10623751259906
  H   0.66377591958368     -0.91794806440784      2.14528933626355
  N   1.78563009328893     -0.18610601007135     -0.19120703602000
  O   2.04907941517362      0.54544464661480     -1.16397726114629
  O   2.65137314614743     -0.80441809684683      0.44043452772962
