14
Coordinates from ORCA-job run
  C   -0.61587935836505      0.39257200235144     -0.27156853646465
  C   0.45125038841968     -0.29768434892804      0.27104332986429
  N   -0.53692449549473      1.46749397911667     -1.10461507555729
  H   0.39116767278732      1.63983886681803     -1.46415993105346
  H   -1.29638750538208      1.55451042639230     -1.76108048137525
  N   -1.89062037370406     -0.01216056203202      0.04864652839843
  H   -2.55006214787583      0.74216721834862      0.16604354907188
  H   -1.88450677000879     -0.68652650768963      0.80186948968501
  N   0.19454257367263     -1.32349416544181      1.20894393505019
  H   0.49565464555238     -2.22073666897531      0.84435711627059
  H   0.72731124073262     -1.16537822235118      2.05694456315437
  N   1.79701631174484     -0.08488767097391     -0.15609511478771
  O   2.06044243457754      0.83373071936166     -0.95436166873212
  O   2.65899538334354     -0.83944506599681      0.31103229647572
