14
Coordinates from ORCA-job run
  C   -0.61716602130849      0.40213277186040     -0.25379690897273
  C   0.44932742818612     -0.30756202325458      0.26482241523923
  N   -1.88799185970332     -0.08179328835864     -0.05066902538142
  H   -1.89239970903072     -0.83925023119512      0.61875200412957
  H   -2.58487475260075      0.62869966000885      0.11379754255655
  N   -0.54108194160025      1.56793840860940     -0.95364567354911
  H   0.39587969185491      1.81404981389196     -1.23979752358837
  H   -1.27080455233714      1.70609439007918     -1.63451042042718
  N   0.18879096012357     -1.44846931735043      1.05754816185196
  H   0.67272531295880     -1.37700950652679      1.94557375253337
  H   0.54305598208577     -2.28382890263493      0.60430048266944
  N   1.80376345094134     -0.00573736067560     -0.07167481713601
  O   2.67076785823174     -0.78638617819551      0.33991984514231
  O   2.06900815219843      1.01112176374183     -0.73961983506763
