14
Coordinates from ORCA-job run
  C   -0.60598774711598      0.43725415028839     -0.19712865713117
  C   0.41919643231809     -0.47341167242106      0.03132057646566
  N   -1.85770613647490      0.11548966814475      0.28400484071621
  H   -2.43409788326679      0.91099073967350      0.51992680172502
  H   -1.79150803282995     -0.56163530583204      1.03424009847487
  N   -0.50048792850560      1.56639001883895     -0.92198312015866
  H   0.39916245368662      1.76280614639886     -1.33166691443856
  H   -1.32283348449465      2.07858625891495     -1.18062063487773
  N   0.17740421784275     -1.55809196838454      0.90768756540909
  H   0.90961211808702     -1.59625889277374      1.60564402075002
  H   0.17465991852881     -2.43828439639324      0.40769716303837
  N   1.76385353315367     -0.18161084432189     -0.32239491904170
  O   2.01814364224250      0.83269904080669     -1.00511472162723
  O   2.65158889682842     -0.89392294293956      0.16838790069580
