14
Coordinates from ORCA-job run
  C   -0.62076357876277      0.37275603828669     -0.28457251126875
  C   0.46277413286774     -0.37366281556524      0.15853638323371
  N   -0.53629650600982      1.50321872515736     -1.01979515905066
  H   -1.36075345598857      2.05697833476119     -1.16842698362225
  H   0.37524418566962      1.93071059182212     -1.07749657532232
  N   -1.87581725031220     -0.13896215706325     -0.06822984031372
  H   -2.61962635784225      0.53059722029373      0.04779379432942
  H   -1.86019315234704     -0.89319540381068      0.60434986391589
  N   0.21355880334859     -1.55340920907644      0.89717670675214
  H   0.72859610737980     -1.52762493153589      1.77032139050846
  H   0.54809737330988     -2.36749745209990      0.39270135675934
  N   1.80477525981689      0.04124598730280     -0.03681470574228
  O   2.69405988825808     -0.68077851724324      0.43502737200932
  O   2.04834455061205      1.10062358877076     -0.65057109218829
