14
Coordinates from ORCA-job run
  C   -0.59586909303215      0.47486085230112     -0.15883606641171
  C   0.44204970149650     -0.39031167051992      0.15605468589895
  N   -0.47749614108121      1.61226727093422     -0.86558045164203
  H   -1.25236958618107      2.24733039027088     -0.91797774856040
  H   0.42534195747393      1.84671719636155     -1.24365376042251
  N   -1.85142748677840      0.18436180423201      0.33355083371995
  H   -2.61085118873186      0.36575264089435     -0.30593869533212
  H   -1.86126406518311     -0.74782482018534      0.72883217561250
  N   0.14967259144943     -1.56216284168687      0.88666620845359
  H   0.51486048181916     -2.37800012406389      0.40787209469659
  H   0.60576971801628     -1.53863706089722      1.79253368318752
  N   1.79189734192028     -0.10572157691830     -0.17298963532205
  O   2.65176036357012     -0.90064548004187      0.23081953507789
  O   2.06792540524211      0.89001341931927     -0.87235285895618
