14
Coordinates from ORCA-job run
  C   -0.63556033696428      0.37904335638260     -0.25041480428507
  C   0.46287601297125     -0.36882060797669      0.13567621845850
  N   -1.88350045001947     -0.04256269068065      0.13663986296057
  H   -1.85453440834937     -0.96589259836032      0.54675087438101
  H   -2.61132194630127      0.09817602525020     -0.54661419835634
  N   -0.60747220348855      1.51072364645568     -1.01169513711530
  H   0.32154982045683      1.89270094426412     -1.12726335751708
  H   -1.33910732642745      2.17361505495254     -0.80763371119875
  N   0.25293245274017     -1.57345375150219      0.84496951813559
  H   0.63205191886085     -1.50329793074247      1.78295523388959
  H   0.74646777007059     -2.33408718758343      0.39140188606291
  N   1.79772967913241      0.11945268571584      0.00513831394744
  O   2.69290453958811     -0.54709933340226      0.54088095937803
  O   2.02498447773017      1.16050238722703     -0.64079165874111
