14
Coordinates from ORCA-job run
  C   -0.61950739319954      0.41101365845568     -0.23244968662129
  C   0.44972333898278     -0.32585876623697      0.24080358852503
  N   -0.55273442514538      1.64141360505250     -0.81205659026752
  H   0.38468521247162      1.93501447999670     -1.04702652131979
  H   -1.26919827534666      1.83261613814282     -1.49413481375212
  N   -1.88401546843006     -0.11627459784635     -0.11224774207306
  H   -1.88656699512345     -0.93501255589205      0.48089439646371
  H   -2.59902965818599      0.56139956738055      0.10498970440097
  N   0.19516379935185     -1.54208563981576      0.91442135373006
  H   0.65599120845701     -1.54628002948374      1.81750438129731
  H   0.57861018836456     -2.32325262804540      0.39341411029213
  N   1.80500102982657      0.03976507533418     -0.01913126412552
  O   2.06308668252815      1.12229789549099     -0.57784305122421
  O   2.67979075544856     -0.75575620253315      0.34486213467429
