14
Coordinates from ORCA-job run
  C   -0.62010762236189      0.41016668541745     -0.23344170820215
  C   0.44849550325760     -0.37426501502445      0.15748614834441
  N   -0.55662303224751      1.51578031396597     -1.02641625539454
  H   0.38222933677302      1.85364655624316     -1.18389498494607
  H   -1.26023350072384      2.21323732892782     -0.84263397729316
  N   -1.87977407008662      0.06256107621223      0.19402002951816
  H   -1.88514089146336     -0.85372164522891      0.62106194481677
  H   -2.60892820122547      0.21399565427690     -0.48634439349730
  N   0.19525421541354     -1.55310940473935      0.89517296239682
  H   0.60238740215180     -1.48562455937243      1.82165491688328
  H   0.63473781875108     -2.34914241225906      0.44661401754174
  N   1.80415242737040      0.01575897122279     -0.06153988926629
  O   2.68089950712941     -0.70084459242835      0.43691061878494
  O   2.06065110726185      1.02956104278622     -0.73764942968660
