14
Coordinates from ORCA-job run
  C   -0.56892587136654      0.36358730406171     -0.21406905920544
  C   0.51594791036009     -0.34726033932925      0.21351293013471
  N   -1.82947672282479     -0.11671462884475      0.11659192175550
  H   -2.54021582843301      0.14132902598466     -0.55190392261352
  H   -1.81617657321997     -1.11038376150758      0.31298836326608
  N   -0.51186650121024      1.62696953536020     -0.78895575091616
  H   -0.10215061479720      1.68020059714738     -1.70603471963172
  H   -1.37534389696895      2.13941023683387     -0.69298320437729
  N   0.34749331259490     -1.54695545303749      0.93066514147088
  H   1.23232142407876     -2.03199852685896      1.00630094032457
  H   0.01493006182010     -1.36119641944172      1.87166687850752
  N   1.84882287668097      0.08361896955688     -0.08299415039105
  O   2.75826435984652     -0.35944968576884      0.63297605822475
  O   2.02637606343936      0.83784314584389     -1.04676142654881
