14
Coordinates from ORCA-job run
  C   -0.62343020576159      0.38650845764388     -0.26290039821207
  C   0.45146720669490     -0.35803139169345      0.18409986856996
  N   -0.56909571265262      1.43309685916910     -1.13303469406475
  H   0.36664554169963      1.76661725221273     -1.31583322439896
  H   -1.27797516869023      2.13648023156502     -0.99877782890128
  N   -1.88061501955940      0.06009637960223      0.18882999877696
  H   -1.87734400463844     -0.82369633450057      0.67981592801742
  H   -2.61049122512456      0.15583852650148     -0.50080903509289
  N   0.20817836239112     -1.48277577121468      1.00496792292469
  H   0.60846376280046     -1.34235663045601      1.92629403649098
  H   0.66080866841725     -2.30351207879249      0.61832069065972
  N   1.80412091344731      0.02636483182202     -0.06352441283176
  O   2.68657652606111     -0.64520892187272      0.48493623304913
  O   2.05169035491506      0.99057859001346     -0.81138508498715
