19

C	0.0	0.0	0.0
C	-0.54556	-0.058755	-1.431591
Br	1.973864	0.0	0.0
H	-1.608565	-0.296237	-1.283058
C	-0.464998	1.254422	0.718993
H	-0.051022	2.153543	0.259391
H	-0.150909	1.227934	1.765141
H	-1.560674	1.27492	0.681273
C	-0.447676	-1.245021	0.750265
H	-0.122031	-2.142097	0.224048
H	-0.040506	-1.247435	1.764657
H	-1.541479	-1.226559	0.801468
N	0.051199	-1.146145	-2.179858
H	0.954234	-0.839641	-2.525506
H	-0.540947	-1.370375	-2.970268
N	-0.379067	1.230728	-2.122783
H	-1.027757	1.892074	-1.703959
H	-0.718426	1.09023	-3.069609
Br	-4.055813	0.0	0.0
