19

C	0.0	0.0	0.0
C	-0.542565	0.283383	-1.404587
Br	1.959822	0.0	0.0
H	-1.62784	0.317989	-1.23307
C	-0.452569	1.10517	0.94382
H	-0.061225	0.927173	1.948828
H	-0.114376	2.074316	0.582069
H	-1.547016	1.089263	0.973849
C	-0.47763	-1.345502	0.532438
H	-0.066342	-2.196717	-0.014475
H	-1.571432	-1.35652	0.468725
H	-0.182046	-1.455636	1.578488
N	-0.185288	-0.759867	-2.378098
H	0.059093	-1.620589	-1.907292
H	-1.002874	-0.957987	-2.94439
N	-0.128897	1.599717	-1.871469
H	-0.817119	1.927385	-2.53923
H	0.742608	1.468594	-2.375514
Br	-4.069473	0.0	0.0
