19

C	0.0	0.0	0.0
C	-0.503912	-0.118457	-1.450042
Br	1.986162	0.0	0.0
H	-1.590976	0.000984	-1.348089
C	-0.455201	1.315059	0.609042
H	-0.087489	1.415551	1.633463
H	-1.550702	1.300696	0.617887
H	-0.112979	2.155804	0.007961
C	-0.463119	-1.170336	0.848078
H	-0.141272	-1.037688	1.883772
H	-1.558981	-1.181638	0.81526
H	-0.071251	-2.121799	0.485701
N	-0.277463	-1.414498	-2.090034
H	-0.949614	-2.083655	-1.733321
H	0.654069	-1.750823	-1.864029
N	-0.008895	0.987249	-2.255507
H	-0.487785	0.923692	-3.147492
H	0.976483	0.82715	-2.442278
Br	-4.037389	0.0	0.0
