19

C	0.0	0.0	0.0
C	-0.52861	0.081782	-1.446726
Br	1.970916	0.0	0.0
H	-1.611618	-0.068973	-1.324446
C	-0.466831	1.197658	0.809592
H	-0.048203	2.123647	0.41238
H	-0.160176	1.098933	1.854143
H	-1.56216	1.224585	0.765001
C	-0.462329	-1.293734	0.651858
H	-0.103128	-1.351988	1.682302
H	-1.558134	-1.293477	0.653457
H	-0.094129	-2.169925	0.113813
N	-0.046044	-0.938026	-2.361955
H	0.95185	-1.064394	-2.231179
H	-0.512264	-1.814085	-2.170651
N	-0.221064	1.38274	-2.042482
H	-0.894707	2.057167	-1.694783
H	-0.40486	1.2692	-3.032976
Br	-4.045817	0.0	0.0
