19

C	0.0	0.0	0.0
C	-0.3605	-0.007596	-1.52657
Br	1.980579	0.0	0.0
H	0.407182	0.59492	-2.023872
C	-0.43787	1.296354	0.664985
H	-0.111607	2.161979	0.086679
H	-1.529373	1.310915	0.718158
H	-0.026311	1.362164	1.676073
C	-0.522977	-1.19994	0.76068
H	-1.617633	-1.192476	0.690482
H	-0.137513	-2.140124	0.364383
H	-0.246756	-1.130594	1.815331
N	-1.624077	0.646165	-1.752404
H	-2.383813	0.314237	-1.155107
H	-1.90259	0.463646	-2.709397
N	-0.296845	-1.327508	-2.163822
H	0.59693	-1.76929	-1.968603
H	-1.033246	-1.91058	-1.778748
Br	-4.445889	0.0	0.0
