15

C	0.0	0.0	0.0
C	-0.568215	0.002767	-1.411448
Cl	1.78429	0.0	0.0
H	-1.667145	-0.207077	-1.14005
H	-0.343528	0.918496	0.470088
C	-0.446529	-1.110072	0.84813
N	-0.618655	-1.96709	1.632538
N	0.032503	-1.082921	-2.213024
O	0.430348	-0.836774	-3.358759
O	0.072996	-2.20233	-1.699443
C	-0.439405	1.351075	-2.076135
H	0.590764	1.716254	-2.106581
H	-1.064987	2.041252	-1.506671
H	-0.819097	1.311587	-3.097194
F	-2.628941	0.0	0.0
