13
Coordinates from ORCA-job run
  C   -0.76350686635419     -0.18190236503847     -0.47654975820661
  C   0.63026077968976      0.13022549210243      0.05878300888502
  Cl  -1.36767962846757     -1.69984917374436      0.12017668319833
  H   0.95436805904052      1.08469744204651     -0.36571351573164
  H   -0.73897070345818     -0.18971915959873     -1.56531615747125
  N   -1.64985010454888      0.99975683063766     -0.09045589610618
  O   -2.59456074570631      0.82571504530090      0.65902443013218
  O   -1.28583007193868      2.05297934467474     -0.60444962596723
  N   1.59260366715322     -0.90651707654238     -0.49887916373970
  O   1.56651890185775     -1.01247858851147     -1.71857690169328
  O   2.30573697412766     -1.51304713697810      0.28553491036063
  C   0.67391451530667      0.16812544054092      1.51170282889501
  N   0.67699522329823      0.24301390511034      2.68371915744472
