13
Coordinates from ORCA-job run
  C   -0.67909851301319      0.64069280734405     -0.23900158646236
  C   0.61343834472979     -0.14548484697319     -0.37387918120530
  Cl  -1.12490072341828      1.32657486617424     -1.79513534948729
  H   0.49585342900926     -0.95201546288934     -1.09895883777156
  H   -0.61713690377895      1.43111561521994      0.50460825930770
  N   -1.78140967382737     -0.28856555155009      0.21560694636138
  O   -2.70803956520763      0.24047389792461      0.81198522775155
  O   -1.66093217100408     -1.47448116022930     -0.07295311911388
  N   0.94807398672292     -0.82083450124005      0.94664859711101
  O   0.46351646123029     -0.32234930073529      1.95617096641232
  O   1.69345212525217     -1.78497592574737      0.87399763666413
  C   1.72952113634370      0.72185193048845     -0.72722336750118
  N   2.62666206696137      1.42799763221334     -1.00286619206653
