13
Coordinates from ORCA-job run
  C   -0.68077929130400      0.65095443334238     -0.20632459458714
  C   0.65274564659056     -0.06726603926531     -0.32355686108242
  Cl  -1.00027324632651      1.55868523297851     -1.67752058297929
  H   0.63861342057839     -0.75700663592942     -1.16877658765048
  H   -0.72836196496398      1.31620847925006      0.65199971816613
  N   -1.77947522315062     -0.36995610598996     -0.01807202687588
  O   -2.76921873753569      0.02039153131716      0.58359843016624
  O   -1.59206196432643     -1.48019501237505     -0.50443396211607
  N   0.88832621363113     -0.92831754272412      0.90804466671552
  O   0.24997528680515     -0.63797446196258      1.91331210374383
  O   1.71570068885763     -1.81682808122087      0.77941129704590
  C   1.75928959216899      0.87390818588593     -0.43045084813177
  N   2.64751957897539      1.63839601669327     -0.50823075241456
