17

C	0.0	0.0	0.0
C	-0.383881	-0.388844	-1.44815
Cl	1.837519	0.0	0.0
H	0.311836	-1.168197	-1.775865
N	-0.550235	1.254436	0.321925
H	-0.169568	2.02099	-0.214521
H	-0.542623	1.454195	1.31101
C	-0.45825	-1.050329	0.993679
H	-1.547927	-1.053116	1.029981
H	-0.105664	-2.037186	0.694192
H	-0.048989	-0.813621	1.9793
C	-0.145196	0.777477	-2.337366
N	-0.002224	1.672729	-3.085335
N	-1.723833	-0.920353	-1.478784
H	-2.415357	-0.326338	-1.010007
H	-2.037981	-1.05959	-2.431007
Br	-4.618256	0.0	0.0
