17

C	0.0	0.0	0.0
C	-0.295584	0.000221	-1.538077
Cl	1.861425	0.0	0.0
H	0.35579	-0.760854	-1.981717
N	-0.570508	1.125394	0.595595
H	-0.193211	2.015774	0.30861
H	-0.738433	1.06194	1.586377
C	-0.498067	-1.271647	0.647967
H	-1.592161	-1.26038	0.629022
H	-0.157025	-1.326096	1.684988
H	-0.117774	-2.146728	0.117227
C	0.134281	1.299757	-2.088259
N	0.443501	2.347033	-2.519505
N	-1.651747	-0.253967	-1.947181
H	-2.323547	0.310807	-1.425488
H	-1.903258	-1.211884	-1.736906
Br	-4.382501	0.0	0.0
