12
Coordinates from ORCA-job run
  C   0.20725441034151     -0.05290547983655      0.35403641851663
  C   -0.62504167409232     -1.18568437490299     -0.21720198204624
  F   0.16196204449209     -0.15093181450886      1.74579950078881
  H   -0.24502687604623     -2.14385213645384      0.13910041038223
  H   -0.59525192600758     -1.17447224155895     -1.30806983630345
  H   -1.65815029382583     -1.06859145634419      0.11536177442387
  C   -0.30317342673438      1.32339103923199     -0.03000315138463
  H   -1.33861895814530      1.42214934188674      0.30123965657343
  H   -0.25677987140786      1.46443183116771     -1.11118848446420
  H   0.29849726739021      2.09285271049243      0.45514525810394
  C   1.62054455439623     -0.20427212493387     -0.04720521751507
  N   2.73478474963946     -0.32111529423960     -0.39701434707530
