17

C	-0.33813	-0.176862	-1.501273
C	0.0	0.0	0.0
Br	0.211351	1.491124	-2.406463
H	1.107623	0.0	0.0
C	0.542817	-1.297153	-2.037309
H	1.566778	-1.099161	-1.703594
H	0.480583	-1.356374	-3.127297
H	0.209226	-2.250684	-1.613307
C	-1.820069	-0.376543	-1.772096
H	-2.009192	-0.464034	-2.845272
H	-2.402343	0.462366	-1.382602
H	-2.153692	-1.296279	-1.279654
C	-0.426261	-1.184583	0.732765
N	-0.733466	-2.167771	1.302066
C	-0.56224	1.192901	0.602522
N	-0.993412	2.162167	1.10768
F	2.500115	0.0	0.0
