17

C	-0.154038	-0.102198	-1.526024
C	0.0	0.0	0.0
Br	-2.069685	-0.133338	-2.072941
H	1.108169	0.0	0.0
C	0.521473	1.109092	-2.14967
H	1.540256	1.113242	-1.745229
H	0.013786	2.036475	-1.878844
H	0.537774	1.020249	-3.238656
C	0.515433	-1.387584	-1.983649
H	0.005218	-2.269208	-1.591376
H	1.53384	-1.343213	-1.583331
H	0.530239	-1.442882	-3.074336
C	-0.497796	-1.157153	0.717777
N	-0.850474	-2.118487	1.294056
C	-0.502367	1.240479	0.556912
N	-0.86923	2.267267	0.99787
F	2.53353	0.0	0.0
