16

C	-0.320363	0.048686	-1.476249
C	0.0	0.0	0.0
Cl	-2.095948	0.254685	-1.828175
H	1.092459	0.0	0.0
N	0.396049	1.175698	-1.994396
H	0.430353	1.118482	-3.006282
H	1.348148	1.137815	-1.609446
C	0.07055	-1.210112	-2.144316
N	0.42989	-2.088482	-2.838207
N	-0.477137	-1.164911	0.727209
O	-0.200974	-1.179647	1.92958
O	-1.009667	-2.091033	0.103322
N	-0.445458	1.219459	0.707349
O	0.304047	2.191266	0.64231
O	-1.524592	1.180548	1.301265
H	2.453983	0.0	0.0
