16

C	-0.316723	0.063663	-1.479549
C	0.0	0.0	0.0
Cl	-2.089632	0.298953	-1.831863
H	1.092522	0.0	0.0
N	0.417925	1.183332	-1.993185
H	0.484781	1.113853	-3.002209
H	1.358811	1.146773	-1.582007
C	0.061523	-1.196619	-2.149613
N	0.428634	-2.084526	-2.827188
N	-0.482379	-1.170785	0.710678
O	-0.204303	-1.204784	1.91254
O	-1.029693	-2.080041	0.077552
N	-0.447214	1.219362	0.709473
O	-1.520281	1.175113	1.314206
O	0.29276	2.197701	0.631784
H	2.457442	0.0	0.0
