16

C	-0.361409	0.001801	-1.480963
C	0.0	0.0	0.0
Cl	-2.154745	-0.145386	-1.710621
H	1.090763	0.0	0.0
N	0.111021	1.179228	-2.17208
H	-0.307841	1.98252	-1.71609
H	1.120535	1.210761	-2.019523
C	0.239866	-1.152904	-2.170497
N	0.695112	-1.992831	-2.854226
N	-0.441472	-1.201506	0.713046
O	-1.190123	-1.110166	1.687091
O	0.005129	-2.256684	0.253377
N	-0.382775	1.190071	0.742093
O	0.101358	1.26618	1.875375
O	-1.048518	2.08821	0.19961
H	2.393571	0.0	0.0
