16

C	-0.506318	0.008282	-1.43589
C	0.0	0.0	0.0
Cl	0.539591	1.08159	-2.43929
H	1.08959	0.0	0.0
N	-0.358207	-1.323346	-1.99708
H	-1.110824	-1.907334	-1.651379
H	-0.414859	-1.259449	-3.005641
C	-1.882834	0.525789	-1.566096
N	-3.004099	0.823139	-1.760318
N	-0.418389	-1.234432	0.708395
O	0.35214	-1.702057	1.538925
O	-1.530485	-1.706191	0.427655
N	-0.429416	1.1245	0.774944
O	-0.470095	1.00575	2.012309
O	-0.580996	2.196655	0.156608
H	2.352908	0.0	0.0
