16

C	-0.564585	0.029253	-1.419963
C	0.0	0.0	0.0
Cl	0.264391	-1.261195	-2.37003
H	1.087439	0.0	0.0
N	-1.997013	-0.162667	-1.557857
H	-2.196725	-1.053957	-1.1154
H	-2.454206	0.559475	-1.006657
C	-0.217696	1.297883	-2.078583
N	0.004608	2.296635	-2.654733
N	-0.401846	-1.123327	0.788635
O	0.075296	-1.134514	1.939131
O	-1.013487	-2.084409	0.26744
N	-0.3684	1.244591	0.713111
O	-1.37929	1.243759	1.424727
O	0.357365	2.219832	0.503982
H	2.34416	0.0	0.0
