16

C	-0.508395	0.021909	-1.447735
C	0.0	0.0	0.0
Cl	-0.111514	-1.597996	-2.144539
H	1.090033	0.0	0.0
N	-1.91352	0.267056	-1.663644
H	-2.084555	1.215927	-1.343086
H	-2.420328	-0.364208	-1.051056
C	0.266393	1.002548	-2.223948
N	0.826617	1.797779	-2.881809
N	-0.423881	-1.240273	0.714713
O	0.43698	-1.961026	1.201038
O	-1.638251	-1.460273	0.753964
N	-0.434233	1.109967	0.747715
O	-0.347898	1.028965	1.996219
O	-0.666226	2.176959	0.116339
H	2.33402	0.0	0.0
