11
Coordinates from ORCA-job run
  C   -0.48032016139094      0.37541812848060     -0.07874498407246
  C   0.77587232884409     -0.47246297295262      0.10359990947829
  Br  -0.10000643351379      1.85924320554016     -1.28445386638439
  H   0.51719946291055     -1.36140008355006      0.69094445894126
  H   -0.75078804640559      0.86020670632276      0.86598792870192
  H   1.11627659779311     -0.81079782846485     -0.87745895572313
  N   -1.50801126040046     -0.44756887223988     -0.67442229084449
  H   -2.32516313682334      0.10988226402359     -0.89114767729553
  H   -1.78405344982345     -1.16862911101190     -0.01560770193152
  C   1.84554136164192      0.24223340986626      0.79404374669423
  N   2.69445273716790      0.81387515398595      1.36725943243581
