11
Coordinates from ORCA-job run
  C   -0.52954759748529      0.31079443562557      0.07848220308820
  C   0.77815960300918     -0.47444764329773      0.11723003298590
  Br  -0.26530395188870      1.88439846537497     -1.14484108721492
  H   0.61182445486657     -1.35877595589597      0.73993299739664
  H   -0.73314674711211      0.77559961282337      1.04220235881610
  H   1.03663160208659     -0.81385451553513     -0.89015400319989
  N   -1.59971169612230     -0.53877693350291     -0.28509295202829
  H   -2.49102143128836     -0.06354162159377     -0.23501165721636
  H   -1.48204366802206     -0.91310433118384     -1.21860583888073
  C   1.89073321003864      0.29539759171611      0.66469895365020
  N   2.78242622191783      0.89731089546934      1.13215899260315
