11
Coordinates from ORCA-job run
  C   -0.64235703538747      0.47389907965224      0.18132844929717
  C   0.89244945679341      0.41995697974322      0.07576847075614
  Br  -1.18150536258255      2.26902746218762     -0.39721708473149
  H   1.19484045590839      0.58778634351252     -0.96183479335174
  H   -0.93956012487110      0.40559468134725      1.22881415349174
  H   1.35301424676056      1.19947891075096      0.68753393904834
  N   -1.36522215905620     -0.50820705078172     -0.56315100397421
  H   -1.30011164512398     -1.41672748757866     -0.12113379747701
  H   -1.04381927053084     -0.56915980911568     -1.52102274129586
  C   1.35879518614107     -0.89518075469738      0.51424449462817
  N   1.67247625194872     -1.96646835502038      0.87666991360875
