16

C	-0.332463	-0.069137	-1.466282
C	0.0	0.0	0.0
F	0.231775	0.970562	-2.13004
H	1.095783	0.0	0.0
C	0.066213	-1.32831	-2.107453
N	0.391173	-2.308517	-2.665655
N	-1.852572	0.076936	-1.682964
O	-2.519686	-0.940526	-1.532837
O	-2.277439	1.20529	-1.895541
C	-0.504157	-1.154495	0.709715
N	-0.894848	-2.063306	1.346617
C	-0.430156	1.315304	0.642871
H	-0.03825	2.142788	0.050998
H	-1.514165	1.425111	0.749044
H	0.034185	1.365337	1.629627
F	2.477555	0.0	0.0
