16

C	-0.431009	0.093052	-1.433867
C	0.0	0.0	0.0
F	-1.780379	0.310237	-1.59506
H	1.094112	0.0	0.0
C	0.280984	1.156868	-2.156801
N	0.741008	2.052235	-2.761285
N	-0.128266	-1.228078	-2.154586
O	1.011545	-1.365326	-2.575368
O	-1.045697	-2.036395	-2.210757
C	-0.556951	-1.170431	0.644608
N	-0.987519	-2.098828	1.225414
C	-0.353902	1.281541	0.759992
H	0.01934	1.18029	1.78023
H	0.179202	2.119873	0.305525
H	-1.426698	1.492029	0.785677
F	2.479762	0.0	0.0
