16

C	-0.437679	0.092587	-1.432263
C	0.0	0.0	0.0
F	-1.794854	0.26584	-1.588533
H	1.095185	0.0	0.0
C	0.237197	1.186752	-2.145607
N	0.669355	2.105276	-2.736043
N	-0.093661	-1.210511	-2.168698
O	1.038948	-1.296079	-2.620957
O	-0.976827	-2.057735	-2.207254
C	-0.552762	-1.174195	0.641962
N	-0.99384	-2.11174	1.20024
C	-0.356776	1.278653	0.764543
H	0.002981	1.169209	1.78888
H	0.186148	2.116526	0.322004
H	-1.429191	1.493953	0.778696
F	2.479937	0.0	0.0
