16

C	-0.284443	0.133193	-1.475018
C	0.0	0.0	0.0
F	0.12334	1.349201	-1.924081
H	1.097474	0.0	0.0
C	0.348588	-0.915416	-2.287812
N	0.86071	-1.696661	-2.999367
N	-1.797733	0.073417	-1.756156
O	-2.409411	1.134726	-1.698973
O	-2.28146	-1.042552	-1.920614
C	-0.484731	-1.266205	0.50466
N	-0.866734	-2.275168	0.975004
C	-0.485109	1.187009	0.823539
H	-0.072244	2.103317	0.401869
H	-0.082923	1.075209	1.832225
H	-1.574766	1.27166	0.879322
F	2.479425	0.0	0.0
