16

C	-0.434945	0.072851	-1.433158
C	0.0	0.0	0.0
F	-1.78413	0.28471	-1.597511
H	1.095027	0.0	0.0
C	0.274408	1.1283	-2.172138
N	0.727939	2.025685	-2.777859
N	-0.128006	-1.257149	-2.135396
O	-1.046252	-2.065097	-2.194255
O	1.017898	-1.401682	-2.537374
C	-0.560859	-1.158702	0.660709
N	-1.015099	-2.084316	1.227328
C	-0.341497	1.295218	0.742071
H	-1.410273	1.522688	0.759059
H	0.207084	2.11842	0.28025
H	0.025739	1.201443	1.765344
F	2.477568	0.0	0.0
