19

C	0.0	0.0	0.0
C	-0.571491	0.031408	-1.414503
Cl	1.804566	0.0	0.0
H	-1.67461	0.079363	-1.23908
C	-0.476722	1.187623	0.816048
H	-1.575208	1.17661	0.765033
H	-0.088742	2.133904	0.440412
H	-0.151957	1.060434	1.852174
C	-0.487931	-1.283231	0.649828
H	-0.133295	-2.158009	0.107153
H	-1.587192	-1.237609	0.623622
H	-0.142206	-1.321043	1.686191
N	-0.19381	-1.098639	-2.194226
H	-0.761352	-1.140961	-3.032208
H	0.779777	-1.013433	-2.465342
N	-0.194802	1.337241	-2.109002
O	-0.855791	2.341565	-1.847184
O	0.744374	1.311561	-2.912741
H	-3.258361	0.0	0.0
