19

C	0.0	0.0	0.0
C	-0.613426	-0.035337	-1.407726
Cl	1.792817	0.0	0.0
H	-1.697463	0.131876	-1.204678
C	-0.463765	1.235323	0.758269
H	-1.561908	1.223358	0.737048
H	-0.111557	1.176146	1.792838
H	-0.089277	2.154059	0.310313
C	-0.489877	-1.23585	0.736618
H	-0.151176	-1.19989	1.775837
H	-0.115343	-2.154749	0.282896
H	-1.589709	-1.200289	0.701962
N	-0.449995	-1.229429	-2.180199
H	-1.152536	-1.891319	-1.882697
H	0.475269	-1.623586	-2.067939
N	-0.112285	1.124342	-2.223481
O	0.798556	0.915231	-3.021393
O	-0.634356	2.222484	-2.026813
H	-3.251186	0.0	0.0
