19

C	0.0	0.0	0.0
C	-0.592424	0.034754	-1.404569
Cl	1.804488	0.0	0.0
H	-1.693674	0.091983	-1.205449
C	-0.467646	1.180609	0.833749
H	-0.137574	1.038045	1.866141
H	-1.566105	1.177098	0.789515
H	-0.077369	2.129583	0.468148
C	-0.481266	-1.287024	0.649542
H	-0.128682	-1.326914	1.683701
H	-1.580678	-1.245006	0.629937
H	-0.128508	-2.159293	0.101833
N	-0.251994	-1.104555	-2.187486
H	0.698649	-1.015611	-2.524645
H	-0.873612	-1.164519	-2.983128
N	-0.214786	1.330117	-2.115421
O	-0.804469	2.359957	-1.792438
O	0.651117	1.273338	-2.99555
H	-3.25221	0.0	0.0
