19

C	0.0	0.0	0.0
C	-0.581004	0.002887	-1.409856
Cl	1.803917	0.0	0.0
H	-1.684867	0.053416	-1.223148
C	-0.471927	1.197499	0.805089
H	-0.079278	2.138986	0.422715
H	-0.149152	1.076057	1.842591
H	-1.570317	1.191802	0.753469
C	-0.482269	-1.272552	0.676529
H	-1.581741	-1.22908	0.655489
H	-0.130229	-1.291601	1.711497
H	-0.130605	-2.157014	0.147849
N	-0.214114	-1.147473	-2.166411
H	0.752024	-1.066394	-2.460802
H	-0.796317	-1.211204	-2.99138
N	-0.211702	1.290293	-2.141039
O	0.660853	1.228116	-3.012986
O	-0.818416	2.317809	-1.845256
H	-3.244306	0.0	0.0
