15
Coordinates from ORCA-job run
  C   -0.96821583409275      0.31826087113688      0.19448649824161
  C   0.54305371359702      0.63476727624383      0.11368304238918
  Cl  -1.92492689137682      1.76995279229764     -0.06653553733660
  H   0.71806053604819      1.38040779499760      0.89820198800195
  N   -1.28951739930770     -0.72387766245248     -0.90084478566406
  O   -1.18737389194274     -1.89159480110949     -0.54476546234028
  O   -1.53567827850120     -0.29916026963110     -2.01620586266395
  C   -1.29616857199923     -0.26604383540146      1.48821109993503
  N   -1.52325266148375     -0.68266442549955      2.56383108593572
  C   0.86278757371344      1.25849458879783     -1.17145244362437
  N   1.18620345910849      1.74006422486145     -2.19256566385324
  C   1.43157198811408     -0.58892421989544      0.36123509379050
  H   1.33197092109742     -1.32295444024771     -0.43809353405521
  H   1.17923157703436     -1.06301137901751      1.31081713957671
  H   2.47225375999119     -0.26371651508052      0.39999734166700
