15
Coordinates from ORCA-job run
  C   -0.86378962759913      0.02491195475625      0.27864170847699
  C   0.54548799011986      0.48908680175186     -0.12448445570956
  Cl  -1.41573161671421      0.89813952487799      1.71492914588514
  H   0.48019836096594      1.57419085445375     -0.25196922515120
  N   -1.83357834780324      0.39259308428057     -0.86750434901159
  O   -1.75350651999306      1.54680647130424     -1.25788467799642
  O   -2.58130034338498     -0.48634792637230     -1.26838773470137
  C   -0.92067259380365     -1.41034988229531      0.50962513256022
  N   -0.88924083958084     -2.56506626774959      0.72950061666153
  C   0.86501794408184     -0.10745474109819     -1.42382433235826
  N   1.13423381038039     -0.60545075565159     -2.45311452682305
  C   1.60703146913502      0.12595888695872      0.91580800902533
  H   1.67136580596677     -0.95588637790090      1.04472931351529
  H   1.37751717497671      0.59004868509665      1.87496432620636
  H   2.57796733325256      0.49081968758786      0.57797104942059
