15
Coordinates from ORCA-job run
  C   -0.89143554132123      0.26220059016641     -0.08186744350989
  C   0.57159540159655      0.14248865247492      0.40264661379622
  Cl  -1.05829735349741      1.35751302902272     -1.43816670917559
  H   0.53705618017605     -0.50745061063109      1.28449087742156
  N   -1.29749560448687     -1.17978674344925     -0.48991701046316
  O   -1.47673967017868     -1.42746697026216     -1.66781565486487
  O   -1.33667092527622     -1.95445564871920      0.45708506595889
  C   -1.77490663351704      0.66419405357392      1.00494563014377
  N   -2.46733342213717      1.00224011214688      1.89300217819868
  C   1.03611064875918      1.46203842867419      0.82717305175512
  N   1.44261878591240      2.51256906994022      1.15931154755729
  C   1.49948966505455     -0.46889544323152     -0.64942577404279
  H   1.49068461221699      0.11543818836287     -1.56943464196114
  H   1.20563146833860     -1.49587679559604     -0.87238502608860
  H   2.51769238836030     -0.48574991247288     -0.25864270472549
