15
Coordinates from ORCA-job run
  C   -0.90412226766423      0.05814121171364     -0.22264617991057
  C   0.52584011849952      0.41936307866831      0.24087735610307
  Cl  -1.07639742312028      0.11921412058231     -1.96451446771463
  H   0.48993793628593      0.41639305969271      1.33634654901618
  N   -1.14206990391537     -1.38435578715796      0.30034786050451
  O   -1.17497014621251     -1.45306686578109      1.52203724358676
  O   -1.21256812466711     -2.29554009766243     -0.50310525331134
  C   -1.89661083825099      0.91388921261751      0.41450868853299
  N   -2.67757398989520      1.62671927510644      0.92864244525291
  C   0.83416651023213      1.77810376210630     -0.20179432987837
  N   1.11465741837244      2.86001380155183     -0.56217081097875
  C   1.57794397106435     -0.58232900031045     -0.24003729766928
  H   2.56326766370330     -0.24696368825598      0.08617158132443
  H   1.58013370035772     -0.66059316275279     -1.32719451830906
  H   1.39636537521031     -1.56798892011833      0.19153113345115
