15
Coordinates from ORCA-job run
  C   -0.87731892854946      0.21424041083999     -0.23198719013876
  C   0.51241686003668      0.22344737303451      0.44533615854953
  Cl  -0.88589676917297      1.08739120347562     -1.75022350357281
  H   0.37464165868045     -0.28734818636125      1.40512728145823
  N   -1.20014838293363     -1.28730039198483     -0.46260854709799
  O   -1.22061635611031     -1.71459559157045     -1.60178100840098
  O   -1.34751537822955     -1.91257540497872      0.57933313592129
  C   -1.90236452646173      0.74048593998220      0.66006860540336
  N   -2.71069867187140      1.18265056474229      1.39046270409854
  C   0.89436826659715      1.60835695870738      0.71513660836764
  N   1.23400979072678      2.71259452938714      0.92580044129995
  C   1.57869144919411     -0.50583327083678     -0.37470640449399
  H   1.67973446171386     -0.06894690456992     -1.36810658318443
  H   1.33281843768956     -1.56464225546236     -0.47040397387461
  H   2.53787808869048     -0.42692497440482      0.13855227566502
