15
Coordinates from ORCA-job run
  C   -0.96238618224981      0.31092058707536      0.23311811903135
  C   0.54340955174007      0.63656833307855      0.10208897984922
  Cl  -1.93443013259987      1.76138236111919      0.02752726902337
  H   0.74215245842836      1.37481598540747      0.88793738658618
  N   -1.31879959085953     -0.71750419589253     -0.86473233171518
  O   -1.61241616337929     -0.27877193004040     -1.96290860325254
  O   -1.19358179757616     -1.88930818744738     -0.53004398044327
  C   -1.24058527265994     -0.29339557768010      1.52928365507797
  N   -1.42749598729900     -0.72761917665861      2.60567268070288
  C   0.81355813047629      1.27548539286685     -1.18700222979482
  N   1.09869781173460      1.76582960390393     -2.21533251774032
  C   1.44742665545624     -0.58408162847660      0.30458698391147
  H   1.32084069004067     -1.31219630956015     -0.49626881570525
  H   1.23465747637632     -1.06716743107052      1.25929817914312
  H   2.48695235237105     -0.25295782662501      0.30577522532583
