15
Coordinates from ORCA-job run
  C   -0.95809814521001      0.23320284191279      0.17975881075209
  C   0.51833633207848      0.65786736103102      0.10274885479178
  Cl  -2.03696337382295      1.59434308563716     -0.15710878279838
  H   0.64463038862986      1.36261305490960      0.93437131570670
  N   -1.28605014123141     -0.85739951782235     -0.85905220110130
  O   -0.66982869127721     -0.79843170104436     -1.91231800819927
  O   -2.16304051094167     -1.65092361798278     -0.54942696706747
  C   -1.24859585456526     -0.30944629264543      1.50208678864584
  N   -1.41447555363178     -0.70840373999522      2.59538422061682
  C   0.82248964997074      1.39664431016634     -1.12361695546785
  N   1.14684299902764      2.01557943461569     -2.06699312487376
  C   1.47594456661976     -0.52285110247006      0.30036953859030
  H   1.42576806390396     -1.21203435930322     -0.54191410259297
  H   2.49662645964909     -0.14454962941595      0.37030474877150
  H   1.24641381080073     -1.05521012759323      1.22540586422598
