15
Coordinates from ORCA-job run
  C   -0.91614610796621      0.15831855765233     -0.07417426166835
  C   0.57693735364584      0.29157445427398      0.30514415253455
  Cl  -1.26872505918872      0.83973897011533     -1.64835792555124
  H   0.65688219025737     -0.09934740187651      1.32595422934390
  N   -1.19609309756445     -1.36891994449149     -0.06380991721787
  O   -1.10566687251078     -1.86643767426717      1.05089871331676
  O   -1.41263023261440     -1.93244279540502     -1.12032935353677
  C   -1.77291957441129      0.75813953285088      0.94052871292005
  N   -2.44310757567905      1.26420467049674      1.76338747814582
  C   0.92978993500617      1.71003409924464      0.33078880031299
  N   1.24171738038803      2.84216131727393      0.33962946583223
  C   1.49920046021440     -0.50268072378090     -0.62205909234457
  H   1.30014191920272     -1.57227148491648     -0.53835595175101
  H   1.37542746093123     -0.19423769506504     -1.66012232209041
  H   2.53519182028912     -0.32783388210527     -0.32912272824611
