15
Coordinates from ORCA-job run
  C   -0.95912733134508      0.32961958967285      0.21987619182586
  C   0.55584947644369      0.62241963644072      0.12017212961075
  Cl  -1.89493122093876      1.80366258503453      0.01418143308430
  H   0.75736446812152      1.34452417566740      0.92018903301775
  N   -1.31785456601597     -0.67762597100802     -0.89637094725622
  O   -1.22844197879116     -1.85596345333277     -0.57335675786912
  O   -1.57829627867253     -0.21945410481141     -1.99514520422212
  C   -1.27422454356590     -0.28325025280103      1.50357554071413
  N   -1.48825434504587     -0.72639129360294      2.57124077459212
  C   0.86383970202206      1.27337900370193     -1.15420205980367
  N   1.17756325892616      1.77654800806785     -2.16790105998991
  C   1.42739627030633     -0.62192357018234      0.32085971223762
  H   2.47397745056462     -0.31508407063556      0.34910744985084
  H   1.18383460775614     -1.11587808140852      1.26254910345238
  H   1.30130503023474     -1.33358220080266     -0.49477533924468
