15

C	-0.379102	-0.024629	-1.469879
C	0.0	0.0	0.0
Cl	-2.268005	-0.550382	-1.479495
H	1.094604	0.0	0.0
H	-0.329908	-0.939713	0.457913
N	-0.189379	1.211931	-2.049929
H	-0.509154	1.954507	-1.443346
H	-0.518488	1.261274	-3.002256
N	0.25861	-1.040019	-2.258238
H	1.259076	-0.854827	-2.184943
H	0.079655	-1.944896	-1.839511
N	-0.508941	1.196039	0.662997
H	0.160647	1.490829	1.364207
H	-1.394222	0.996717	1.114988
Br	3.633826	0.0	0.0
