12
Coordinates from ORCA-job run
  C   0.83576135061297     -0.90076687606754     -0.13679913519287
  C   -0.13020529185238      0.03935931846977      0.04399652348859
  H   0.58202885200142     -1.95126397882762     -0.18676331871630
  C   2.19945368497496     -0.52010647677021     -0.25359770005602
  N   3.31040620157700     -0.14153526639297     -0.35180749180761
  C   -1.57712059018740     -0.33433841684334      0.15755237279888
  H   -1.97493909404608     -0.01367600861477      1.12396173652200
  H   -2.16333155810973      0.15884857535997     -0.62466415922875
  H   -1.71486176344638     -1.41028677185201      0.05886631266654
  N   0.14391591689422      1.37370547245166      0.22424890456637
  H   -0.58439826524907      2.01857968389727     -0.03498575441229
  H   1.07429055683047      1.68148074518978     -0.01900829062852
