12
Coordinates from ORCA-job run
  C   0.91369616177353     -0.81591858160987      0.16510891494568
  C   -0.13858875639371      0.02490809938837     -0.02298619869527
  H   0.75433769802729     -1.83340160996225      0.49642602263141
  C   2.24189378314875     -0.37557284043307     -0.08015789408488
  N   3.31941475063460      0.05000141925675     -0.29259030149393
  C   -1.54809250993678     -0.41350421202411      0.23583557509949
  H   -1.58046686476506     -1.43893905173050      0.60164051005645
  H   -2.02095812317564      0.23241375632002      0.98249602008427
  H   -2.13744110988621     -0.34769826678272     -0.68251961764779
  N   -0.00677649231366      1.28935465978381     -0.54341648436998
  H   -0.72364386364708      1.95193908828298     -0.29746723933377
  H   0.92562532653397      1.67641753951059     -0.56136930719168
