12
Coordinates from ORCA-job run
  C   1.26844336764136     -0.10222196310349     -0.07793705447360
  C   -0.00137060455084      0.36048996588520      0.05841901005117
  H   2.11242667883820      0.58178601082410     -0.07002011183947
  C   1.55920184863853     -1.48569577139208     -0.21340113045327
  N   1.80591984776476     -2.63065413838122     -0.33189600008272
  C   -1.20670213280517     -0.53001260329485      0.06572852524568
  H   -0.93188791781790     -1.57694917891716     -0.05065439030899
  H   -1.75062412798585     -0.40907637568747      1.00621303944750
  H   -1.88426937792864     -0.25828806257999     -0.74999185535971
  N   -0.27058544163745      1.69341663615709      0.29209569333480
  H   -1.17462390897965      2.01618400471865     -0.01324523600344
  H   0.47407176882264      2.34102147577123      0.08568951044207
