12
Coordinates from ORCA-job run
  C   0.84751555137850     -0.89906875239998     -0.05693719703191
  C   -0.13216089993600      0.04005064926143      0.03334727152463
  H   0.60333714467124     -1.95293163992311     -0.06501354565942
  C   2.21278467589041     -0.51261779244933     -0.12686245188508
  N   3.32482577978076     -0.12978513127702     -0.18972774863770
  C   -1.58001339163199     -0.34069961098937      0.10278691472890
  H   -1.70762325343848     -1.42028109771248      0.03763791875214
  H   -2.13795982930825      0.12089221013470     -0.71798033962171
  H   -2.01697329571093      0.01053178749414      1.04120251681093
  N   0.12389980059703      1.38415881713853      0.15914691093102
  H   1.06161949061662      1.69005754417196     -0.05627593756821
  H   -0.59825177290890      2.00869301655051     -0.16032431234359
