12
Coordinates from ORCA-job run
  C   1.26735202536961     -0.13799978648887     -0.01052141260139
  C   0.00362887522154      0.35340077483836     -0.09132093173622
  H   2.12607526504524      0.51369346348208     -0.14497208550523
  C   1.53068732844349     -1.51244486794748      0.23098220397233
  N   1.75585151497790     -2.64955168399705      0.43639502380952
  C   -1.22205701543345     -0.49262653666012      0.07590944763896
  H   -1.83266256817879     -0.44304305367047     -0.82938259383368
  H   -1.82787922345281     -0.12194740520270      0.90901186994713
  H   -0.96759131887181     -1.53264047994298      0.27310200911772
  N   -0.24761465683088      1.66819673780507     -0.42648826801328
  H   0.52835563815555      2.30598297033569     -0.33884670950569
  H   -1.11514586444559      2.04797986744845     -0.08286855329016
