12
Coordinates from ORCA-job run
  C   0.90034803424105     -0.83598002344592      0.14136062546276
  C   -0.13127393265459      0.04377199673307      0.03395067334926
  H   0.73065179996774     -1.84641561579158      0.48880854938598
  C   2.22317714021957     -0.43959736072744     -0.19233684652588
  N   3.29475666938060     -0.05340853779174     -0.49205639935982
  C   -1.53744493609681     -0.35145800821596      0.36969963700573
  H   -2.19365683220517     -0.20594104083166     -0.49436146519018
  H   -1.59206695232076     -1.39775160570481      0.66740876270575
  H   -1.91873696867724      0.26841246729947      1.18538503333278
  N   0.03988332732570      1.36653185834673     -0.29583088394106
  H   0.93199381269993      1.62312843711540     -0.69299446873595
  H   -0.74863116188004      1.82770743301445     -0.71903321748938
