12
Coordinates from ORCA-job run
  C   1.26457015241987     -0.13389034613593      0.09471457985947
  C   0.00492230100792      0.36512304647303     -0.00211229847485
  H   2.12572130881124      0.52843305396762      0.09258083067475
  C   1.51944930683885     -1.52504442543994      0.22317499999030
  N   1.73758122450985     -2.67745537080468      0.32419007870887
  C   -1.22419762267208     -0.49226719578021      0.00545473866176
  H   -1.79431467789821     -0.34561728838491     -0.91755146718209
  H   -1.86712719017235     -0.21050492166613      0.84343094837649
  H   -0.97581833961740     -1.54874804727162      0.09109743235059
  N   -0.24209676685787      1.72267083447821     -0.02466990384496
  H   0.54425210019043      2.31409771531718     -0.24496085712565
  H   -1.09194179656026      2.00320294524738     -0.48734908199469
