12
Coordinates from ORCA-job run
  C   0.92193994408525     -0.80855525434080      0.15459459949573
  C   -0.13082438431868      0.04405873009588      0.03595287406302
  H   0.78911823792170     -1.79408755642354      0.58061636065842
  C   2.22035554367591     -0.41484562440278     -0.26710149937999
  N   3.27050096100037     -0.03445375735985     -0.64084394978378
  C   -1.51086717321682     -0.34882409383969      0.46849335838934
  H   -1.86256003661549      0.32165429384264      1.25695165741331
  H   -1.53024797047333     -1.37184245860566      0.84186087404389
  H   -2.21241069424949     -0.27559443698801     -0.36849904403547
  N   -0.00214793665152      1.34295059842154     -0.39415981328607
  H   0.86455031638091      1.58372734944821     -0.85295496423345
  H   -0.81840680753881      1.75581221015206     -0.81491045334495
