12
Coordinates from ORCA-job run
  C   1.25014786278024     -0.20660004273759      0.14223559553645
  C   0.02259725504579      0.36350958763427      0.02637043864532
  H   2.12634092733624      0.39965292408916      0.35405968245950
  C   1.45479969788397     -1.60207528204508     -0.02413730368744
  N   1.63015703955137     -2.75880399991561     -0.15485335863991
  C   -1.22266609176011     -0.41482005121401     -0.27307917549193
  H   -1.67374183894694     -0.04983718805160     -1.19948337628287
  H   -1.95459978186915     -0.28299413894311      0.53029374420778
  H   -1.01544058526635     -1.47854821916989     -0.37681484472724
  N   -0.15577933673274      1.73027295996162      0.08847701662801
  H   0.60157355432079      2.26071579083965      0.49070050759307
  H   -1.06438870234312      2.03852765955218      0.39523107375927
