12
Coordinates from ORCA-job run
  C   0.94100957953030     -0.73406595895440      0.32190496378532
  C   -0.13693661565129      0.03703194952404      0.01695987572576
  H   0.81196084089398     -1.71009000504629      0.77054997189000
  C   2.25816862989864     -0.26733056664477      0.06657697084549
  N   3.32382603336869      0.17118389392171     -0.17691592841339
  C   -1.53646580394022     -0.43794176830325      0.26574780100206
  H   -2.04558850257887      0.23558801162397      0.96010269252263
  H   -2.10903975798006     -0.44951161113396     -0.66735030560007
  H   -1.54310818107954     -1.44450945107728      0.68184457716170
  N   -0.03233753256554      1.32525397215539     -0.44984032224074
  H   0.87449567236434      1.60991829335400     -0.79080987000677
  H   -0.80398436226045      1.66547324058081     -0.99977042667199
