12
Coordinates from ORCA-job run
  C   0.89742399162410     -0.82940476022908      0.19121667806369
  C   -0.13688798210884      0.03653115154130      0.01733167930418
  H   0.71385814508973     -1.87834210781631      0.38198095137416
  C   2.23975806502206     -0.36821908808478      0.13402586233445
  N   3.32923496789973      0.07430534470068      0.06598915114403
  C   -1.56201166880816     -0.42519377164168      0.05966544775905
  H   -1.62267108896055     -1.50163389595219      0.21403168562589
  H   -2.07142294643987     -0.18522770767020     -0.87913904768658
  H   -2.09796903407524      0.07897118711986      0.86791477885413
  N   0.03351404097225      1.39322114292438     -0.11861999271046
  H   -0.69112567211138      1.88793470342160     -0.61235929853182
  H   0.96829918189617      1.71505780168642     -0.32303789553069
