12
Coordinates from ORCA-job run
  C   0.90194228790513     -0.81497958349887     -0.22495337420553
  C   -0.13039561773184      0.04899646423505     -0.03143938237264
  H   0.73997659727417     -1.77038201235119     -0.70603424168810
  C   2.21570244508597     -0.47391095113240      0.19469256674555
  N   3.27942857161886     -0.13692345102046      0.57174431888378
  C   -1.52719161317006     -0.29066195781418     -0.45524642650045
  H   -1.57433358066454     -1.28697649309398     -0.89286747425947
  H   -1.88457670599407      0.43553505092527     -1.18992402500711
  H   -2.20759519199908     -0.26064283689685      0.40177777427681
  N   0.03445349711797      1.31669915699245      0.47268651925258
  H   0.91544136986975      1.51173732201373      0.92598576231120
  H   -0.76385205931224      1.72050929164143      0.93457798256339
