16

C	-0.210972	0.091606	-1.528775
C	0.0	0.0	0.0
F	-0.209081	-1.186694	-2.070558
H	1.090097	0.0	0.0
C	-1.526033	0.686732	-1.867776
N	-2.582928	1.146365	-2.093617
N	0.863325	0.835277	-2.109307
H	0.678292	1.824068	-1.991917
H	1.706474	0.605741	-1.547637
N	-0.603035	-1.247351	0.570122
O	-1.684797	-1.140298	1.164712
O	-0.003225	-2.305206	0.407274
N	-0.469721	1.201427	0.609229
H	0.083486	1.388767	1.434896
H	-1.446633	1.121992	0.865374
F	2.612501	0.0	0.0
