16

C	-0.245551	-0.196101	-1.518697
C	0.0	0.0	0.0
F	-1.303493	-1.118124	-1.747973
H	1.093163	0.0	0.0
C	-0.75746	1.052828	-2.142527
N	-1.131101	1.99283	-2.741059
N	0.953022	-0.648687	-2.094877
H	1.086656	-0.350914	-3.048474
H	1.772972	-0.473376	-1.47884
N	-0.456906	-1.258502	0.697158
O	-1.368782	-1.162084	1.524763
O	0.113224	-2.302743	0.407558
N	-0.554537	1.18877	0.538381
H	-1.518827	1.048024	0.813644
H	-0.019316	1.459145	1.352405
F	2.634152	0.0	0.0
