16

C	-0.153285	-0.181484	-1.539954
C	0.0	0.0	0.0
F	-1.351629	-0.818054	-1.8699
H	1.093332	0.0	0.0
C	-0.232046	1.172606	-2.142206
N	-0.340438	2.243053	-2.610004
N	0.943889	-0.899897	-2.129025
H	0.82441	-1.858557	-1.81201
H	1.777868	-0.573985	-1.600921
N	-0.509672	-1.260111	0.625649
O	-1.444652	-1.198979	1.418646
O	0.032653	-2.311419	0.280396
N	-0.553566	1.144084	0.630929
H	-1.443941	1.436331	0.249463
H	0.11426	1.899629	0.591481
F	2.611626	0.0	0.0
