16

C	-0.486258	0.098231	-1.441979
C	0.0	0.0	0.0
F	-0.058349	1.333802	-1.915442
H	1.105831	0.0	0.0
C	0.136902	-0.899832	-2.347059
N	0.537716	-1.65152	-3.155961
N	-1.928402	0.128447	-1.540455
H	-2.269276	-0.775182	-1.233846
H	-2.187863	0.255035	-2.512973
N	-0.446602	-1.288815	0.601321
O	-0.235431	-1.465645	1.793776
O	-0.952993	-2.14856	-0.143802
N	-0.447669	1.093821	0.80056
H	0.330371	1.724192	0.932979
H	-1.228347	1.571606	0.370071
F	2.514785	0.0	0.0
