14

C	0.0	0.0	0.0
C	-0.477797	-0.130641	-1.441633
F	1.383731	0.0	0.0
H	-1.550179	-0.335542	-1.409373
H	0.04858	-1.004638	-1.84188
C	-0.414543	1.264857	0.63719
N	-0.564741	2.320886	1.127867
C	-0.414476	-1.156773	0.81705
N	-0.536534	-2.135548	1.454403
C	-0.185063	1.120737	-2.256265
H	0.860045	1.431005	-2.164141
H	-0.391541	0.931306	-3.312299
H	-0.829247	1.940432	-1.932485
Br	-3.57196	0.0	0.0
