14

C	0.0	0.0	0.0
C	-0.418073	-0.012474	-1.470238
F	1.385537	0.0	0.0
H	-1.48561	-0.222887	-1.510781
H	0.136214	-0.849144	-1.910508
C	-0.419779	1.209219	0.729973
N	-0.480808	2.230812	1.306905
C	-0.407863	-1.231964	0.700391
N	-0.508306	-2.27412	1.233717
C	-0.082199	1.301818	-2.160547
H	0.945355	1.614571	-1.958194
H	-0.198309	1.196771	-3.242749
H	-0.762134	2.087087	-1.824668
Br	-3.441219	0.0	0.0
