14

C	0.0	0.0	0.0
C	-0.477071	-0.132259	-1.441091
F	1.384806	0.0	0.0
H	0.047838	0.656159	-1.993416
H	-1.549829	0.074172	-1.444025
C	-0.414757	1.286793	0.589753
N	-0.544811	2.363696	1.041465
C	-0.416413	-1.127017	0.854974
N	-0.571678	-2.072261	1.53394
C	-0.183565	-1.508322	-2.02165
H	-0.417775	-1.514633	-3.088971
H	-0.809192	-2.262956	-1.54033
H	0.866258	-1.787117	-1.900179
Br	-3.578602	0.0	0.0
