14

C	0.0	0.0	0.0
C	-0.473915	-0.100031	-1.444033
F	1.385367	0.0	0.0
H	-1.549735	-0.285013	-1.414589
H	0.034753	-0.978806	-1.856944
C	-0.409991	1.250915	0.66607
N	-0.53308	2.294014	1.190741
C	-0.404934	-1.178075	0.792319
N	-0.527318	-2.177378	1.397095
C	-0.153153	1.157359	-2.239983
H	-0.761257	1.993842	-1.888386
H	0.903019	1.429557	-2.162812
H	-0.388929	0.996556	-3.295073
Br	-3.575779	0.0	0.0
