16

C	-0.517718	-0.017389	-1.42708
C	0.0	0.0	0.0
F	0.11607	-0.928181	-2.204955
H	1.089268	0.0	0.0
N	-1.905212	-0.239696	-1.517846
H	-2.226516	-0.068394	-2.463741
H	-2.412087	0.339154	-0.858603
N	-0.124609	1.327828	-2.120259
O	0.660333	2.08396	-1.567806
O	-0.646797	1.500116	-3.223531
N	-0.421503	-1.275814	0.656512
O	-0.012717	-2.309815	0.139471
O	-1.115509	-1.218658	1.676857
C	-0.575169	1.117752	0.715558
N	-1.055814	2.045003	1.257202
F	2.433053	0.0	0.0
