16

C	-0.166061	0.040223	-1.520613
C	0.0	0.0	0.0
F	-0.41136	1.38343	-1.883198
H	1.093826	0.0	0.0
N	0.92949	-0.516316	-2.122168
H	0.984947	-0.356874	-3.115324
H	1.786909	-0.356503	-1.560135
N	-1.474512	-0.589571	-2.018509
O	-2.436634	-0.54457	-1.258608
O	-1.48166	-1.012712	-3.171254
N	-0.408121	-1.294799	0.602658
O	-0.669234	-1.293545	1.802933
O	-0.385314	-2.287034	-0.11793
C	-0.592206	1.111731	0.705076
N	-1.039372	2.033823	1.278755
F	2.539839	0.0	0.0
