19

C	0.0	0.0	0.0
C	-0.175663	0.051425	-1.544296
F	1.413189	0.0	0.0
H	0.382072	-0.81829	-1.914339
C	-0.526831	1.219313	0.706417
H	-0.243953	1.178601	1.76214
H	-1.619358	1.213922	0.630392
H	-0.138582	2.130333	0.252805
C	-0.501807	-1.285392	0.603904
H	-0.147343	-1.354532	1.636391
H	-0.144046	-2.151707	0.043851
H	-1.595754	-1.277048	0.596202
N	0.30258	1.319582	-2.045792
H	1.293204	1.369778	-1.846852
H	0.157941	1.376005	-3.045271
N	-1.550674	-0.204563	-2.103714
O	-1.896983	-1.382176	-2.101609
O	-2.163803	0.733605	-2.59735
Br	-4.225722	0.0	0.0
