19

C	0.0	0.0	0.0
C	-0.326131	-0.056047	-1.511218
F	1.400509	0.0	0.0
H	0.142034	0.821865	-1.961429
C	-0.502567	1.315405	0.553957
H	-1.594919	1.332707	0.516913
H	-0.183574	1.420009	1.594172
H	-0.098337	2.153968	-0.019788
C	-0.496025	-1.170815	0.817251
H	-1.588443	-1.201435	0.802358
H	-0.171302	-1.034068	1.852424
H	-0.09943	-2.111124	0.439399
N	-1.671211	-0.192114	-1.927047
H	-2.321156	-0.531692	-1.221858
H	-2.046156	0.684375	-2.255363
N	0.495961	-1.191218	-2.124084
O	0.136077	-2.342297	-1.896472
O	1.454877	-0.878193	-2.829793
Br	-4.366937	0.0	0.0
