19

C	0.0	0.0	0.0
C	-0.466632	0.137068	-1.454561
F	1.406312	0.0	0.0
H	-1.561711	0.167949	-1.448821
C	-0.458243	1.150507	0.86879
H	-1.546155	1.230196	0.82132
H	-0.004897	2.090788	0.55547
H	-0.158604	0.946701	1.899759
C	-0.477495	-1.329037	0.543249
H	-1.569835	-1.338673	0.539633
H	-0.11945	-1.439031	1.570127
H	-0.099705	-2.147793	-0.068101
N	0.047167	-0.910814	-2.269525
H	-0.344442	-0.859272	-3.20007
H	1.052573	-0.817838	-2.330554
N	-0.024453	1.508918	-1.973473
O	-0.776436	2.461058	-1.796368
O	1.06966	1.574939	-2.535711
Br	-3.976411	0.0	0.0
