19

C	0.0	0.0	0.0
C	-0.550216	0.264552	-1.428907
F	1.395308	0.0	0.0
H	-1.349246	1.007646	-1.342655
C	-0.419036	1.124992	0.927488
H	0.032802	0.963516	1.909923
H	-1.506259	1.134157	1.019569
H	-0.070869	2.080587	0.530889
C	-0.431342	-1.350178	0.530086
H	-0.07491	-2.140518	-0.130297
H	0.006416	-1.477977	1.523752
H	-1.518991	-1.391615	0.609887
N	-0.962635	-0.937997	-2.111949
H	-1.875981	-1.154461	-1.711141
H	-1.122941	-0.710119	-3.08719
N	0.527701	0.956881	-2.217186
O	1.075773	0.354617	-3.136011
O	0.791491	2.108166	-1.876068
Br	-3.854113	0.0	0.0
