18
Coordinates from ORCA-job run
  C   0.86808535842826      0.12890200004818      0.02325594951899
  C   -0.61944322833662     -0.09899975351149      0.22338774789378
  F   1.09626379938539      0.49692975740212     -1.29915765604026
  H   -0.78003940782993     -0.12693767056827      1.30342031334365
  N   1.68971506879967     -0.93398077517136      0.43579164589185
  H   2.66257979531774     -0.70533739351533      0.26550913339378
  H   1.45064508264197     -1.78930714600232     -0.04561683691894
  N   1.38034044910430      1.33272138971038      0.82621295157105
  O   0.66425148913346      1.80620135810763      1.70060915391017
  O   2.51503879027422      1.70094833052469      0.54082920967838
  C   -1.03103282068997     -1.44339908868779     -0.38025264343389
  H   -0.62077430259525     -2.28966643588517      0.17494031635507
  H   -0.72095008369793     -1.51416853670981     -1.42643759559550
  H   -2.11822838698387     -1.53874949820922     -0.35127572176569
  C   -1.44423277956013      1.03429937709738     -0.38452508410392
  H   -2.49812508173238      0.88629074739934     -0.13869463515704
  H   -1.34581535533817      1.04538414819093     -1.47117200427966
  H   -1.14827838632075      2.00886918978010      0.00317575573819
