18
Coordinates from ORCA-job run
  C   0.87960181798581      0.32922061540884      0.04896546226262
  C   -0.63051809961451      0.37552936591928     -0.07360323357594
  F   1.41175182878731      1.43216287442241     -0.63484899370335
  H   -0.91813502850311      1.37895169702930      0.24967241554750
  N   1.45123646524714     -0.88619407923032     -0.33331184596202
  H   1.25729675874512     -1.09018394777868     -1.30332368337055
  H   2.44543261450502     -0.90554354345578     -0.14926224903542
  N   1.33274820600163      0.62302469050696      1.48606235523652
  O   2.38692390716434      0.11510880830140      1.85476449539910
  O   0.65008053617446      1.41220931712910      2.12834194802456
  C   -1.30079532214013     -0.65906546057989      0.82517905611817
  H   -0.97007880263258     -1.66661874311690      0.56738721074161
  H   -2.38493835907397     -0.60725794069132      0.69907929276937
  H   -1.08270464449585     -0.48140998348052      1.87922720983759
  C   -1.04106420831285      0.19257783507994     -1.53531128301670
  H   -2.10462455398672      0.41427270982705     -1.64533544595011
  H   -0.89429356805305     -0.83979262069015     -1.86644147712128
  H   -0.48791954779805      0.86200840539929     -2.19624123420167
