18
Coordinates from ORCA-job run
  C   0.89200797277575      0.29858789327127      0.03121018149504
  C   -0.61695778455713      0.39949089071791     -0.07397308323327
  F   1.45594599141833      1.37255558564275     -0.67196024237481
  H   -0.86221692515726      1.41951348106776      0.23174783272224
  N   1.41325903361505     -0.94194585330365     -0.34473905243543
  H   2.40539883654713     -1.00136938785228     -0.15773267668305
  H   1.21635288121981     -1.13654259318073     -1.31626419175997
  N   1.36806947739611      0.59026442185147      1.46044418256140
  O   2.38409380182901      0.01914403056121      1.84379563138564
  O   0.73958253340207      1.43694089828365      2.08467183882746
  C   -1.31244356841915     -0.59119920448740      0.85457573522931
  H   -2.39541300262730     -0.50609121487864      0.73711092283320
  H   -1.07866858233181     -0.39666391334818      1.90238779313532
  H   -1.01738264147431     -1.61464243991053      0.61697649836653
  C   -1.05224412178060      0.20095766344520     -1.52632905781905
  H   -0.94659247473609     -0.84296058705964     -1.83592449250887
  H   -2.10827947911756      0.45902057065717     -1.62913796770263
  H   -0.48351194800205      0.83593975852265     -2.20785985203906
