15

C	0.0	0.0	0.0
C	-0.539325	-0.033111	-1.418369
F	1.350604	0.0	0.0
H	-0.502954	0.976704	-1.828241
H	-1.601723	-0.323816	-1.298371
N	-0.557795	1.033334	0.776156
H	-0.315754	1.917787	0.340645
H	-1.594888	0.842833	0.641696
N	-0.351998	-1.327384	0.719074
O	-0.928187	-2.209286	0.097415
O	0.046831	-1.409875	1.876165
N	0.195412	-0.876584	-2.394709
O	0.093449	-0.541723	-3.579539
O	0.841609	-1.846294	-2.003852
F	-2.778468	0.0	0.0
