15

C	0.0	0.0	0.0
C	-0.523298	0.019204	-1.424918
F	1.368865	0.0	0.0
H	-1.612383	-0.093358	-1.330194
H	-0.014312	-0.731544	-2.021029
N	-0.56594	0.992524	0.767824
H	-1.611992	0.810615	0.614882
H	-0.314355	0.847296	1.73796
N	-0.288904	-1.444777	0.561139
O	-0.343394	-2.384438	-0.226143
O	-0.358474	-1.540052	1.782083
N	-0.204936	1.339231	-2.026895
O	-1.078883	2.202544	-2.028846
O	0.924707	1.484947	-2.503084
F	-2.785529	0.0	0.0
