15

C	0.0	0.0	0.0
C	-0.563144	0.098861	-1.411652
F	1.356426	0.0	0.0
H	-0.351089	1.112575	-1.755048
H	-1.642719	-0.078683	-1.308645
N	-0.585159	0.977004	0.787893
H	-1.627081	0.78426	0.619908
H	-0.361421	0.781177	1.757613
N	-0.282742	-1.442459	0.552124
O	-0.312953	-1.55873	1.774056
O	-0.368817	-2.365379	-0.250195
N	0.033457	-0.806658	-2.428828
O	1.255709	-0.793462	-2.581093
O	-0.744151	-1.466213	-3.116839
F	-2.820037	0.0	0.0
