15

C	0.0	0.0	0.0
C	-0.536389	0.013347	-1.419124
F	1.348875	0.0	0.0
H	-1.632346	0.071034	-1.306377
H	-0.179952	-0.857487	-1.958069
N	-0.565592	0.975905	0.788077
H	-1.606058	0.806754	0.634042
H	-0.312848	0.815106	1.756439
N	-0.281605	-1.459929	0.567107
O	-0.297387	-2.413272	-0.206005
O	-0.36561	-1.543105	1.788288
N	0.005971	1.198762	-2.12694
O	-0.585998	2.269482	-2.013435
O	1.025805	1.032691	-2.80409
F	-2.798655	0.0	0.0
