16

C	-0.377306	0.194776	-1.456832
C	0.0	0.0	0.0
Cl	-0.270634	-1.484559	-2.299912
H	1.091697	0.0	0.0
H	-0.387019	-0.953358	0.36224
N	-1.771871	0.564039	-1.654012
H	-1.99249	0.508118	-2.643439
H	-1.83567	1.541808	-1.385869
N	0.547388	1.106486	-2.026811
H	1.497063	0.88844	-1.705111
H	0.50731	1.102918	-3.038697
C	-0.47896	1.149899	0.880273
H	-1.568813	1.179596	0.977415
H	-0.04731	1.035049	1.878874
H	-0.125384	2.105678	0.485198
H	3.02949	0.0	0.0
