16

C	-0.358304	-0.187664	-1.472601
C	0.0	0.0	0.0
Cl	-0.345603	1.56866	-2.232387
H	1.092473	0.0	0.0
H	-0.384824	0.946322	0.384406
N	0.594849	-1.028455	-2.053895
H	1.5402	-0.774592	-1.754122
H	0.492868	-1.074365	-3.059622
N	-1.679681	-0.664138	-1.834725
H	-2.377891	-0.063162	-1.413731
H	-1.769868	-1.59405	-1.439241
C	-0.461462	-1.177108	0.854651
H	-1.551185	-1.234287	0.961669
H	-0.02686	-1.082858	1.854209
H	-0.095505	-2.115222	0.42966
H	3.017245	0.0	0.0
