16

C	-0.359348	0.208192	-1.468073
C	0.0	0.0	0.0
Cl	-0.241381	-1.509682	-2.274564
H	1.092474	0.0	0.0
H	-0.379561	-0.956758	0.364156
N	-1.704728	0.625394	-1.820268
H	-2.366793	-0.031855	-1.423257
H	-1.848181	1.529993	-1.383759
N	0.551097	1.12389	-2.014826
H	1.505386	0.911251	-1.709553
H	0.470469	1.171315	-3.021439
C	-0.471706	1.154798	0.876807
H	-0.023267	1.055352	1.869363
H	-1.560885	1.189313	0.998553
H	-0.132236	2.106524	0.461454
H	3.011989	0.0	0.0
