18

C	-0.514345	-0.054165	-1.433014
C	0.0	0.0	0.0
F	-0.054765	1.086391	-2.104961
H	1.10186	0.0	0.0
C	0.023523	-1.229232	-2.149261
N	0.340974	-2.189132	-2.746588
C	-2.030828	-0.049083	-1.553851
H	-2.408562	0.779155	-0.954866
H	-2.312046	0.080735	-2.601825
H	-2.452578	-0.987276	-1.188877
C	-0.478681	-1.184316	0.819914
H	0.090817	-1.208736	1.753387
H	-1.544997	-1.112342	1.05767
H	-0.284594	-2.129905	0.307604
N	-0.498891	1.258232	0.59404
H	-0.258115	1.211317	1.58045
H	0.102007	1.989222	0.220548
H	2.936792	0.0	0.0
