18

C	-0.353281	-0.045442	-1.482507
C	0.0	0.0	0.0
F	-1.757699	-0.180937	-1.652048
H	1.096576	0.0	0.0
C	-0.026503	1.251278	-2.113045
N	0.183869	2.286522	-2.626097
C	0.343604	-1.168738	-2.220784
H	0.170753	-1.092094	-3.296661
H	-0.042943	-2.12617	-1.869431
H	1.413909	-1.104014	-1.994576
C	-0.492873	-1.234194	0.740172
H	-0.041902	-2.150731	0.352693
H	-0.190236	-1.126863	1.782778
H	-1.583443	-1.323647	0.699191
N	-0.473357	1.209226	0.669651
H	0.212202	1.942485	0.525443
H	-1.355699	1.515944	0.274572
H	2.916328	0.0	0.0
