18

C	-0.527981	0.058109	-1.427809
C	0.0	0.0	0.0
F	-0.061711	1.239919	-2.018739
H	1.097845	0.0	0.0
C	-0.012395	-1.06574	-2.236928
N	0.324392	-1.973523	-2.900895
C	-2.045303	0.090576	-1.529021
H	-2.407957	0.868381	-0.858542
H	-2.336211	0.310836	-2.558497
H	-2.474693	-0.869809	-1.240616
C	-0.474814	-1.242846	0.730311
H	-1.548103	-1.21036	0.946087
H	0.071054	-1.314262	1.676171
H	-0.24224	-2.148773	0.163853
N	-0.492745	1.209511	0.693083
H	0.072038	1.974684	0.33093
H	-0.18684	1.110377	1.658313
H	2.943175	0.0	0.0
