15

C	0.0	0.0	0.0
C	-0.48191	0.059744	-1.447347
F	1.415581	0.0	0.0
H	-1.577001	0.073317	-1.377545
H	-0.075371	-0.79317	-1.983189
N	-0.459168	1.159073	0.701686
H	-0.263173	1.012714	1.687478
H	-1.485833	1.068074	0.581705
N	-0.441629	-1.287095	0.487699
H	-1.463722	-1.147534	0.513064
H	-0.096472	-1.387184	1.437973
N	-0.007614	1.271214	-2.152688
O	1.049021	1.183764	-2.785682
O	-0.691926	2.290501	-2.08597
F	-2.821474	0.0	0.0
