15

C	0.0	0.0	0.0
C	-0.456317	-0.028418	-1.457899
F	1.420217	0.0	0.0
H	-1.549136	-0.069869	-1.42322
H	-0.05576	0.847186	-1.961778
N	-0.459409	1.261663	0.523192
H	-0.210323	1.285085	1.51025
H	-1.486295	1.118743	0.472796
N	-0.447354	-1.194369	0.652254
H	-1.47343	-1.095616	0.574246
H	-0.193698	-1.129127	1.634746
N	0.072726	-1.211627	-2.173364
O	-0.617869	-2.228716	-2.206976
O	1.179952	-1.105395	-2.708896
F	-2.814003	0.0	0.0
