15

C	0.0	0.0	0.0
C	-0.539505	0.069169	-1.419718
F	1.410484	0.0	0.0
H	-0.364451	-0.86751	-1.947442
H	-1.633926	0.231395	-1.223221
N	-0.378059	1.16199	0.748738
H	0.121186	1.960791	0.384326
H	-0.111611	0.982361	1.708066
N	-0.560257	-1.122069	0.673968
H	-1.589055	-0.871712	0.593276
H	-0.39085	-1.955505	0.119348
N	0.035804	1.118926	-2.289969
O	0.268174	2.233663	-1.819471
O	0.226939	0.830012	-3.47394
F	-2.870862	0.0	0.0
