15

C	0.0	0.0	0.0
C	-0.173809	-0.127096	-1.542056
F	1.421404	0.0	0.0
H	0.381096	0.698177	-1.982976
H	0.255979	-1.083771	-1.838528
N	-0.480509	1.261714	0.443987
H	-0.320339	1.282575	1.447428
H	-1.50485	1.132063	0.30656
N	-0.467171	-1.085957	0.792574
H	-0.211846	-1.965012	0.353733
H	-1.496593	-0.953952	0.696526
N	-1.524953	-0.082964	-2.165806
O	-1.958843	1.022599	-2.475159
O	-2.045877	-1.157181	-2.456687
F	-2.732289	0.0	0.0
