15

C	0.0	0.0	0.0
C	-0.463234	-0.101889	-1.452451
F	1.411721	0.0	0.0
H	-1.556998	-0.124409	-1.408265
H	-0.048816	0.736237	-2.006763
N	-0.456406	1.291274	0.458104
H	-0.163974	1.382634	1.428224
H	-1.482958	1.143941	0.446607
N	-0.455736	-1.153686	0.716566
H	-0.212576	-1.019421	1.694617
H	-1.48285	-1.045229	0.629182
N	0.040789	-1.333054	-2.103368
O	1.149055	-1.277373	-2.645308
O	-0.668727	-2.337276	-2.080594
F	-2.815987	0.0	0.0
