15

C	0.0	0.0	0.0
C	-0.454099	0.202665	-1.45649
F	1.378772	0.0	0.0
H	-1.538484	0.354496	-1.387274
H	-0.180557	-0.663873	-2.049758
N	-0.449374	1.002093	0.925176
H	-0.201372	1.917158	0.564769
H	-1.473854	0.902791	0.851721
N	-0.496586	-1.297097	0.361774
H	-0.308111	-1.38129	1.357694
H	-1.521215	-1.148339	0.276536
N	0.208213	1.359418	-2.093851
O	0.022858	2.480239	-1.612263
O	0.917307	1.151058	-3.082361
F	-2.826373	0.0	0.0
