15

C	0.0	0.0	0.0
C	-0.259494	-0.226389	-1.50628
F	1.407477	0.0	0.0
H	0.499248	0.358169	-2.024462
H	-0.13652	-1.287456	-1.704941
N	-0.445705	1.293736	0.41524
H	-1.474691	1.167207	0.347326
H	-0.207394	1.392114	1.39976
N	-0.454432	-1.146585	0.739228
H	-0.271511	-0.951639	1.720286
H	-1.483117	-1.030902	0.603661
N	-1.539955	0.17465	-2.154143
O	-2.184822	-0.717074	-2.701213
O	-1.774605	1.373037	-2.249998
F	-2.710593	0.0	0.0
