16

C	-0.267295	0.097209	-1.50793
C	0.0	0.0	0.0
Br	-2.156591	0.589416	-1.90396
H	1.094297	0.0	0.0
C	0.700101	1.044898	-2.218039
H	0.658576	0.878848	-3.295708
H	1.687965	0.806886	-1.804557
H	0.451999	2.077031	-1.988905
C	-0.097858	-1.243064	-2.070615
N	0.04886	-2.286764	-2.59198
C	-0.577782	-1.176033	0.612653
N	-1.012082	-2.155904	1.097451
N	-0.393289	1.209901	0.763006
O	-0.288817	2.298032	0.201517
O	-0.727073	1.056642	1.936754
F	2.474384	0.0	0.0
