16

C	-0.300576	-0.055805	-1.51296
C	0.0	0.0	0.0
Br	0.171848	1.687378	-2.293729
H	1.092234	0.0	0.0
C	0.635357	-1.111289	-2.103526
H	0.323943	-2.098136	-1.749557
H	1.636047	-0.886186	-1.714832
H	0.594692	-1.092403	-3.193654
C	-1.698207	-0.299626	-1.861972
N	-2.795041	-0.562707	-2.192797
C	-0.52844	-1.18495	0.648164
N	-0.928432	-2.169601	1.151711
N	-0.611724	1.205544	0.638993
O	-1.842175	1.280494	0.625082
O	0.146565	2.039445	1.119923
F	2.524697	0.0	0.0
