16

C	-0.31792	-0.047027	-1.497416
C	0.0	0.0	0.0
Br	0.433497	1.537657	-2.391556
H	1.11538	0.0	0.0
C	0.429333	-1.257706	-2.064945
H	-0.012628	-2.179721	-1.679955
H	1.462547	-1.166233	-1.71967
H	0.376396	-1.26047	-3.153664
C	-1.744818	-0.090809	-1.80766
N	-2.885811	-0.221093	-2.063388
C	-0.459468	-1.202725	0.663686
N	-0.80846	-2.20574	1.170968
N	-0.54171	1.166377	0.737103
O	-1.244277	1.977972	0.132903
O	-0.2306	1.241039	1.924484
F	2.469399	0.0	0.0
