16

C	-0.305523	-0.02016	-1.511629
C	0.0	0.0	0.0
Br	0.205379	1.724967	-2.264984
H	1.110074	0.0	0.0
C	0.600565	-1.087672	-2.126877
H	1.611504	-0.882102	-1.756497
H	0.276158	-2.072913	-1.781597
H	0.545706	-1.056503	-3.215778
C	-1.712718	-0.215969	-1.849622
N	-2.831804	-0.420273	-2.14847
C	-0.541018	-1.194438	0.617732
N	-0.952937	-2.186856	1.095198
N	-0.601445	1.196556	0.664715
O	-1.833012	1.249345	0.712691
O	0.164436	2.046963	1.102957
F	2.516753	0.0	0.0
