15

C	-0.331219	-0.006995	-1.469984
C	0.0	0.0	0.0
Cl	-2.109255	0.16434	-1.77126
H	1.095285	0.0	0.0
H	0.123855	0.884825	-1.898728
C	0.191639	-1.265353	-2.127391
H	1.260011	-1.33645	-1.899751
H	0.043734	-1.220134	-3.208235
H	-0.321229	-2.147634	-1.740036
C	-0.50608	-1.144053	0.720735
N	-0.847294	-2.140464	1.244808
N	-0.352318	1.252226	0.664025
O	-0.218468	2.285242	-0.001403
O	-0.617716	1.222855	1.869822
H	2.450994	0.0	0.0
