15

C	-0.503711	0.000394	-1.436342
C	0.0	0.0	0.0
Cl	0.183895	1.389528	-2.338824
H	1.091415	0.0	0.0
H	-0.061358	-0.893453	-1.891395
C	-2.013884	0.023185	-1.609414
H	-2.471145	-0.797759	-1.051239
H	-2.27245	-0.069845	-2.667821
H	-2.423543	0.960661	-1.231997
C	-0.5166	-1.156829	0.697514
N	-0.922256	-2.131507	1.219416
N	-0.482131	1.228734	0.722821
O	0.299589	2.185571	0.785958
O	-1.638049	1.214627	1.19468
H	2.623622	0.0	0.0
