15

C	-0.310589	-0.003915	-1.474815
C	0.0	0.0	0.0
Cl	-2.086342	0.135168	-1.804452
H	1.095321	0.0	0.0
H	0.134201	0.899198	-1.890906
C	0.25309	-1.246879	-2.127358
H	1.31582	-1.299557	-1.866901
H	0.13896	-1.19532	-3.212182
H	-0.253882	-2.142151	-1.761897
C	-0.503631	-1.150903	0.711134
N	-0.849586	-2.147473	1.231665
N	-0.360104	1.246017	0.668958
O	-0.611391	1.208994	1.878707
O	-0.249536	2.283016	0.005558
H	2.450466	0.0	0.0
