15

C	-0.471484	0.251415	-1.440969
C	0.0	0.0	0.0
Cl	-0.497967	-1.31273	-2.336204
H	1.091595	0.0	0.0
H	-1.50486	0.604143	-1.43853
C	0.442681	1.210503	-2.183419
H	1.46879	0.843654	-2.140464
H	0.117144	1.30903	-3.221176
H	0.405708	2.186149	-1.701101
C	-0.460953	-1.235374	0.595959
N	-0.797305	-2.255815	1.074319
N	-0.371786	1.103248	0.883819
O	-0.746511	2.172928	0.373163
O	-0.169157	0.942806	2.09306
H	2.457762	0.0	0.0
