14
Coordinates from ORCA-job run
  C   -0.68803592857064      0.05332040897920     -0.42427683399358
  C   0.79923342716177     -0.11863399574357     -0.05602203141590
  H   -0.71444115677378      0.57362553763778     -1.39545803562478
  H   1.21255884346832     -0.86540457480540     -0.75323351689489
  C   -1.34385127041957      0.93360806672717      0.54701043847742
  N   -1.90591584724331      1.63942609298962      1.29734469706895
  N   -1.33457032249567     -1.25341511812484     -0.43137509655531
  H   -2.33969230102035     -1.15935047851610     -0.36123623352249
  H   -1.12402746265356     -1.73888890810261     -1.29496567912205
  C   0.91740819373025     -0.68423960736612      1.29102111781899
  N   1.05709943653477     -1.14282512226542      2.36213325264538
  N   1.46071006441409      1.17935569965082     -0.11334251711677
  H   2.32910742318341      1.16531791318868      0.40600920359829
  H   1.67341690068427      1.41710408575078     -1.07460876536328
