19

C	-0.012222	-0.028863	0.016488
C	-0.469755	-0.142151	-1.462746
F	1.385178	0.121267	-0.019206
H	-1.499273	-0.504605	-1.454647
N	-0.537064	1.125958	0.680276
H	-1.559611	1.075117	0.639855
H	-0.259819	1.956185	0.168883
C	-0.345204	-1.261953	0.823633
H	0.049272	-1.114715	1.829788
H	0.08774	-2.157471	0.379849
H	-1.430949	-1.368145	0.870479
N	0.349324	-1.195386	-2.141704
O	-0.017478	-2.366911	-2.020756
O	1.352803	-0.846045	-2.764127
C	-0.375353	1.159941	-2.228835
H	-1.187471	1.805365	-1.894953
H	-0.509055	0.979878	-3.296958
H	0.593703	1.638932	-2.081251
Cl	-3.631459	0.57836	-0.304864
