15

C	0.0	0.0	0.0
C	-0.448023	-0.027456	-1.501749
F	1.383775	0.0	0.0
H	0.508073	-0.051727	-2.043879
C	-0.399268	1.255316	0.753726
H	0.01559	1.187537	1.761817
H	-1.482859	1.342448	0.787329
H	0.045461	2.114533	0.245208
C	-0.394291	-1.231202	0.703501
N	-0.54642	-2.25035	1.267383
C	-1.114779	1.200974	-1.94105
N	-1.455745	2.22902	-2.395341
C	-1.168591	-1.230055	-1.92772
N	-1.567233	-2.230282	-2.396358
Cl	-3.267126	0.0	0.0
