15

C	0.0	0.0	0.0
C	-0.444605	-0.026932	-1.501667
F	1.383693	0.0	0.0
H	0.512438	-0.033835	-2.043461
C	-0.394967	1.256954	0.753992
H	0.038389	1.19499	1.754956
H	0.035637	2.116822	0.234488
H	-1.477768	1.340111	0.805514
C	-0.400501	-1.224015	0.713802
N	-0.476259	-2.198798	1.365656
C	-1.129091	1.191836	-1.943591
N	-1.485492	2.216598	-2.391978
C	-1.142933	-1.241819	-1.927628
N	-1.506832	-2.256863	-2.393647
Cl	-3.248427	0.0	0.0
