15

C	0.0	0.0	0.0
C	-0.442718	0.214779	-1.489369
F	1.383427	0.0	0.0
H	0.513701	0.205912	-2.033238
C	-0.401344	1.108667	0.953207
H	-1.485342	1.18183	1.002647
H	0.035443	2.043982	0.596138
H	0.016536	0.874337	1.934361
C	-0.395166	-1.330474	0.492077
N	-0.501333	-2.413681	0.935056
C	-1.031655	1.532655	-1.739356
N	-1.341518	2.633226	-2.009412
C	-1.229058	-0.868564	-2.083779
N	-1.614982	-1.802233	-2.683575
Cl	-3.264641	0.0	0.0
