15

C	0.0	0.0	0.0
C	-0.577769	-0.09497	-1.423086
F	1.380126	0.0	0.0
H	-1.686521	-0.124829	-1.255706
C	-0.457031	1.261497	0.70716
H	-0.044956	1.260019	1.717899
H	-0.067836	2.127066	0.166474
H	-1.547012	1.287081	0.743849
C	-0.393317	-1.213438	0.747051
N	-0.578192	-2.192749	1.368304
C	-0.129846	-1.305929	-2.111072
N	0.230871	-2.276397	-2.665313
C	-0.227049	1.085573	-2.211719
N	0.05758	2.037645	-2.837387
Cl	-3.528901	0.0	0.0
