15

C	0.0	0.0	0.0
C	-0.448766	0.011492	-1.501131
F	1.383618	0.0	0.0
H	0.507013	0.00597	-2.044737
C	-0.399564	1.234026	0.787182
H	0.033085	2.108779	0.295578
H	0.025535	1.145129	1.789131
H	-1.483384	1.31213	0.832601
C	-0.394132	-1.248423	0.673641
N	-0.539533	-2.27622	1.223559
C	-1.121319	1.24738	-1.909797
N	-1.471484	2.280981	-2.344385
C	-1.163629	-1.182861	-1.957963
N	-1.557112	-2.173518	-2.451083
Cl	-3.26291	0.0	0.0
