15

C	0.0	0.0	0.0
C	-0.576689	-0.190386	-1.413263
F	1.380049	0.0	0.0
H	-1.684898	-0.206642	-1.242511
C	-0.455042	1.306804	0.618783
H	-0.063386	2.133841	0.022454
H	-0.045222	1.373339	1.628371
H	-1.544582	1.335172	0.650721
C	-0.39215	-1.160403	0.826657
N	-0.571516	-2.118993	1.48029
C	-0.13081	-1.444843	-2.017942
N	0.227033	-2.448605	-2.511263
C	-0.22411	0.934548	-2.278586
N	0.054526	1.838482	-2.974441
Cl	-3.518	0.0	0.0
