16

C	0.0	0.0	0.0
C	-0.518124	-0.333411	-1.416766
F	1.381009	0.0	0.0
H	-1.622935	-0.28653	-1.334923
N	-0.450658	1.331864	0.290756
H	-1.473234	1.300568	0.342593
H	-0.10158	1.59215	1.207945
C	-0.432352	-1.066543	0.991242
H	-0.106328	-0.753289	1.986587
H	-1.521073	-1.148914	0.984672
H	0.026301	-2.030111	0.758466
C	-0.123566	-1.677139	-1.842323
N	0.184226	-2.756602	-2.188384
C	-0.048063	0.65141	-2.394467
N	0.32152	1.433455	-3.187855
Cl	-3.57981	0.0	0.0
