16

C	0.0	0.0	0.0
C	-0.466608	-0.323508	-1.455544
F	1.386447	0.0	0.0
H	-1.571348	-0.345564	-1.390799
N	-0.462672	1.267844	0.454873
H	-0.246085	1.992766	-0.221537
H	-1.477608	1.207577	0.551987
C	-0.439597	-1.099004	0.944484
H	-0.099021	-0.824135	1.944167
H	-1.525636	-1.187167	0.93763
H	0.024049	-2.044316	0.656702
C	0.035708	-1.610146	-1.936512
N	0.423631	-2.651005	-2.31753
C	-0.055255	0.742542	-2.369688
N	0.251166	1.624385	-3.082078
Cl	-3.572376	0.0	0.0
