16

C	0.0	0.0	0.0
C	-0.323451	0.30764	-1.535687
F	1.388912	0.0	0.0
H	0.624756	0.111987	-2.05329
N	-0.480552	0.932968	0.94979
H	-0.283193	1.883386	0.654579
H	-1.497535	0.818398	0.987858
C	-0.429178	-1.404479	0.361995
H	0.006321	-2.118875	-0.340162
H	-1.516748	-1.478431	0.345131
H	-0.051015	-1.609076	1.365126
C	-0.620001	1.723342	-1.749103
N	-0.73734	2.883291	-1.88601
C	-1.296312	-0.57372	-2.185496
N	-1.866575	-1.356943	-2.849148
Cl	-3.524975	0.0	0.0
