12
Coordinates from ORCA-job run
  C   0.39429447218963      0.42845776600102     -0.51118693694847
  C   -0.47523313444428     -0.43835033774987      0.36730228261110
  F   0.20815411568943      1.73950538711404     -0.20740483929785
  H   -0.16679297561392     -0.27172784130905      1.41029326926289
  H   0.20893123869339      0.26863882699048     -1.57299606723806
  H   -0.27836727766984     -1.48052751267122      0.11243227293725
  N   1.84160543673804      0.07817232265524     -0.26702163475301
  O   2.17253556663572     -1.02434684488825     -0.69419326921476
  O   2.54277902089126      0.87272897948327      0.34281720567537
  N   -1.86339318141889     -0.11781459333571      0.07246690661521
  H   -2.10919882073013      0.76929875331233      0.49159948720923
  H   -2.47531446096040     -0.82403490560229      0.45789132314112
