12
Coordinates from ORCA-job run
  C   0.60801302554219     -0.58287190516697     -0.43577823613373
  C   -0.85540349615031     -0.28269237340800     -0.26224098767047
  F   0.90309816520750     -0.88910715818827     -1.73549861509009
  H   -1.39401677650628     -1.21074944262312     -0.46877682329609
  H   0.96601439061583     -1.37344462904313      0.22130148255596
  H   -1.15143745272521      0.45744481568193     -1.01209965706474
  N   1.43892037522304      0.63207324694800     -0.09456227134293
  O   2.56552808798235      0.41860854890599      0.34249049205139
  O   0.94730857336571      1.73532728626694     -0.32682827036569
  N   -1.06225189335274      0.12168414943561      1.12207526961340
  H   -0.98782887811618      1.12671751111182      1.20255997104596
  H   -1.97794412108589     -0.15299004992080      1.44635764569704
