15
Coordinates from ORCA-job run
  C   0.83124027362461      0.09291686312269      0.43764976968732
  C   -0.46906468171226     -0.66091545245036      0.07737427191883
  F   1.71366686923021     -0.91594446672554      0.86314440261337
  H   -0.63574971832597     -1.42308333035486      0.83724984899080
  C   0.68395694619615      1.01075426169651      1.58116995311699
  N   0.64088958488674      1.75046098248013      2.49168072773426
  N   1.30508180304336      0.79782432376063     -0.68416865512136
  H   2.10890534420152      1.36988877282424     -0.46102635163954
  H   1.53029499348888      0.13897651518234     -1.42071332860904
  N   -0.35441340626940     -1.21815316233823     -1.22403265165695
  H   -0.62121410030830     -0.52063823882043     -1.91040758848664
  H   -0.95104084202772     -2.02686279216794     -1.32902899776544
  N   -1.64605048640320      0.30177514841284      0.21044995128212
  O   -2.03215539908307      0.86224245835108     -0.81055000981260
  O   -2.10534718054154      0.44175811702689      1.34020865774786
