15
Coordinates from ORCA-job run
  C   0.62250468562044      0.44959789039055      0.29270795617624
  C   -0.52647480607793     -0.31917222701058     -0.40965150819089
  F   -0.00305999728455      1.32372102571300      1.20116865960155
  H   -0.10091022069555     -0.95608601641594     -1.18561826122134
  C   1.24867252335321      1.31981785179798     -0.72545660793503
  N   1.75058125199817      1.96793933353252     -1.56674504885524
  N   1.54634837938938     -0.37818287051308      0.92380465402798
  H   1.37584663232663     -1.36949024338155      0.92043256919415
  H   2.50884675775030     -0.09265711554289      0.93623081165990
  N   -1.57884112798610      0.47889115653536     -0.92614047164052
  H   -1.83869817902283      1.21318547019147     -0.28235685763370
  H   -1.34588004891241      0.86156462704081     -1.83112830791870
  N   -1.09408333893107     -1.26769651181953      0.62677879030077
  O   -2.04026495203103     -0.87463337717402      1.29194367835095
  O   -0.52458755949666     -2.35579899334409      0.73502994408387
