15
Coordinates from ORCA-job run
  C   0.81197190980139      0.00796344287322      0.43978210455410
  C   -0.53995679182398     -0.56516731143738     -0.02959286467764
  F   1.68317704775920     -1.10598523925951      0.31514195348182
  H   -0.86334285826085     -1.34141057188030      0.67257420078611
  C   0.85688472965115      0.37462149355164      1.86367380749413
  N   0.96861455610846      0.63718927275141      3.00223562657874
  N   1.15747101329756      1.09219650654727     -0.37107358919139
  H   2.05462055081990      1.49421555887185     -0.13784963338404
  H   1.09712301346946      0.82427232967339     -1.34661803759381
  N   -0.38901099431935     -0.96884878133149     -1.40049107909802
  H   -0.05978892936809     -1.92319828555305     -1.44573713241461
  H   -1.26632525539879     -0.87469457955476     -1.89468686634895
  N   -1.58112079857153      0.52026077139702      0.07553485278736
  O   -2.12876065986902      0.90259697723976     -0.95241772409351
  O   -1.80155653329551      0.92498841611093      1.21052438111970
