15
Coordinates from ORCA-job run
  C   0.62363206948163      0.53169006499980      0.26551861466999
  C   -0.51269630254638     -0.27743574313859     -0.43709539509496
  F   -0.00294680827527      1.43643365618240      1.10107670087697
  H   -0.09741278382517     -0.80486146366415     -1.29696102275283
  C   1.31824713682923      1.28914587051731     -0.79325637826144
  N   1.83986039952027      1.85492832920343     -1.67801320216222
  N   1.58055860486962     -0.17390593428428      1.03875591893537
  H   1.15048873083996     -0.75750497199850      1.74180294393639
  H   2.23473635519145     -0.70719146743596      0.48491727460945
  N   -1.66527046305422      0.46718141391611     -0.81023998727290
  H   -1.84361034381234      1.22019573557482     -0.16152831729986
  H   -1.61210281260152      0.81338059023130     -1.75422537907478
  N   -0.92060382164318     -1.36780721289205      0.52270345686002
  O   -1.54372431940997     -1.01516886766554      1.51879201053473
  O   -0.54815564156411     -2.50907999954609      0.25675276149608
