15
Coordinates from ORCA-job run
  C   0.80679386415420      0.00528921265875      0.55147999848741
  C   -0.40852866861234     -0.63414094802949     -0.14080482039674
  F   1.02023448103294     -0.54152435972086      1.79231702608809
  H   -0.26933063087692     -1.71677003008542     -0.10532842754504
  C   0.53512895042626      1.45647723443864      0.76285849106808
  N   0.32488015298123      2.61174557789737      0.82437351963496
  N   1.94762942907425     -0.27270502133462     -0.24774834276979
  H   2.76687088749180      0.22102652754141      0.08051277778600
  H   1.76401765777349     -0.10206899954996     -1.22678590026979
  N   -0.51029027906598     -0.15831143682130     -1.47190472680320
  H   -0.79069294573159      0.81600438452500     -1.48057777033084
  H   -1.19897229078603     -0.68246935217210     -1.99458247624632
  N   -1.68605656883276     -0.38403966098698      0.69219853361502
  O   -2.64293134222259      0.10177959146206      0.09466160636622
  O   -1.65975269680595     -0.71929271982250      1.86833051131591
