20

C	0.0	0.0	0.0
C	-0.555703	-0.100699	-1.42622
F	1.399967	0.0	0.0
H	-1.642162	-0.23054	-1.253009
C	-0.49816	1.290632	0.621177
H	-0.182523	1.325639	1.668531
H	-0.087138	2.165262	0.110733
H	-1.593723	1.238721	0.549476
C	-0.47195	-1.176955	0.832832
H	-0.098483	-1.060406	1.855029
H	-1.567172	-1.132504	0.80471
H	-0.103547	-2.124519	0.433929
N	-0.023897	-1.336672	-2.072092
O	1.065433	-1.268396	-2.651875
O	-0.692501	-2.367137	-1.988301
C	-0.23292	1.088822	-2.31155
H	-0.458561	0.862336	-3.354526
H	-0.859008	1.927168	-2.00976
H	0.818636	1.368947	-2.243317
F	-2.989547	0.0	0.0
