20

C	0.0	0.0	0.0
C	-0.278004	0.058359	-1.541549
F	1.403741	0.0	0.0
H	-0.116691	-0.950919	-1.929088
C	-0.5373	1.196371	0.744913
H	-0.216948	1.142296	1.791162
H	-0.171447	2.126842	0.309177
H	-1.631729	1.120109	0.683063
C	-0.57972	-1.274403	0.554501
H	-0.188888	-2.150057	0.028242
H	-0.341007	-1.363549	1.618767
H	-1.669924	-1.168316	0.429266
N	0.84516	0.829186	-2.194231
O	0.924189	2.035761	-1.976122
O	1.610338	0.212765	-2.935203
C	-1.585167	0.640805	-2.034831
H	-2.425748	0.263869	-1.415939
H	-1.689291	0.415803	-3.102297
H	-1.559912	1.724509	-1.903264
F	-3.257009	0.0	0.0
