20

C	0.0	0.0	0.0
C	-0.253325	-0.05828	-1.539512
F	1.403916	0.0	0.0
H	0.096605	-1.043552	-1.85559
C	-0.556882	1.230202	0.672473
H	-1.650131	1.139118	0.595968
H	-0.25863	1.230909	1.726292
H	-0.19796	2.142182	0.196419
C	-0.565631	-1.245992	0.635781
H	-0.280064	-1.284895	1.69167
H	-1.658756	-1.150749	0.549346
H	-0.199068	-2.149147	0.138766
N	0.740784	0.855227	-2.219185
O	0.607111	2.070461	-2.080404
O	1.620445	0.334736	-2.907551
C	-1.626831	0.247166	-2.090464
H	-1.781355	1.327069	-2.091984
H	-2.421724	-0.140297	-1.420935
H	-1.691557	-0.124522	-3.118997
F	-3.284352	0.0	0.0
