20

C	0.0	0.0	0.0
C	-0.222603	-0.009497	-1.543682
F	1.408304	0.0	0.0
H	0.324612	0.870222	-1.892027
C	-0.515425	1.265608	0.634069
H	-0.166534	2.148306	0.090962
H	-1.612874	1.166095	0.589413
H	-0.162818	1.317678	1.669933
C	-0.520056	-1.226235	0.702415
H	-0.117817	-2.144456	0.267486
H	-0.229246	-1.185734	1.757456
H	-1.616732	-1.14722	0.598075
N	-1.611124	0.241331	-2.073662
O	-2.244515	-0.712685	-2.508187
O	-1.935832	1.419845	-2.189067
C	0.338901	-1.249074	-2.220286
H	0.328505	-1.12092	-3.305743
H	-0.256711	-2.128417	-1.984421
H	1.367521	-1.398243	-1.892097
F	-2.919933	0.0	0.0
