20

C	0.0	0.0	0.0
C	-0.557703	-0.089909	-1.425299
F	1.399791	0.0	0.0
H	-1.646831	-0.205204	-1.250152
C	-0.497653	1.287264	0.62977
H	-1.592914	1.23511	0.557499
H	-0.182213	1.31656	1.676643
H	-0.085287	2.164235	0.124759
C	-0.47197	-1.180404	0.827601
H	-0.097777	-2.125575	0.430068
H	-1.5672	-1.139769	0.794074
H	-0.103696	-1.063728	1.85137
N	-0.043609	-1.337676	-2.068626
O	-0.723294	-2.363058	-1.971521
O	1.041885	-1.284499	-2.658046
C	-0.208971	1.092978	-2.309808
H	-0.816484	1.949017	-2.011976
H	0.850407	1.347139	-2.235606
H	-0.436415	0.869786	-3.355371
F	-2.991642	0.0	0.0
