14
Coordinates from ORCA-job run
  C   -0.07302390761705      0.37672415542025      0.62108463110868
  C   0.90424447122578     -0.79429666950655      0.48162346768605
  Cl  0.80128998243536      1.74468939519285      1.39274228725058
  H   1.27382527914444     -1.08178669173896      1.46895227682163
  H   0.36289333370771     -1.65460843243333      0.07040881358283
  C   -1.22601272803743     -0.00857627899493      1.54091165167425
  H   -1.90452035469777      0.83798863510122      1.66083326854593
  H   -0.87175614763934     -0.30791811877867      2.52945795127942
  H   -1.78312276243158     -0.83965704616100      1.09701860207030
  N   -0.45969802380051      0.81504435484532     -0.70072033507460
  H   -0.97816815825003      0.07794476185211     -1.16733509328933
  H   -1.05189800564113      1.63524961789921     -0.64063252918956
  C   2.03862404544062     -0.49650687774705     -0.38917458597611
  N   2.96632297616093     -0.30329080495046     -1.08017040649007
