14
Coordinates from ORCA-job run
  C   -0.17318151068439      0.50530599535330      0.48894044132898
  C   0.88335261659181     -0.38922900599695     -0.19278712558187
  Cl  0.71167613990161      1.92048260997546      1.16296028816891
  H   1.40884644325768      0.19406367748359     -0.95412548658880
  H   0.35965072937587     -1.20721781300245     -0.69976595465188
  C   -0.88062431409236     -0.21564670987826      1.61938674729319
  H   -1.61656032880368      0.45429759341754      2.06323489016172
  H   -1.39544940174833     -1.09996266372658      1.22890638902764
  H   -0.17436260119201     -0.53511334602385      2.38534718575566
  N   -1.15139789774273      1.01933077989866     -0.43819669794999
  H   -0.70754348105359      1.47210753833322     -1.22872392429998
  H   -1.74473393941187      0.26847005649965     -0.77231995318894
  C   1.85835657643167     -0.95909480903958      0.73296238024630
  N   2.62297096917030     -1.42879390329374      1.48918082027906
