14
Coordinates from ORCA-job run
  C   0.70919194822140      0.41593318677495     -0.04037153080321
  C   -0.44166374259947     -0.24565506888898      0.74856120391710
  Br  2.31462529585151      0.24395390098911      1.19699348090090
  H   -0.58372088688361      0.27155200794285      1.69864219236530
  C   0.50148963362106      1.85569721367940     -0.17695064837880
  N   0.36733231762851      3.01463974087305     -0.32149397459485
  N   0.85217528448224     -0.18247310368439     -1.29909300326966
  H   1.53698906387724      0.27561738130558     -1.88566754064664
  H   1.01969495121248     -1.18079583691901     -1.25432515173453
  C   -0.19868605364435     -1.66776012473795      0.94326684098616
  N   0.00578788049274     -2.81566255694556      1.08683612686173
  N   -1.72880456176257     -0.05335622466137     -0.04200661901298
  O   -2.27796972910730      1.02816052048515      0.13360374201288
  O   -2.07744140138987     -0.95685103621282     -0.78799511860339
