14
Coordinates from ORCA-job run
  C   0.65643931021016      0.44529560579402     -0.08566134918396
  C   -0.35877433886632     -0.45534134249623      0.65202870334588
  Br  1.20600864799059      1.86450195207431      1.13521186002717
  H   0.13121065280876     -0.83791207924909      1.54847641844107
  C   0.07868204363946      1.08131105311682     -1.27643140765137
  N   -0.27726348797218      1.54809005165897     -2.29632755395112
  N   1.80977888475418     -0.38287365592803     -0.36175832556902
  H   1.59048042641762     -1.03482365314870     -1.11109088569647
  H   2.58586516366878      0.19610251547978     -0.66344864364278
  C   -0.78128412913864     -1.53843390621512     -0.22768261744201
  N   -1.06268445754118     -2.41317210484793     -0.95996231713059
  N   -1.57182559517618      0.32029389609877      1.10612120374515
  O   -2.30945440109394      0.74243076798718      0.22305694755183
  O   -1.69717871970110      0.46253089967525      2.31646796715623
