14
Coordinates from ORCA-job run
  C   0.78154940321602      0.39246487621722      0.00599140134437
  C   -0.45459932359086     -0.13664477134057      0.76451978140367
  Br  2.16251877159772      0.67643760536885      1.37224742881586
  H   -0.68240902270152      0.51832208109756      1.60680430281322
  C   0.45584167078418      1.71705124969579     -0.54840557666958
  N   0.18578703629652      2.74538737001987     -1.05293323105548
  N   1.27413827713909     -0.57189456169695     -0.92750956362924
  H   2.11047356290453     -0.23497930551009     -1.38892798334401
  H   0.55901327994506     -0.79024825226460     -1.61327130549791
  C   -0.27255178319294     -1.51316505682282      1.20651599567891
  N   -0.17249253316930     -2.61909299058966      1.58890181775747
  N   -1.68602741647448     -0.07479804462810     -0.12685922146211
  O   -1.58372079310110     -0.56310139912552     -1.24784695029087
  O   -2.67752112965293      0.45226119957903      0.35877310413570
