12

C	0.0	0.0	0.0
C	-0.542965	0.211567	-1.395059
Cl	1.785098	0.0	0.0
H	-1.643818	0.220654	-1.305181
H	-0.343518	0.801918	0.650529
H	-0.201642	-0.545426	-2.097461
C	-0.425396	-1.298024	0.524099
N	-0.610664	-2.372941	0.957213
N	-0.124014	1.5268	-1.93877
O	0.005434	1.604224	-3.160138
O	0.022415	2.457924	-1.148462
Br	-3.589126	0.0	0.0
