12

C	0.0	0.0	0.0
C	-0.505405	-0.02611	-1.429634
Cl	1.78256	0.0	0.0
H	-1.600781	-0.132481	-1.393253
H	-0.3533	0.928479	0.450114
H	-0.216789	0.885703	-1.948868
C	-0.425893	-1.116858	0.84778
N	-0.612211	-1.992306	1.6076
N	0.059582	-1.146416	-2.223161
O	0.354509	-0.904122	-3.393857
O	0.15792	-2.243476	-1.681198
Br	-3.528059	0.0	0.0
