12

C	0.0	0.0	0.0
C	-0.538699	-0.14774	-1.408526
Cl	1.783002	0.0	0.0
H	-1.634919	-0.244726	-1.327534
H	-0.346817	0.964947	0.372864
H	-0.270248	0.716365	-2.012595
C	-0.417747	-1.033587	0.952204
N	-0.607729	-1.825418	1.797871
N	-0.003665	-1.335189	-2.118266
O	0.133714	-2.373896	-1.478503
O	0.22849	-1.204623	-3.320769
Br	-3.575869	0.0	0.0
