12

C	0.0	0.0	0.0
C	-0.53322	0.012252	-1.417817
Cl	1.785038	0.0	0.0
H	-1.630205	-0.086236	-1.354204
H	-0.345209	0.91912	0.475976
H	-0.256086	0.935592	-1.922506
C	-0.425334	-1.130287	0.829601
N	-0.620627	-2.013028	1.57852
N	-0.003918	-1.092421	-2.254358
O	0.140184	-2.193973	-1.730711
O	0.214769	-0.833962	-3.439524
Br	-3.569881	0.0	0.0
