15
Coordinates from ORCA-job run
  C   -0.32384899652202     -0.01520238124530      0.24188692254371
  C   0.89723359740135     -0.90390674273344     -0.03076189018315
  Cl  -0.75264192463838     -0.20589193614680      1.98172544959779
  H   1.10644083498981     -0.89046328948889     -1.10629051411751
  H   0.66928366707869     -1.93580516970853      0.24994289227359
  C   -1.50047949016125     -0.50426901999498     -0.58823316661145
  H   -1.71697167995062     -1.55412841612980     -0.38030808771114
  H   -2.39323832888042      0.08069959231519     -0.36125077231550
  H   -1.27519430646673     -0.39392342641894     -1.65330687001430
  C   -0.02188746428847      1.45093521112280     -0.01586879698349
  H   0.26953606362208      1.58939333486837     -1.06179253760458
  H   -0.90757953708637      2.05740591751706      0.18094893648824
  H   0.78825669980755      1.80542335933916      0.62285263284483
  C   2.09785629384937     -0.47193529792830      0.68038846782459
  N   3.06423457124541     -0.11033173536760      1.23906733396836
