15
Coordinates from ORCA-job run
  C   -0.18404047118225      0.23827810225885      0.26948306917627
  C   1.22313504367267     -0.34634620933766      0.08745455580049
  Cl  -0.49623488390809      0.35173153734320      2.04058035607367
  H   1.47733223796433     -0.32232978574670     -0.97814173435371
  H   1.94969685515197      0.27669687530329      0.61589479630509
  C   -1.24846833820584     -0.65416462033782     -0.34525155205807
  H   -2.23653357730398     -0.21323199582881     -0.20236658726428
  H   -1.06638695970501     -0.75962514233790     -1.41954354047133
  H   -1.24355336386882     -1.64582511123712      0.10951978613748
  C   -0.22550408922849      1.64541529801150     -0.30585495035202
  H   -1.20391638654365      2.09641073243994     -0.13278946606084
  H   -0.04525802625158      1.61144041985382     -1.38456402527388
  H   0.53129005285681      2.28106957002374      0.15840821972383
  C   1.34232779571845     -1.72333471179017      0.56067195499876
  N   1.42811411083348     -2.83518495861817      0.92549911761854
