15
Coordinates from ORCA-job run
  C   -0.38410410281385      0.01132174029036      0.39564265529944
  C   0.89092040825096     -0.82503388459312      0.58866541030017
  Cl  -1.35012569182584     -0.22890154536675      1.90037442534543
  H   0.62484726231857     -1.87429797014398      0.74485742362507
  H   1.42353826643039     -0.48583715148004      1.48164659920408
  C   -1.20447815829963     -0.49285989023109     -0.77935317809549
  H   -0.64200702651109     -0.36574234222834     -1.70833217579588
  H   -1.45039244402446     -1.54992784951276     -0.65860446419105
  H   -2.13660140383258      0.06938456375006     -0.85725876838915
  C   -0.06215991070163      1.49071518765540      0.27060101418516
  H   0.52559357433875      1.66877973090073     -0.63409039369258
  H   0.50673736091473      1.84089444687912      1.13446720384574
  H   -0.98318324097337      2.07278433489541      0.20746946980019
  C   1.77589741278993     -0.71900016004626     -0.56989908945074
  N   2.46351769393910     -0.61227921076870     -1.51518613199040
