17
Coordinates from ORCA-job run
  C   0.85812806579149     -0.55659478605158     -0.18200583949584
  C   -0.48388257653239     -0.08404471226593      0.37973433970856
  Br  1.40173262154356     -2.23497805636544      0.69735022934096
  H   -0.36979134801905      0.00636896550563      1.46769693411056
  H   0.73398912868587     -0.83640851631212     -1.23304159748714
  C   1.99801390135507      0.43645139924944     -0.03071758314527
  H   1.80990710885486      1.32484700097588     -0.63798464881425
  H   2.94062061532207     -0.00271950175029     -0.35942458673336
  H   2.10707037641640      0.74041040811198      1.01329728808813
  C   -1.61095289403122     -1.07055541524210      0.08219959712139
  H   -1.74200779354961     -1.18468085841576     -0.99906159360105
  H   -1.41500544106794     -2.05501533052642      0.50716194146471
  H   -2.55456890296760     -0.70472633162917      0.49504918958368
  C   -0.83963095462779      1.29305204917504     -0.18978929103399
  H   -0.83188979358171      1.27604358408066     -1.28492241255261
  H   -0.15514069026450      2.07344757820171      0.14543496792474
  H   -1.84559142332749      1.57810252325848      0.12802306552079
