15

C	-0.458949	0.026646	-1.463942
C	0.0	0.0	0.0
Br	0.121871	1.6506	-2.378394
H	1.094738	0.0	0.0
H	0.010308	-0.792114	-2.014715
C	-1.910991	-0.068525	-1.579145
N	-3.080389	-0.173734	-1.630898
C	-0.464647	-1.301369	0.644096
H	-1.55513	-1.327574	0.752462
H	-0.005766	-1.385208	1.632245
H	-0.149787	-2.170643	0.060931
N	-0.519772	1.170207	0.703672
H	0.259739	1.741588	1.004973
H	-1.041003	0.889954	1.523338
Cl	3.427228	0.0	0.0
