15

C	-0.407186	-0.016225	-1.491683
C	0.0	0.0	0.0
Br	0.205488	1.584145	-2.438275
H	1.095434	0.0	0.0
H	0.083837	-0.85046	-1.997567
C	-1.853903	-0.107891	-1.659696
N	-3.025218	-0.188629	-1.72259
C	-0.485073	-1.28803	0.654466
H	-0.143815	-2.168826	0.103596
H	-1.577816	-1.318213	0.729502
H	-0.065507	-1.329865	1.660047
N	-0.475777	1.143462	0.74991
H	0.053117	1.966815	0.486059
H	-1.462338	1.315683	0.572438
Cl	3.458355	0.0	0.0
