15

C	-0.455801	-0.001699	-1.456448
C	0.0	0.0	0.0
Br	0.083617	1.629453	-2.406971
H	1.10197	0.0	0.0
H	0.049699	-0.810574	-1.988722
C	-1.902201	-0.143929	-1.598811
N	-3.061282	-0.303286	-1.708841
C	-0.472236	-1.285995	0.665782
H	-0.025072	-1.353165	1.661419
H	-0.139016	-2.163348	0.105657
H	-1.5616	-1.30397	0.762962
N	-0.585045	1.148861	0.695915
H	-0.375954	1.037048	1.682775
H	-0.076376	1.977788	0.403588
Cl	3.47111	0.0	0.0
