15

C	-0.316512	0.004454	-1.506813
C	0.0	0.0	0.0
Br	-2.239099	0.34098	-1.887767
H	1.098397	0.0	0.0
H	0.202852	0.840824	-1.978511
C	0.031219	-1.232773	-2.192354
N	0.289513	-2.232189	-2.75413
C	-0.558889	-1.211176	0.719405
H	-0.220151	-2.142966	0.261278
H	-0.204898	-1.182016	1.750131
H	-1.654044	-1.195847	0.72758
N	-0.393231	1.229569	0.670405
H	0.276333	1.959178	0.45685
H	-1.316884	1.528651	0.379646
Cl	3.378177	0.0	0.0
