15

C	-0.315991	0.018381	-1.507217
C	0.0	0.0	0.0
Br	-2.23686	0.364554	-1.886268
H	1.098431	0.0	0.0
H	0.206767	0.857046	-1.971024
C	0.027306	-1.214886	-2.201795
N	0.270106	-2.219119	-2.761642
C	-0.560256	-1.216633	0.708469
H	-1.655325	-1.200178	0.715986
H	-0.207037	-1.196612	1.739652
H	-0.22251	-2.14485	0.242597
N	-0.392328	1.223691	0.681439
H	0.276005	1.955654	0.472397
H	-1.317231	1.523821	0.396481
Cl	3.378463	0.0	0.0
