15

C	-0.513082	0.010515	-1.455125
C	0.0	0.0	0.0
Br	0.121778	-1.495099	-2.536264
H	1.095164	0.0	0.0
H	-1.604233	-0.09468	-1.448804
C	-0.18642	1.25155	-2.151032
N	0.055852	2.258697	-2.705986
C	-0.516645	-1.216012	0.7489
H	-0.183244	-2.146716	0.288523
H	-0.129498	-1.172439	1.767413
H	-1.614063	-1.213726	0.795457
N	-0.429603	1.217314	0.682513
H	0.178505	1.984446	0.42308
H	-1.384263	1.466664	0.448123
Cl	3.436147	0.0	0.0
