15

C	-0.455884	-0.005767	-1.456373
C	0.0	0.0	0.0
Br	0.085417	1.621582	-2.410227
H	1.101945	0.0	0.0
H	0.051532	-0.814534	-1.986794
C	-1.901816	-0.150905	-1.600678
N	-3.059606	-0.313358	-1.718292
C	-0.470867	-1.284172	0.670604
H	-0.136218	-2.163049	0.113899
H	-1.560407	-1.303467	0.767647
H	-0.02404	-1.347224	1.666837
N	-0.585873	1.15075	0.691738
H	-0.374861	1.043617	1.678505
H	-0.078936	1.979196	0.39496
Cl	3.471673	0.0	0.0
