17

C	-0.295936	-0.118422	-1.489305
C	0.0	0.0	0.0
F	-1.606963	-0.586983	-1.734721
H	1.097457	0.0	0.0
C	-0.26692	1.210331	-2.15868
N	-0.208913	2.193696	-2.799072
N	0.631588	-1.046944	-2.049113
H	0.695351	-0.944564	-3.054139
H	1.554584	-0.883526	-1.625061
C	-0.476638	-1.239513	0.738215
H	-0.040857	-1.241853	1.741779
H	-0.15691	-2.144865	0.219822
H	-1.569521	-1.255184	0.820508
N	-0.491119	1.253131	0.556451
H	0.259032	1.672208	1.093834
H	-1.273483	1.08686	1.177388
H	2.874011	0.0	0.0
