17

C	-0.53848	-0.041033	-1.425085
C	0.0	0.0	0.0
F	0.065974	1.012646	-2.14649
H	1.099381	0.0	0.0
C	-0.17353	-1.27717	-2.15043
N	0.07617	-2.238515	-2.775411
N	-1.954615	0.100483	-1.428886
H	-2.146144	0.88442	-0.80977
H	-2.282594	0.299961	-2.366298
C	-0.496665	-1.172853	0.821769
H	-0.244905	-2.119692	0.338799
H	0.015746	-1.161235	1.788852
H	-1.578903	-1.132795	0.976394
N	-0.485213	1.2772	0.570986
H	-0.473034	1.177068	1.580577
H	0.234091	1.964359	0.357466
H	2.930941	0.0	0.0
