17

C	-0.346967	-0.14173	-1.480796
C	0.0	0.0	0.0
F	-0.163744	-1.46588	-1.867333
H	1.095251	0.0	0.0
C	-1.782613	0.171981	-1.7167
N	-2.92529	0.413028	-1.842067
N	0.484289	0.675833	-2.324992
H	1.440824	0.484409	-2.007815
H	0.300803	1.634623	-2.04443
C	-0.566856	-1.089786	0.886446
H	-0.240305	-2.07467	0.548399
H	-1.664643	-1.069093	0.900315
H	-0.202875	-0.943518	1.90763
N	-0.378492	1.364426	0.382229
H	0.362725	1.74149	0.963466
H	-1.241015	1.366273	0.914598
H	2.908967	0.0	0.0
