17

C	-0.564838	0.057919	-1.415209
C	0.0	0.0	0.0
F	-0.012443	1.175726	-2.038686
H	1.101598	0.0	0.0
C	-0.182873	-1.127388	-2.212781
N	0.041664	-2.09544	-2.836715
N	-1.999036	0.206931	-1.473696
H	-2.456459	-0.696348	-1.494957
H	-2.257801	0.70479	-0.624608
C	-0.476077	-1.234857	0.741004
H	0.018431	-1.267788	1.717452
H	-1.560994	-1.230364	0.897155
H	-0.186533	-2.146316	0.210554
N	-0.512902	1.21304	0.673902
H	0.035341	1.986755	0.305175
H	-0.2316	1.137936	1.648396
H	2.936562	0.0	0.0
