17

C	-0.539067	0.15845	-1.417181
C	0.0	0.0	0.0
F	0.080619	1.288148	-1.993879
H	1.093869	0.0	0.0
C	-0.196078	-0.97823	-2.299419
N	0.011701	-1.875128	-3.027308
N	-1.953007	0.321458	-1.397895
H	-2.277375	0.646407	-2.301103
H	-2.127567	1.024662	-0.683684
C	-0.49826	-1.275312	0.65118
H	0.015063	-1.398418	1.609188
H	-1.580225	-1.254699	0.81065
H	-0.250612	-2.14662	0.041521
N	-0.47752	1.18827	0.742987
H	0.274656	1.870258	0.68568
H	-0.540923	0.930712	1.72183
H	2.92892	0.0	0.0
