17

C	-0.513263	0.051421	-1.430187
C	0.0	0.0	0.0
F	-0.127709	1.218476	-2.05189
H	1.096454	0.0	0.0
C	0.062117	-1.057207	-2.250337
N	0.373488	-1.965134	-2.928451
N	-1.961936	0.025849	-1.490604
H	-2.248291	0.018582	-2.464508
H	-2.295645	-0.830393	-1.064511
C	-0.424652	-1.284866	0.704449
H	-0.195466	-2.176408	0.113003
H	-1.493528	-1.291178	0.958983
H	0.146734	-1.360462	1.63272
N	-0.403279	1.21585	0.692516
H	0.390726	1.523791	1.243249
H	-1.191981	1.048765	1.305191
H	2.877423	0.0	0.0
