17

C	-0.562138	0.175293	-1.407527
C	0.0	0.0	0.0
F	-0.002094	1.335138	-1.937484
H	1.103062	0.0	0.0
C	-0.18622	-0.942468	-2.300453
N	0.033027	-1.814639	-3.054605
N	-1.995302	0.339928	-1.458039
H	-2.451875	-0.560474	-1.515725
H	-2.243696	0.789929	-0.579469
C	-0.480064	-1.291385	0.633564
H	-0.199254	-2.154387	0.024534
H	-1.56434	-1.295764	0.794137
H	0.018234	-1.41207	1.600378
N	-0.509966	1.154233	0.770434
H	0.090672	1.937205	0.524654
H	-0.306566	0.962214	1.746246
H	2.934113	0.0	0.0
