17

C	-0.348283	-0.109814	-1.482945
C	0.0	0.0	0.0
F	-0.151916	-1.422405	-1.900418
H	1.099291	0.0	0.0
C	-1.787621	0.192621	-1.708525
N	-2.935735	0.411134	-1.821896
N	0.47333	0.735886	-2.308176
H	1.432207	0.555401	-1.989772
H	0.269295	1.687195	-2.016179
C	-0.564129	-1.109525	0.862283
H	-0.188776	-0.993668	1.883149
H	-0.247297	-2.086583	0.494426
H	-1.661707	-1.083242	0.887974
N	-0.380691	1.354163	0.413905
H	0.367184	1.72517	0.990081
H	-1.233892	1.34018	0.961309
H	2.905504	0.0	0.0
