17

C	-0.272364	0.089356	-1.497927
C	0.0	0.0	0.0
F	-0.094509	-1.200174	-2.066647
H	1.103765	0.0	0.0
C	-1.673922	0.440606	-1.840223
N	-2.782109	0.681105	-2.144061
N	0.632387	1.033765	-2.033265
H	0.624888	1.026881	-3.045486
H	1.570933	0.825898	-1.666535
C	-0.59825	-1.219425	0.658087
H	-0.221678	-2.130429	0.193914
H	-0.306984	-1.236637	1.713234
H	-1.691928	-1.200633	0.602425
N	-0.526444	1.229182	0.617433
H	-0.228404	1.208946	1.588697
H	-0.016339	2.00104	0.196788
H	2.965892	0.0	0.0
