17
Coordinates from ORCA-job run
  C   -0.94300712038968     -0.21927762615481      0.02213239128501
  C   0.41469888015480     -0.11316392143250      0.75685005902025
  Cl  -2.15915755262329      0.54565983014822      1.11062944942023
  H   0.28415195299533     -0.52771694306555      1.75696840037420
  C   -1.00401778194251      0.47254881839500     -1.33319716976917
  H   -0.82301659365630      1.54101092659341     -1.21721918683713
  H   -1.99620927547346      0.33331092987628     -1.76362892392418
  H   -0.25540068713778      0.04761856356884     -2.00226626701060
  C   -1.31274639123259     -1.62970400982321     -0.11260140865897
  N   -1.59792041131879     -2.76100095121828     -0.25506579862030
  C   1.00736283780684      1.28040276392225      0.79666493126913
  H   1.27686381902317      1.61772860757278     -0.20285255778080
  H   0.29760766133697      1.97860862724422      1.24091807237237
  H   1.90942749088653      1.27199090515476      1.41178814429778
  N   1.39253946281598     -1.04716690189272      0.09375015287094
  O   1.82779796159304     -0.71775723099547     -1.00857867284658
  O   1.68102574716175     -2.07309238789321      0.70470838453783
