17
Coordinates from ORCA-job run
  C   -0.77203377991960     -0.45456211560087     -0.22869927738821
  C   0.41436090833478     -0.06148247191963      0.66274661510555
  Cl  -1.55806183664702     -1.90084476597049      0.49003750307774
  H   0.01794871558379      0.18685273842796      1.64893478082328
  C   -1.80440766388511      0.67199451008184     -0.26857179625560
  H   -2.68213410276051      0.34091616033794     -0.82387854121429
  H   -1.39311176914502      1.55185374812170     -0.76565149165220
  H   -2.10798745451516      0.92953315842715      0.74799309329104
  C   -0.36183150534358     -0.77621034546808     -1.59598318186570
  N   -0.09500232808852     -0.94791755628384     -2.72741093889868
  C   1.27191190731389      1.05450227551218      0.09101719376876
  H   2.11659801659668      1.23852755342796      0.75832877277076
  H   1.65731204910787      0.77911818456260     -0.89175044443993
  H   0.70234045979318      1.98061077366313      0.01032395068627
  N   1.30370073474671     -1.24617747542086      0.90457927113490
  O   1.79293791730976     -1.78139654656130     -0.08565993876127
  O   1.49745973151785     -1.56431782533741      2.07464442981759
