17
Coordinates from ORCA-job run
  C   -0.80165043430174     -0.44655424798026     -0.10972344928650
  C   0.47268054678745     -0.00731070680530      0.62579911735267
  Cl  -1.55514215831968     -1.78324263586686      0.82364477045491
  H   0.17564471376528      0.35662821264194      1.61103115887599
  C   -1.80387374146204      0.70579825964973     -0.17429219425975
  H   -1.41842023900182      1.51587916653267     -0.79525573616482
  H   -2.73746364653257      0.35079785405347     -0.61107168873824
  H   -2.00517410114702      1.07556121365882      0.83300707443182
  C   -0.52773132974706     -0.91979956449634     -1.46712915219779
  N   -0.37076645144585     -1.21371999037353     -2.59397906088501
  C   1.30443268522202      1.00945996405291     -0.13673056597893
  H   0.75314743220352      1.94019493905399     -0.27251751213614
  H   1.59531266528014      0.61484159458238     -1.11133792784776
  H   2.20887084716617      1.23679294165859      0.43173725227208
  N   1.34650512853177     -1.19348344398718      0.91274808057037
  O   1.72542861547074     -1.84775151516218     -0.05408609895996
  O   1.63919946753068     -1.39509204121284      2.08815593249706
