17
Coordinates from ORCA-job run
  C   -0.61690358282380     -0.24427221673518     -0.54989351202187
  C   0.53498706608504      0.36222300124995      0.28392179766371
  Cl  -0.16399946684591     -1.84504982965294     -1.22084946234369
  H   0.20243788150388      1.36030209698981      0.58012828450587
  C   -1.91011310663902     -0.39946444946385      0.24567761469939
  H   -1.78204267418012     -1.14795085279000      1.02775974889877
  H   -2.18363221337049      0.55198581320443      0.70674326084227
  H   -2.71006366874189     -0.72324391312699     -0.42047773095826
  C   -0.83182235009709      0.66513045221331     -1.67795752923267
  N   -1.01304175343313      1.42666617888075     -2.55454263552041
  C   1.88015685402057      0.41237356981466     -0.40637839996411
  H   2.60713005605140      0.90208729380778      0.24442955721962
  H   1.80027873605415      0.99056543945619     -1.32903019490521
  H   2.23689378010674     -0.58911686048498     -0.63628568172389
  N   0.63423423783130     -0.38719427712147      1.58097724084381
  O   -0.00348418682938      0.07095796952300      2.52909629463838
  O   1.31798439130773     -1.40699941576447      1.59968134735829
