17
Coordinates from ORCA-job run
  C   -0.64139627388156     -0.19882580313080     -0.54050834125583
  C   0.56929377188302      0.31718637752959      0.27136491393586
  Cl  -0.34835900048389     -1.85383926403678     -1.16673247108964
  H   0.33656084799501      1.35047839651185      0.54079678302996
  C   -1.93805508202353     -0.20628436891855      0.26424605770276
  H   -2.11724829465710      0.78040563332332      0.69650089491420
  H   -2.76968837303063     -0.47290928383272     -0.38820866046218
  H   -1.87636678102411     -0.93909462283119      1.06874453652932
  C   -0.77462097428058      0.69526255046408     -1.69308088335669
  N   -0.88573143079147      1.44619806164942     -2.59022575150245
  C   1.90805826858672      0.21724218838303     -0.42579227073893
  H   2.16739088925803     -0.82058246765828     -0.62254784508620
  H   2.68270556365288      0.65839398267415      0.20432390306301
  H   1.87582758648614      0.76827108557276     -1.36769045764727
  N   0.60433970708052     -0.40215010594157      1.58915514040430
  O   1.18595373646636     -1.48250700357782      1.63418902801607
  O   0.02133583876420      0.14275464381951      2.52646542354371
