17
Coordinates from ORCA-job run
  C   -0.91402937862316     -0.31636904363629      0.04056895870707
  C   0.47604721021701     -0.18048683868656      0.70645523892494
  Cl  -2.11753096407604      0.15703796419310      1.29595898715044
  H   0.45756516087960     -0.75509469819713      1.63301639646212
  C   -1.12967610349744      0.55378228003027     -1.19048315075213
  H   -2.13074900206041      0.37744879766372     -1.58522814237653
  H   -0.39094656106632      0.30888756503364     -1.95403638460789
  H   -1.04184069041193      1.60709052142415     -0.92514697405926
  C   -1.16360062082627     -1.72210482818774     -0.28464662953845
  N   -1.35993867554783     -2.84221994058496     -0.58205345708180
  C   0.93392673564113      1.24532107750192      0.93488845116970
  H   1.09491605808210      1.75955538649880     -0.01110139070016
  H   1.87626361006786      1.23815634685919      1.48634425734224
  H   0.19590925813458      1.78719031950039      1.52672707393172
  N   1.48795312941130     -0.89423015490896     -0.15170883203258
  O   1.83622020727651     -0.34005304704663     -1.19294077206990
  O   1.88951062639930     -1.98191170745690      0.25438636953047
