17
Coordinates from ORCA-job run
  C   -0.96139460130119     -0.08832646846535      0.08052239837436
  C   0.42582480189318      0.01198164553144      0.75858977531364
  Cl  -2.03477325382668      1.05315173905026      0.97156694319725
  H   0.28431100206764     -0.14354128960678      1.82857986255692
  C   -0.98929663989518      0.27568112519187     -1.39798119053773
  H   -0.32104218440627     -0.38047658205483     -1.95589176558529
  H   -2.00577465587143      0.16521867236595     -1.77683505512610
  H   -0.67874437917943      1.31131566825547     -1.53459021784008
  C   -1.50306361759573     -1.43387235512746      0.28130950540316
  N   -1.92726296410872     -2.52247524992583      0.40923623372137
  C   1.18252733810636      1.29218920884595      0.46955725191921
  H   0.58007483759402      2.15694908105047      0.74850084377799
  H   1.45095638907412      1.35642886193626     -0.58367363718329
  H   2.10070702225619      1.31006823200895      1.06014078712131
  N   1.25978010710621     -1.16358276480206      0.32091921633260
  O   1.44527396663496     -2.05103790084595      1.14976631052600
  O   1.69189683145195     -1.15067162340837     -0.83071726197132
