17
Coordinates from ORCA-job run
  C   -0.77884370752088     -0.44887977025579     -0.21494739640859
  C   0.41878120539848     -0.05435172757023      0.66043606319755
  Cl  -1.57645729045715     -1.87322092002343      0.53495004083646
  H   0.03329719396371      0.21605100571108      1.64513412543052
  C   -1.79864489090162      0.68863803472421     -0.26641061771587
  H   -2.09219312611388      0.96603548967477      0.74777778470191
  H   -2.68394779784604      0.35845859312158     -0.81003370841949
  H   -1.38112057281956      1.55551710439268     -0.78063136095165
  C   -0.38301738826328     -0.79937004491114     -1.57935882027968
  N   -0.12686930847323     -0.99403199816302     -2.70953405252151
  C   1.28533170537948      1.04057735727472      0.06197928560365
  H   1.66075622788179      0.74177873421197     -0.91778750937228
  H   2.13648977781835      1.22757148047678      0.72014907263289
  H   0.72580800173687      1.97145649136050     -0.03293365391010
  N   1.29600477105606     -1.24519157134673      0.91699413821062
  O   1.49417726329049     -1.54508038567638      2.09113974586743
  O   1.77144793587039     -1.80395787300155     -0.06692313690185
