17
Coordinates from ORCA-job run
  C   -0.90264853544882     -0.33901628051278      0.09725505378900
  C   0.52230742443949     -0.16529020834397      0.67521786848642
  Cl  -2.03648230804841      0.10357065623994      1.42674429238429
  H   0.57470389601218     -0.73207981483419      1.60535413303491
  C   -1.22036175161019      0.52362476497803     -1.11671543671084
  H   -1.14299045920824      1.57922197720538     -0.85695233865075
  H   -2.24029360906976      0.32131790941987     -1.44525261783853
  H   -0.52693278615751      0.29745048905888     -1.92699327351788
  C   -1.13134044635406     -1.75214131923465     -0.21069496684702
  N   -1.30084287085341     -2.88167339730245     -0.48788969223488
  C   0.95943908388062      1.27268210774906      0.86544039765569
  H   1.04990050706721      1.78228416764283     -0.09246949944845
  H   1.93365078889925      1.29163287666932      1.35813965450085
  H   0.24657374232672      1.80271247931309      1.49749354037736
  N   1.49780040213600     -0.86121267408520     -0.23746108122518
  O   1.97150880094106     -1.92167179775923      0.16258337552460
  O   1.74500812104788     -0.32141193620394     -1.31479940927957
