17
Coordinates from ORCA-job run
  C   -0.77486999405258     -0.45803153641439     -0.21106950976881
  C   0.42262409451374     -0.05031858530892      0.65842382396365
  Cl  -1.55276223822564     -1.89096552374234      0.54278037947592
  H   0.03895357552270      0.21493666944381      1.64522752224475
  C   -1.80716418590842      0.66833079029175     -0.25801969659985
  H   -1.40212129537083      1.53848396456577     -0.77684774481612
  H   -2.09714321797088      0.94498077965499      0.75748419847468
  H   -2.69225810026387      0.32743689236292     -0.79538817928199
  C   -0.38205046718733     -0.80422722280490     -1.57750209796350
  N   -0.13045195064989     -0.99579909421440     -2.70920693135043
  C   1.27321698812997      1.05516791340090      0.05660321786685
  H   1.64558024923786      0.76272165299880     -0.92625211229195
  H   0.70279718294516      1.97999517065439     -0.03242699604750
  H   2.12652467373615      1.25013470554406      0.70966401608651
  N   1.31468541915921     -1.23107373864233      0.90945059585926
  O   1.52364429163645     -1.52851131527816      2.08236434726952
  O   1.79079497474820     -1.78426152251195     -0.07728483312101
