17
Coordinates from ORCA-job run
  C   -0.77009203618733     -0.45704002085604     -0.22974872732200
  C   0.41115547134271     -0.05708521551047      0.66543593767464
  Cl  -1.55791857163032     -1.90058997196067      0.49285329655824
  H   0.00972319716606      0.19516305994269      1.64857906970484
  C   -1.80375781761458      0.66787187332206     -0.28152807883617
  H   -1.39177627678027      1.54406542178558     -0.78451004753530
  H   -2.67935632662093      0.33129234517660     -0.83687362298360
  H   -2.11074877774620      0.93336950481941      0.73195290293701
  C   -0.35236277486429     -0.78650111213281     -1.59292645860756
  N   -0.07907703420375     -0.96533163848610     -2.72172347873938
  C   1.26899924600414      1.05758847290223      0.09158626475960
  H   1.65903391254444      0.77767394370583     -0.88804328965686
  H   2.11049418232795      1.24699242661341      0.76140192034439
  H   0.69768615950675      1.98197470367336      0.00365300342957
  N   1.30136146014334     -1.23913919830331      0.91745835926738
  O   1.80030505083469     -1.77547299467154     -0.06736947831627
  O   1.48533093577759     -1.55483160002023      2.08980242732147
