18

C	0.0	0.0	0.0
C	-0.373409	-0.0674	-1.539683
Cl	1.833443	0.0	0.0
H	0.510829	-0.489297	-2.021827
N	-0.63229	0.977068	0.728562
H	-0.443697	0.843982	1.717096
H	-1.668744	0.761729	0.536868
N	-0.220289	-1.437617	0.631752
O	0.035189	-2.422397	-0.053901
O	-0.592736	-1.473968	1.800085
C	-0.581315	1.363787	-2.021602
H	0.230453	2.028777	-1.714678
H	-1.520325	1.730473	-1.605692
H	-0.658925	1.348908	-3.111221
N	-1.504277	-0.868544	-1.951176
H	-1.292351	-1.83978	-1.759664
H	-2.292073	-0.59312	-1.335995
F	-2.929937	0.0	0.0
