18

C	0.0	0.0	0.0
C	-0.23838	-0.093711	-1.577989
Cl	1.777368	0.0	0.0
H	0.423369	0.738185	-1.886099
N	-0.618774	1.076978	0.628923
H	-0.442453	1.902244	0.063
H	-1.674124	0.782123	0.50302
N	-0.38956	-1.27159	0.785934
O	-0.05277	-2.347854	0.297888
O	-0.946706	-1.134754	1.862526
C	-1.589582	0.236564	-2.185009
H	-1.434762	0.249805	-3.27588
H	-1.961681	1.204947	-1.85529
H	-2.338148	-0.494766	-1.90672
N	0.211426	-1.351864	-2.199582
H	0.958056	-1.777013	-1.670826
H	0.577744	-1.123546	-3.118942
F	-2.831497	0.0	0.0
