18

C	0.0	0.0	0.0
C	-0.247808	-0.070101	-1.562984
Cl	1.769949	0.0	0.0
H	0.349957	0.794048	-1.873835
N	-0.649209	1.083515	0.56889
H	-1.697928	0.795546	0.415415
H	-0.439219	1.109188	1.561736
N	-0.383135	-1.328452	0.730663
O	-0.310483	-1.286179	1.955815
O	-0.740146	-2.306961	0.085899
C	-1.630428	0.140525	-2.162348
H	-1.472745	0.213762	-3.248719
H	-2.300139	-0.677865	-1.917189
H	-2.114771	1.041397	-1.799959
N	0.418836	-1.246795	-2.146327
H	0.522243	-1.062065	-3.137851
H	-0.21283	-2.032307	-2.048501
F	-2.887195	0.0	0.0
