18

C	0.0	0.0	0.0
C	-0.433498	0.064842	-1.49925
Cl	1.824116	0.0	0.0
H	0.459301	-0.186056	-2.077857
N	-0.641802	0.891914	0.827952
H	-0.431257	0.676725	1.795753
H	-1.673964	0.685419	0.63948
N	-0.201265	-1.510964	0.493423
O	0.303039	-2.412239	-0.157597
O	-0.826021	-1.653813	1.540984
C	-0.856933	1.497759	-1.836193
H	-1.00426	1.570505	-2.920383
H	-0.112338	2.240197	-1.532916
H	-1.804268	1.695554	-1.334194
N	-1.442937	-0.937526	-1.82083
H	-2.261484	-0.701354	-1.226863
H	-1.689365	-0.797059	-2.79474
F	-2.988589	0.0	0.0
