17

C	0.0	0.0	0.0
C	-0.424178	-0.008263	-1.469789
F	1.396177	0.0	0.0
H	-1.519761	-0.051103	-1.482742
N	-0.44733	1.228638	0.591846
H	-1.469184	1.216459	0.543974
H	-0.195116	1.21953	1.575196
C	-0.401835	-1.266638	0.73077
H	-0.00593	-2.143152	0.217361
H	-1.488974	-1.326375	0.790974
H	0.022265	-1.219178	1.73964
N	0.124136	-1.18662	-2.13968
H	-0.226571	-1.222834	-3.088933
H	1.131925	-1.084436	-2.184839
C	0.031223	1.240619	-2.119464
N	0.455972	2.141371	-2.743693
Br	-3.809935	0.0	0.0
