17

C	0.0	0.0	0.0
C	-0.169178	0.092063	-1.538635
F	1.434887	0.0	0.0
H	0.423037	-0.750341	-1.926635
N	-0.527659	1.122419	0.615476
H	-0.574147	1.114541	1.618604
H	-0.271025	1.995702	0.187028
C	-0.521116	-1.280892	0.588443
H	-0.093133	-2.143264	0.072943
H	-1.611959	-1.274734	0.497259
H	-0.247804	-1.340159	1.645886
N	0.384833	1.389583	-1.965835
H	1.393601	1.331359	-1.902502
H	0.127038	1.566207	-2.92866
C	-1.489862	-0.057498	-2.155238
N	-2.34834	-0.171851	-2.948607
Br	-4.323029	0.0	0.0
