17

C	0.0	0.0	0.0
C	-0.450283	-0.157801	-1.45406
F	1.423996	0.0	0.0
H	-1.546688	-0.220459	-1.400674
N	-0.46849	1.243218	0.480882
H	-0.542055	1.277843	1.485712
H	0.070288	2.019804	0.122905
C	-0.485342	-1.143909	0.851779
H	-1.578336	-1.119	0.875883
H	-0.140033	-2.086671	0.430814
H	-0.083288	-1.03036	1.863125
N	0.10558	-1.370103	-2.044425
H	1.099799	-1.239271	-2.190512
H	-0.330023	-1.540026	-2.942609
C	-0.084959	1.056268	-2.214854
N	0.26987	1.977119	-2.853414
Br	-4.013582	0.0	0.0
