17

C	0.0	0.0	0.0
C	-0.220951	-0.244081	-1.533757
F	1.382635	0.0	0.0
H	0.489082	-1.055959	-1.732676
N	-0.504689	1.293445	0.364443
H	-0.292564	1.472138	1.339761
H	-1.527482	1.229254	0.289278
C	-0.460609	-1.146675	0.870432
H	-0.0385	-2.093481	0.521995
H	-1.551827	-1.192858	0.864423
H	-0.113163	-0.966092	1.893148
N	0.23447	0.950842	-2.257623
H	-0.267113	1.017836	-3.134086
H	-0.010966	1.750567	-1.68225
C	-1.487335	-0.750457	-2.099649
N	-2.232707	-1.202249	-2.890142
Br	-3.848249	0.0	0.0
