17

C	0.0	0.0	0.0
C	-0.426005	-0.156756	-1.47779
F	1.39996	0.0	0.0
H	-1.524357	-0.134441	-1.466178
N	-0.457652	1.211708	0.605325
H	-1.468088	1.123309	0.728487
H	-0.293122	1.995681	-0.018464
C	-0.444488	-1.183848	0.832177
H	-1.531007	-1.282672	0.788469
H	-0.137136	-0.999418	1.862483
H	0.035083	-2.098324	0.479591
N	0.028537	-1.368881	-2.154149
H	0.979273	-1.564326	-1.860795
H	-0.559503	-2.139061	-1.861191
C	0.047778	1.014512	-2.234169
N	0.415467	1.969133	-2.810565
Br	-3.796224	0.0	0.0
