17

C	0.0	0.0	0.0
C	-0.275449	-0.296367	-1.514704
F	1.389506	0.0	0.0
H	0.363931	0.428985	-2.036622
N	-0.477772	1.282352	0.413202
H	-1.473222	1.209807	0.613302
H	-0.356441	1.963324	-0.328727
C	-0.501826	-1.069393	0.939157
H	-0.033419	-2.025959	0.70787
H	-0.246231	-0.780504	1.9604
H	-1.588612	-1.154443	0.859462
N	-1.613391	-0.174241	-2.051347
H	-2.302829	-0.629355	-1.455937
H	-1.891049	0.799853	-2.037677
C	0.272291	-1.622185	-1.862333
N	0.713326	-2.66847	-2.159994
Br	-4.197029	0.0	0.0
