16

C	-0.231351	-0.059049	-1.514758
C	0.0	0.0	0.0
F	-1.585078	-0.270178	-1.810866
H	1.096353	0.0	0.0
C	0.164841	1.253457	-2.163373
H	1.205601	1.463339	-1.902739
H	-0.472981	2.073946	-1.828135
H	0.068333	1.154344	-3.24874
N	0.508821	-1.202457	-1.963646
H	0.615271	-1.165203	-2.970266
H	1.439471	-1.145159	-1.539435
C	-0.484632	-1.189686	0.679285
N	-0.848372	-2.13767	1.271027
C	-0.515197	1.203512	0.622709
N	-0.913759	2.192353	1.118734
H	2.579869	0.0	0.0
