16

C	-0.397207	0.049022	-1.489235
C	0.0	0.0	0.0
F	-0.043017	1.312553	-1.95243
H	1.096288	0.0	0.0
C	0.432885	-0.94956	-2.272792
H	1.488742	-0.79908	-2.028103
H	0.145823	-1.971294	-2.011498
H	0.260616	-0.791669	-3.34241
N	-1.827743	-0.051516	-1.650253
H	-2.184087	-0.819282	-1.094321
H	-2.042296	-0.240711	-2.624105
C	-0.447717	-1.246316	0.596551
N	-0.812271	-2.27396	1.039833
C	-0.507188	1.141413	0.742351
N	-0.8656	2.071388	1.36597
H	2.58516	0.0	0.0
