16

C	-0.290221	0.020731	-1.517761
C	0.0	0.0	0.0
F	0.02855	-1.2883	-1.96942
H	1.097516	0.0	0.0
C	-1.739149	0.235502	-1.897423
H	-2.081981	1.204436	-1.533725
H	-2.351812	-0.560136	-1.468616
H	-1.84156	0.204261	-2.9864
N	0.576452	0.993696	-2.06534
H	0.588301	0.925623	-3.073438
H	1.51878	0.834294	-1.692797
C	-0.53418	-1.178448	0.655546
N	-0.943361	-2.134869	1.203982
C	-0.468623	1.213878	0.644059
N	-0.825632	2.199671	1.176764
H	2.597069	0.0	0.0
