18

C	0.0	0.0	0.0
C	-0.550087	0.043535	-1.430565
F	1.388253	0.0	0.0
H	-1.652733	0.04335	-1.250789
C	-0.491404	1.159515	0.84239
H	-1.587039	1.112329	0.763656
H	-0.148243	1.029119	1.871685
H	-0.080389	2.091661	0.447687
C	-0.415824	-1.284683	0.599654
N	-0.569712	-2.334464	1.103501
C	-0.006323	-1.061794	-2.31382
H	-0.355914	-2.026436	-1.938783
H	-0.373316	-0.941267	-3.336159
H	1.085202	-1.051578	-2.330652
N	-0.177479	1.367117	-2.022306
O	0.968336	1.507594	-2.463287
O	-1.033803	2.252646	-2.036024
F	-2.812199	0.0	0.0
