18

C	0.0	0.0	0.0
C	-0.54977	0.19368	-1.420357
F	1.385786	0.0	0.0
H	-1.619284	0.424299	-1.224741
C	-0.454262	1.073205	0.974392
H	-0.078238	2.042915	0.645839
H	-1.54835	1.029872	0.958044
H	-0.044972	0.843108	1.961906
C	-0.421205	-1.327129	0.491789
N	-0.55906	-2.423	0.891516
C	-0.372995	-1.01843	-2.30883
H	0.646607	-1.406592	-2.275045
H	-0.612749	-0.768531	-3.344551
H	-1.072626	-1.782277	-1.967782
N	0.149209	1.374573	-2.011405
O	1.111111	1.177683	-2.758154
O	-0.273038	2.494593	-1.716322
F	-2.764577	0.0	0.0
