18

C	0.0	0.0	0.0
C	-0.259442	-0.016579	-1.54022
F	1.390698	0.0	0.0
H	0.046722	0.975379	-1.880644
C	-0.600693	1.212307	0.655007
H	-0.262654	2.115364	0.139101
H	-0.29069	1.255066	1.702483
H	-1.696282	1.053374	0.564474
C	-0.433166	-1.228399	0.688562
N	-0.61814	-2.18391	1.345044
C	-1.596438	-0.414168	-2.115429
H	-2.405839	0.059705	-1.529958
H	-1.747336	-1.484421	-1.96838
H	-1.591652	-0.184527	-3.186593
N	0.778449	-0.917961	-2.162705
O	0.777843	-2.100281	-1.833339
O	1.531035	-0.423106	-3.003088
F	-3.053956	0.0	0.0
