14
Coordinates from ORCA-job run
  C   0.61108702925907     -0.37868403221562      0.44047961319293
  C   -0.66924296026498     -0.25944129844777     -0.41968857607522
  Cl  0.42403453411785     -1.95752119523185      1.37085746325549
  H   -0.75147575100251     -1.20054384736979     -0.97478138519906
  N   1.76202044217847     -0.30807160056218     -0.36820855243706
  H   1.67665235076844     -0.85250927718686     -1.21583418424127
  H   2.60533406786564     -0.54314710915308      0.13825008309724
  C   0.65667997781405      0.68355189753518      1.45258946411101
  N   0.69274639735088      1.56655734780904      2.22685122463822
  N   -0.53693402055054      0.82232683982082     -1.37680967118126
  H   -1.38711571088514      0.89552487558617     -1.92383023242277
  H   -0.39826258139904      1.70546392866715     -0.89720678830470
  C   -1.85069116377665     -0.15895791306607      0.45999407632240
  N   -2.83283261147555     -0.01354861618516      1.08833746524405
