14
Coordinates from ORCA-job run
  C   0.54616289871065     -0.27041013072655      0.46902788690223
  C   -0.51655841120109      0.27357937870389     -0.50553645043412
  Cl  -0.26282053130500     -0.82778999391874      1.96309432966811
  H   0.03232007589444      0.59208846170775     -1.40082670438378
  N   1.20081341683373     -1.40567627197214     -0.13035840809190
  H   1.80161001756613     -1.86453395307343      0.54496712972156
  H   1.77279351203576     -1.09944580253403     -0.91138445111515
  C   1.45720072506288      0.82829210201677      0.83669273458703
  N   2.27546956018596      1.63586134924465      1.08160182691630
  N   -1.16057480296794      1.43975674909160      0.05735319692104
  H   -1.64921508844801      1.95715280069783     -0.66186259204695
  H   -1.83150143060012      1.16615006409808      0.76514055353928
  C   -1.42882027845684     -0.81609151253791     -0.90116612490859
  N   -2.23787966331054     -1.61093324079777     -1.20674292727507
