14
Coordinates from ORCA-job run
  C   0.58961176861015     -0.31031887178065      0.38951882200471
  C   -0.56054316662121      0.32307012689377     -0.41761187954662
  Cl  -0.09984132585628     -1.29623211152104      1.71206056058812
  H   -0.08210595409042      0.90681477423946     -1.21427016186900
  N   1.34301117761318     -1.18731916899371     -0.47043778510346
  H   1.84649830916258     -0.64131620974186     -1.16268845571742
  H   2.01640708595384     -1.71953952995686      0.06879981087961
  C   1.38661155208344      0.76761177261006      1.00169909806820
  N   2.11537567182533      1.59228064485137      1.41466357465608
  N   -1.31021660623171      1.23824713749914      0.41358176997478
  H   -1.87866239335518      1.85140721491353     -0.15617827814982
  H   -1.92071946714988      0.72795865197330      1.04033331316405
  C   -1.35904830686889     -0.73891302338074     -1.05881866003747
  N   -2.08637834507495     -1.51275140760576     -1.56065172891176
