14
Coordinates from ORCA-job run
  C   0.58604921969909     -0.35769584953411      0.41153518743027
  C   -0.76025019575811     -0.18816938396741     -0.32540393907936
  Cl  0.49311898768113     -1.91369944609641      1.36201976382778
  H   -0.85642469535923     -1.07116859373400     -0.98018932404556
  N   1.62981060006432     -0.35634487038272     -0.56064596248441
  H   1.60624973469732     -1.21481518113164     -1.10037731671814
  H   2.54136828753467     -0.26522627184166     -0.12904387564684
  C   0.79258145945047      0.73080028630870      1.36771172915379
  N   0.99547425798552      1.58428476341430      2.14839075119444
  N   -0.72647525480761      1.09382888369951     -1.00066961510455
  H   -1.61353795126976      1.29358600396279     -1.44463495555516
  H   0.01467523680044      1.09294408608891     -1.68957075862873
  C   -1.88472049686194     -0.21283423423987      0.61467670492917
  N   -2.81791918985631     -0.21549019254641      1.32620161072731
