14
Coordinates from ORCA-job run
  C   0.66419724141072     -0.17683161722300      0.35761502218077
  C   -0.55721039427800      0.35955700313124     -0.41826636155581
  Cl  0.02257470405302     -1.22809796371996      1.72641032137966
  H   -0.13798595594438      1.03914354246694     -1.16747781806935
  N   1.54072576529786     -0.85802519513781     -0.52067154587305
  H   1.10378590521722     -1.68378367548096     -0.91475391413129
  H   2.40574088631795     -1.11806989783410     -0.06386525959117
  C   1.36115861687120      0.94682624919437      0.98697863470946
  N   1.96673369378956      1.83531500723613      1.45891826345235
  N   -1.43026022044151      1.11276116229385      0.44936274194704
  H   -1.97970195342191      0.49835726154301      1.03686275718575
  H   -2.05626319030565      1.69295434869250     -0.09347942160643
  C   -1.18944864606271     -0.76409777357327     -1.13916633860779
  N   -1.71504645250336     -1.65500845158894     -1.69646708142011
