14
Coordinates from ORCA-job run
  C   0.53832144365845     -0.39173052595052      0.39118015590080
  C   -0.79171882408739     -0.23220200419442     -0.40439837833035
  Cl  0.40288746535715     -1.89453864295562      1.41385253750995
  H   -0.86568599394468     -1.12530059781559     -1.03876442387170
  N   1.61439664049473     -0.43721495397242     -0.54242885769950
  H   1.57681610076580     -1.29751559595198     -1.07861360054222
  H   2.51400511453172     -0.37921554729289     -0.08073103102708
  C   0.71186428813540      0.74845091249188      1.29199795370532
  N   0.83526962976743      1.68807019346162      1.98635295049571
  N   -0.83435006016128      0.94684354521803     -1.23736502300544
  H   0.02481336272458      1.00957635171250     -1.77051317553301
  H   -0.92960643155578      1.78275275788354     -0.67228605264688
  C   -1.93789644314482     -0.23124832432599      0.50903703528160
  N   -2.85911629254135     -0.18772756830815      1.23467990976280
