14
Coordinates from ORCA-job run
  C   0.54301333979728     -0.56187510015224      0.44861584307137
  C   -0.70248462455523     -0.24182195296535     -0.40650202089645
  Cl  0.23283664525026     -2.05248448130208      1.38271742901421
  H   -0.81324136503407     -1.09837652551196     -1.07798578480550
  N   1.63502246667402     -0.78409719707827     -0.45261305696768
  H   2.50581237558459     -0.89843105414306      0.05210949030208
  H   1.69215977857305      0.01451848988690     -1.07714177965090
  C   0.75558972685912      0.53693814582793      1.41002605050921
  N   0.95787823910967      1.46311830341420      2.10593697512830
  N   -0.41523942679402      0.94675129200207     -1.19617399121584
  H   -0.58925881031470      1.78573155633974     -0.65340958279639
  H   -1.00512201725803      0.97601339859524     -2.01808729717385
  C   -1.90804973606994     -0.12594779682908      0.42987257209052
  N   -2.88891659182198      0.03996292191596      1.05463515339090
