14
Coordinates from ORCA-job run
  C   0.64715942537035     -0.41821451555044      0.47439618007717
  C   -0.76264931440439     -0.21605450127660     -0.16087738080508
  Cl  1.02906119871772     -2.18093985502178      0.21865173111724
  H   -1.45888177495429     -0.92189200842025      0.31194015025327
  N   1.65898864900988      0.38751078296759     -0.10844615206643
  H   1.46159551164529      0.51584026039470     -1.09504260820973
  H   1.77047280074701      1.27153944293858      0.36889299961815
  C   0.57054567945075     -0.20022821111656      1.91924036993568
  N   0.48103779149244      0.00349426666775      3.07284603724004
  N   -0.63250664264937     -0.36275115484637     -1.60375493751658
  H   -0.61001438828563     -1.34572068680303     -1.84601011837483
  H   -1.41475399997333      0.06930704001938     -2.07880405239080
  C   -1.20030758492885      1.14940081512395      0.14466882223824
  N   -1.54074735123757      2.24770832492310      0.38229895888367
