14
Coordinates from ORCA-job run
  C   0.64491167186348     -0.37793976821108      0.38819400341074
  C   -0.80322183879079     -0.14177196667793     -0.10739907333071
  Cl  1.04985002800996     -2.11626673859427     -0.15203628055889
  H   -1.42434164495052     -0.95131314191964      0.29662187738974
  N   1.48656918577307      0.60573650056555     -0.13862594441747
  H   2.45909644276921      0.48465278090825      0.10737869906176
  H   1.34542043753623      0.68941656546164     -1.13880927055764
  C   0.69968305596850     -0.40933292414893      1.84994904464190
  N   0.73984372982321     -0.42374152564314      3.02398889892836
  N   -0.78116450891793     -0.07356015169228     -1.56392445564831
  H   -0.82902533231941     -1.00850093771413     -1.94932808858761
  H   -1.56809543699577      0.46090310208315     -1.90844046219178
  C   -1.29348198257947      1.12800775818370      0.43782517916771
  N   -1.72704380718979      2.13571044739909      0.85560587269218
