14
Coordinates from ORCA-job run
  C   0.54774419750617     -0.42919802172363      0.32490691791554
  C   -0.92315746858867     -0.18801723120419     -0.14540973688243
  Cl  1.00934582271178     -2.09280488139926     -0.13585390340407
  H   -1.56143588127789     -0.89895278418580      0.38869730762615
  N   1.40993673332741      0.49003448131459     -0.37795055091658
  H   2.38294372566506      0.25098941991945     -0.22450020037556
  H   1.25372231164379      1.43464280811883     -0.03674441803678
  C   0.62605423593783     -0.34448474909697      1.79170887175418
  N   0.68527836487654     -0.22034474262416      2.95970675049839
  N   -1.14140382840230     -0.32472127002708     -1.56242194896030
  H   -0.41210563810948      0.17345614604979     -2.06093645949360
  H   -1.09868096206724     -1.30139154182850     -1.82349814016841
  C   -1.28093879442039      1.17358593041422      0.28293525598930
  N   -1.49630281880263      2.27820643627269      0.61836025445414
