14
Coordinates from ORCA-job run
  C   0.56755824374607     -0.23881900589263      0.46659162761327
  C   -0.53609612332645      0.24922103212444     -0.49235606851758
  Cl  -0.19035790339084     -1.10826525775803      1.83293525077796
  H   -0.01705914355344      0.76687760570936     -1.30902010691624
  N   1.42185457548966     -1.16679186724769     -0.22946242362337
  H   1.95340638258319     -0.67727960792327     -0.94262393591898
  H   2.07332391641111     -1.60085874975877      0.41443412561891
  C   1.26928780450890      0.93497922111953      1.01549112917298
  N   1.92993375866566      1.83306361282427      1.38789759876105
  N   -1.38651749012394      1.21131677195409      0.17249323986671
  H   -2.02780725650276      0.74249656147055      0.80084168110525
  H   -1.92769363350208      1.73380134628858     -0.50414086066738
  C   -1.23735002727939     -0.91171640268355     -1.07258790720152
  N   -1.89248310372572     -1.76702526022686     -1.54049335007107
