14
Coordinates from ORCA-job run
  C   0.53984261630149     -0.47908978557313      0.48733767166668
  C   -0.75616160554044     -0.25170969602136     -0.36133928618581
  Cl  0.29984632737351     -1.98899031476369      1.42252737480966
  H   -0.86114853955849     -1.14907902259763     -0.98363045197726
  N   1.74230756302109     -0.61748436363212     -0.28395690782413
  H   1.64815449383810     -1.33359721617826     -0.99420227797499
  H   2.03976637097339      0.26175256365411     -0.68585271634137
  C   0.69657509367490      0.65235909826098      1.40655403542238
  N   0.79443075955347      1.61316279016899      2.07569759204098
  N   -0.72006694020687      0.90760128441103     -1.22060200932867
  H   -0.65502282594818      1.76961372308422     -0.69300084821317
  H   0.02939507269350      0.85079085655859     -1.89597137104518
  C   -1.93129106508445     -0.16462292274407      0.51275670279574
  N   -2.86762732109104     -0.07170699462767      1.21468249215515
