14
Coordinates from ORCA-job run
  C   0.59494070101527     -0.18402795358462      0.45624098413143
  C   -0.56606799234393      0.18673303471956     -0.48732436654849
  Cl  -0.07627937889574     -0.71231394565184      2.02694025428399
  H   -0.09901548591015      0.49569100130319     -1.43106856735879
  N   1.32703043126690     -1.28970009469133     -0.10708165518816
  H   1.81890696012216     -0.98716385544885     -0.94214971261543
  H   2.00857669920767     -1.63882321042394      0.55704794984771
  C   1.40943782817161      1.02008477572524      0.69849189064224
  N   2.15083880913525      1.92298616522674      0.82808374209591
  N   -1.29471078212746      1.32002234905861      0.03824792059547
  H   -1.86914469693839      1.73752174058761     -0.68250829185284
  H   -1.89773763673749      1.03083206906476      0.79894871702667
  C   -1.38255459794664     -1.01058281349981     -0.76253983629960
  N   -2.12322085801904     -1.89225926238531     -0.99432902876011
