14
Coordinates from ORCA-job run
  C   0.63938071860212     -0.27739328863926      0.36340749691909
  C   -0.61894195019255      0.30172843809729     -0.37660302344622
  Cl  0.05810708081821     -1.43172714852750      1.60666072433027
  H   -0.21451408617422      1.01534258448234     -1.10647337904718
  N   1.59563350491249     -0.95285206255412     -0.46485788802414
  H   1.15792112912695     -1.71688807326295     -0.96804405967721
  H   2.03481914414150     -0.31087116788731     -1.11466248540684
  C   1.28708349617622      0.85453935137053      1.03669096252028
  N   1.76546125522594      1.81760255498345      1.50982692070612
  N   -1.60848510025023      0.98649160954095      0.41300896790342
  H   -1.22143008989178      1.82748822037789      0.82303797455871
  H   -1.96614597426922      0.38825781586896      1.14690957022299
  C   -1.22979495964381     -0.79743970946237     -1.13586638122490
  N   -1.68009416858159     -1.70227912438795     -1.73303540033445
