14
Coordinates from ORCA-job run
  C   0.47869634622512     -0.51028605937164      0.39466175709284
  C   -0.83872085452793     -0.23184298933524     -0.38097456087888
  Cl  0.30284193671209     -2.04762770589664      1.27663306620965
  H   -1.00091776400776     -1.12976630362516     -0.98599774955820
  N   1.54586752999498     -0.65822170380529     -0.57696079561611
  H   1.87117372746220      0.25932926174769     -0.86218672521444
  H   2.32970117696658     -1.14232153451725     -0.15385803510369
  C   0.71919287696793      0.56764281885400      1.36743165986081
  N   0.92831804165710      1.48443712862749      2.07375788269599
  N   -0.79160901642361      0.91137652389196     -1.25836323810627
  H   -0.12945872727369      0.77317350107531     -2.00871446742841
  H   -0.61395977355821      1.77704977552015     -0.76482456122075
  C   -1.95576617673683     -0.08877299182304      0.56088520679586
  N   -2.84435932345793      0.03583027865768      1.31751056047162
