14
Coordinates from ORCA-job run
  C   0.52901415514928     -0.54372234718634      0.37999653725700
  C   -0.88472142216495     -0.17894274069275     -0.13298035724898
  Cl  0.82283416961209     -2.27669308346182      0.10516251980419
  H   -1.61046211177614     -0.77613922134784      0.42762893298720
  N   1.50037390099616      0.21644323371823     -0.37756833720628
  H   2.43118515905067     -0.15313393345865     -0.22255153344473
  H   1.48661233479261      1.18664279055116     -0.07547335276448
  C   0.59460298868161     -0.31321469422577      1.83466046337930
  N   0.67927704881684     -0.07192517341825      2.98228116452136
  N   -0.98799937988521     -0.49660359251092     -1.53643002102402
  H   -0.29118460523865      0.02492553012132     -2.05410540427260
  H   -1.91062160828663     -0.27004584607867     -1.88450611032205
  C   -1.10478008424978      1.25005756928637      0.18764286262951
  N   -1.25413054549787      2.40235150870392      0.36624263570459
