14
Coordinates from ORCA-job run
  C   0.61933502578203     -0.40863258816998      0.40211413701851
  C   -0.79501205355594     -0.12260751363665     -0.16055249151045
  Cl  1.03387008300652     -2.11959282037112     -0.21285472227047
  H   -1.44867888599847     -0.94324338352471      0.16150007589684
  N   1.50099382085278      0.59063665417672     -0.01953908846735
  H   2.45611866054164      0.44348768532942      0.27543304329163
  H   1.41929210189494      0.73174639564586     -1.01984669840486
  C   0.58942167953757     -0.52303919357275      1.86013587347427
  N   0.55507665770626     -0.60584495478711      3.03154029930181
  N   -0.68832089111802      0.02650728301830     -1.60713254363348
  H   -0.72731491344048     -0.88425233075484     -2.04744219242940
  H   -1.44616359389618      0.59350232299623     -1.96459293148885
  C   -1.30155034674050      1.12145659967026      0.42738404256498
  N   -1.76906734457214      2.10087584398039      0.87485319665684
