14
Coordinates from ORCA-job run
  C   0.58640349326578     -0.30074413253088      0.42113735122190
  C   -0.88216772250397     -0.24398864384804     -0.10552727195177
  Cl  1.14006127977829     -2.04084124196314      0.12749493198836
  H   -1.42565147382893     -1.05215275550027      0.39415478076017
  N   1.38553719344931      0.66545154969200     -0.22442810345206
  H   1.45286034639115      0.48116373525888     -1.21702469208320
  H   2.31413704849764      0.73106959406159      0.17212430268041
  C   0.61538000459802     -0.10877445658642      1.86989993153256
  N   0.60680460454920      0.03684102403322      3.03588805575454
  N   -1.04350633126334     -0.39485454263285     -1.52993459940905
  H   -0.69239939190660      0.40056416621308     -2.04542831369763
  H   -0.63659494142854     -1.25757102969513     -1.86529426645344
  C   -1.47087995120328      1.03327113332640      0.31615381650261
  N   -1.94898415839475      2.05156560017153      0.65078407660659
