14
Coordinates from ORCA-job run
  C   0.58818555969973     -0.36614123178202      0.48136704514471
  C   -0.80766385749924     -0.07695495517426     -0.12400965507114
  Cl  0.82070039273142     -2.20457142669075      0.27065286078980
  H   -1.52671255091858     -0.73537072301793      0.37977656147191
  N   1.54921635042462      0.41908315095689     -0.16184562896523
  H   2.49353914830064      0.24760715735615      0.15412057786962
  H   1.45406206529710      0.33679033048961     -1.16752412196025
  C   0.58808526264059     -0.14334741695931      1.92706600623182
  N   0.57337607640123      0.04495619663271      3.08652917736691
  N   -0.72742826171213     -0.27023680728013     -1.56754154161700
  H   -0.86584871434071     -1.24883517048639     -1.78747990709024
  H   -1.43958428048568      0.27168777379455     -2.03935961960516
  C   -1.17698833732919      1.31169325321269      0.16743760716935
  N   -1.52393885320967      2.41263986894818      0.38081063826483
