14
Coordinates from ORCA-job run
  C   0.58562997983650     -0.50985655009306      0.33888782917686
  C   -0.87204260660544     -0.23787172218900     -0.10424110556674
  Cl  0.99275182599212     -2.20903957705217      0.00381403893353
  H   -1.52797815707740     -0.89888221205809      0.47062921093636
  N   1.46477620226703      0.33893700622632     -0.43755700643418
  H   2.42529654232542      0.03196876947404     -0.33639575297934
  H   1.39814518058707      1.29645442276803     -0.10365474336294
  C   0.69669935740068     -0.31237857139950      1.79573256598203
  N   0.79438960966545     -0.10344773345074      2.94864700833684
  N   -1.01323942588234     -0.53069431382425     -1.50993823361995
  H   -1.96415903655120     -0.36423692164589     -1.81287238286195
  H   -0.37911113982182      0.05196202345772     -2.04276660067689
  C   -1.18110141755655      1.16226054143987      0.26606439913959
  N   -1.42105691457956      2.28382483834673      0.52365077299674
