14
Coordinates from ORCA-job run
  C   0.61830067981641     -0.39068514466859      0.41997957428816
  C   -0.78745065534337     -0.14811023774430     -0.18351716025803
  Cl  1.10546318325111     -2.08518242228214     -0.18952440825256
  H   -1.42325660059776     -0.99097598151622      0.11599568031423
  N   1.47920120815698      0.63784729734802      0.02835912019063
  H   1.42095401149782      0.78282501134814     -0.97252533603384
  H   2.42945124061559      0.52183159780206      0.35070962023743
  C   0.55093465289922     -0.51424338768528      1.87599610362010
  N   0.48590493041143     -0.60967673370914      3.04527779711924
  N   -0.64242953485226      0.01001669518446     -1.62598188737399
  H   -0.63901653433575     -0.89968680104960     -2.07006306551918
  H   -1.40640156554249      0.55475953327771     -2.00432355576676
  C   -1.34948366836646      1.07807229358039      0.39121555312047
  N   -1.84217134761047      2.05320828011448      0.82040196431410
