14
Coordinates from ORCA-job run
  C   0.60235131898489     -0.31617433224942      0.42347600490007
  C   -0.75954136823359     -0.22876067961957     -0.30014455854295
  Cl  0.56438621181523     -1.80848652785148      1.47408441223209
  H   -0.84282250229520     -1.15616120956892     -0.89227050593297
  N   1.63014234300705     -0.35299421545164     -0.56534614627737
  H   1.61972304322012     -1.24541497000970     -1.04732230500510
  H   2.54583030546396     -0.21277172844948     -0.15613316271093
  C   0.79447019191069      0.83699407044955      1.30330012574976
  N   0.96394405061977      1.74803205028762      2.02458777289025
  N   -0.76859447545139      1.00518601131481     -1.06066222855372
  H   -1.66703437097077      1.15202794312114     -1.50242989498956
  H   -0.03797175115484      0.97549709866489     -1.76010417625336
  C   -1.86726468525766     -0.21576026760442      0.65951135177341
  N   -2.77761831165824     -0.18221324303332      1.39945331072037
