14
Coordinates from ORCA-job run
  C   0.62241417553067     -0.40070612482220      0.40276259659017
  C   -0.79771719488629     -0.12975835355112     -0.15306766777254
  Cl  1.04134155065101     -2.11736795520422     -0.19308103557444
  H   -1.44342156111694     -0.95072319496540      0.18398398185695
  N   1.49587191602222      0.59727135922358     -0.03919072046013
  H   2.45421494344535      0.45748664719699      0.24890520816433
  H   1.40487449105359      0.72524846890185     -1.04046781538200
  C   0.60524538103129     -0.49558444352168      1.86209150126634
  N   0.58709041465053     -0.56132165785509      3.03494014137034
  N   -0.70275918789433      0.00139176590737     -1.60232163275506
  H   -0.74029181836490     -0.91525238249350     -2.03041119802979
  H   -1.46643182475164      0.55960007409454     -1.96121429286544
  C   -1.30649923215964      1.11873853918604      0.42271854495007
  N   -1.75393205321092      2.11097725790289      0.86235238864119
