14
Coordinates from ORCA-job run
  C   0.57080848096596     -0.55028828390990      0.42805721116833
  C   -0.70008020982319     -0.25874273779584     -0.39917207321599
  Cl  0.32986523605394     -2.06820584121516      1.33887382493719
  H   -0.79145063554092     -1.10557720631216     -1.08571154458571
  N   1.65343408772578     -0.71706951243211     -0.49586798748598
  H   1.67065532004727      0.09345307560833     -1.10718623056093
  H   2.53692063349222     -0.80916570051932     -0.00902427640912
  C   0.76160414951505      0.53712834141437      1.40693418412564
  N   0.94074567805222      1.45745389938964      2.11681303100112
  N   -0.46914815231872      0.95437011945077     -1.16978162544105
  H   -0.65970560964454      1.77571804196790     -0.60596764201527
  H   -1.07744674286816      0.98033096837489     -1.97836206674851
  C   -1.89488837773194     -0.20291230066344      0.45852074725641
  N   -2.87131385792499     -0.08449286335799      1.10087444797385
