14
Coordinates from ORCA-job run
  C   0.68136197227341     -0.14236127138012      0.33975457148381
  C   -0.57817717884726      0.31553191329402     -0.42537735996296
  Cl  0.11059220856796     -1.02661628716413      1.85048955193875
  H   -0.19760665657091      0.90178149789008     -1.26823129890726
  N   1.50671515824182     -0.92661849356742     -0.50152786870715
  H   2.39339620019345     -1.14329313289871     -0.06399939254755
  H   1.04543225329865     -1.78661449831145     -0.77680174825903
  C   1.41587464841202      1.03786755848538      0.80050299494883
  N   2.04984813442622      1.96624174679495      1.13952474822982
  N   -1.39914277383236      1.17092099818503      0.39695747357051
  H   -1.91739528100195      0.63277622003410      1.07980549769230
  H   -2.05176073100470      1.69241989493437     -0.17336419738085
  C   -1.25276927236919     -0.87571534510018     -0.98068271629166
  N   -1.80636868178717     -1.81632080119594     -1.41605025580755
