14
Coordinates from ORCA-job run
  C   0.63726647028668     -0.46456843006328      0.51134421112208
  C   -0.62629155884966     -0.25041005781263     -0.36966400279786
  Cl  0.43141288729955     -1.99242906648440      1.40654472413816
  H   -0.65642431351174     -1.10021207770874     -1.05947314502465
  N   1.86015276097172     -0.52896064797991     -0.24444616296009
  H   1.85455466986077      0.24491079998938     -0.90331855063358
  H   1.89134949650934     -1.40172117739468     -0.76037835567005
  C   0.71536388405720      0.65127435102192      1.46442117612882
  N   0.73124486904277      1.58758975794921      2.17385442834698
  N   -0.42356140692143      0.96933279890866     -1.13597778284894
  H   -1.01742792799474      0.97615964120030     -1.95583090185919
  H   -0.65572791412239      1.78272284676243     -0.57583930122697
  C   -1.86088821688786     -0.25826125991520      0.43118342967827
  N   -2.88002369974021     -0.21542747847304      1.01458023360703
