14
Coordinates from ORCA-job run
  C   0.56350650489340     -0.36659553360450      0.38086427848056
  C   -0.79434807595149     -0.26375282543792     -0.37591196700277
  Cl  0.50954630491096     -1.85857921149321      1.42684094315340
  H   -0.85693476218655     -1.16767066734598     -0.99601083110497
  N   1.61239379991724     -0.38871772176842     -0.58390295365588
  H   1.58689380301605     -1.25633846431454     -1.10898191762476
  H   2.52288364369686     -0.29649181219459     -0.14983429924929
  C   0.72455430091818      0.79161098171405      1.26063062411580
  N   0.84488575714649      1.74549260110213      1.93573543582000
  N   -0.90255124740892      0.90153443724295     -1.22244122034576
  H   -0.06260032149586      0.98608248683242     -1.78245460430437
  H   -1.00926610709691      1.74148619765607     -0.66551756475751
  C   -1.91295860877833     -0.28981395941414      0.57068129731955
  N   -2.82400499158113     -0.27724650897426      1.31030277915603
