14
Coordinates from ORCA-job run
  C   0.61879501996837     -0.38705668528572      0.45165096039207
  C   -0.84377296814124     -0.26761311286419     -0.11547414349402
  Cl  1.13676292870813     -2.08063017734159      0.13722601286031
  H   -1.46151304449208     -0.99376435198022      0.42375136120441
  N   1.59030306419851      0.49439684772238     -0.12341488016451
  H   1.41131382375918      1.45795014713197      0.13616981235953
  H   1.62461633760743      0.39418580413413     -1.13018497638802
  C   0.57687028392415     -0.18444584181508      1.90250869744538
  N   0.49555603767875      0.00099218812889      3.05980336029642
  N   -1.00151223399592     -0.49396755020773     -1.53033092153983
  H   -0.52297699425517      0.20351635591110     -2.08478934189234
  H   -0.69140906897664     -1.42087767277725     -1.79012442158763
  C   -1.31311682385264      1.08526740758179      0.20871836711447
  N   -1.61991636213082      2.19204664166150      0.45349011339375
