14
Coordinates from ORCA-job run
  C   0.61583564286630     -0.47167555490813      0.47220424447794
  C   -0.77249187477947     -0.16010669022224     -0.16773858360597
  Cl  0.88595804893087     -2.24360138543173      0.17540350733709
  H   -1.51962065325186     -0.82258376233482      0.28993890956594
  N   1.68980919714754      0.27657830093261     -0.08184121119487
  H   1.80831760058548      1.16658817480487      0.38465636955066
  H   1.52626388610762      0.40303813113104     -1.07546191237352
  C   0.53995062852806     -0.27890595785732      1.92135878319110
  N   0.44857645298103     -0.09606145802982      3.07837133605951
  N   -0.64477809020519     -0.29267897026270     -1.61229256359262
  H   -1.38052504006923      0.21687850542408     -2.08467386713902
  H   -0.70966416825089     -1.26896707819024     -1.87287604938973
  C   -1.11317091652325      1.22793993078257      0.15900938163774
  N   -1.37446071406701      2.34355781416183      0.41594165547576
