14
Coordinates from ORCA-job run
  C   0.57514514147873     -0.53322149428614      0.44409228972089
  C   -0.70180979874024     -0.27318042205684     -0.38423254306612
  Cl  0.34374255818772     -2.01814246263129      1.40950513950545
  H   -0.79620821409534     -1.14363120662295     -1.04020167703015
  N   1.65194847911697     -0.73073945370143     -0.48097550153287
  H   2.53839729816032     -0.80651964986645      0.00332338407700
  H   1.66518635937200      0.05929632482990     -1.11863097142622
  C   0.77037815090090      0.58862960610179      1.38206163175612
  N   0.95161221403220      1.53196036781821      2.06059746550890
  N   -0.47826181840355      0.91278628514302     -1.19817074258149
  H   -0.66972323517878      1.75304211970087     -0.66333970545635
  H   -1.08941398528193      0.90770749919903     -2.00497904000754
  C   -1.89158479745537     -0.19016353139587      0.47795330695578
  N   -2.87040835209362     -0.05782398223188      1.11399696357660
