14
Coordinates from ORCA-job run
  C   0.61765730943513     -0.44106162088799      0.55162984058590
  C   -0.62893839647420     -0.26515735883119     -0.36201828087318
  Cl  0.36923089083025     -1.89770463934173      1.54873395168731
  H   -0.66767660032871     -1.16114634721074     -0.99000700333593
  N   1.84952856306585     -0.58231802789783     -0.17873477498555
  H   1.86999095069660      0.14385376837332     -0.88954892916957
  H   1.86984044762493     -1.48921783005004     -0.63262925750870
  C   0.70614674812387      0.73821157398366      1.42383934060469
  N   0.74219342493668      1.72764054229054      2.05633119166787
  N   -0.38977368626595      0.89277286714503     -1.20969695550222
  H   -0.97044158850383      0.85257816629073     -2.03800500995756
  H   -0.61389625466839      1.74847466899426     -0.71293911863713
  C   -1.87225812613679     -0.18889852654005      0.42137459255551
  N   -2.88160368233540     -0.07702723631800      1.01267041286856
