14
Coordinates from ORCA-job run
  C   0.58716561148899     -0.19531369913518      0.60291100488079
  C   -0.50784004062236      0.15747862535682     -0.45265892970041
  Cl  -0.20600314718351     -0.79605344287954      2.07963786519307
  H   0.05848395285945      0.44841368702524     -1.35400860949740
  N   1.54665083255965     -1.17743927603343      0.17584008207183
  H   1.08803373715618     -2.06082122092898     -0.01757327223058
  H   2.05532213807795     -0.86070349098959     -0.64170210197782
  C   1.28524659323128      1.06198524954357      0.90483530632079
  N   1.82258317562755      2.09608965210959      1.05159454051599
  N   -1.40745882693998      1.18112289138739      0.03713120070214
  H   -2.28621759738779      1.16934570056170     -0.46306555524434
  H   -0.98572534088758      2.09583435688249     -0.06789944342869
  C   -1.23742211911004     -1.06780383293729     -0.78742400442490
  N   -1.81181896886974     -2.05213519996279     -1.06861808318051
