15

C	0.0	0.0	0.0
C	-0.521905	-0.135738	-1.419987
Br	1.990235	0.0	0.0
H	-1.608857	-0.007178	-1.332478
H	-0.323247	-1.177486	-1.683594
N	-0.303138	1.420965	0.57201
O	-0.296581	1.519766	1.793892
O	-0.507601	2.341305	-0.211773
N	-0.528966	-0.999371	0.82301
H	-0.342066	-0.780182	1.79443
H	-1.547715	-0.994751	0.677183
N	0.117873	0.726309	-2.408292
H	-0.129306	0.375587	-3.325341
H	-0.273557	1.654133	-2.318075
Br	-3.800083	0.0	0.0
