15

C	0.0	0.0	0.0
C	-0.423773	-0.020789	-1.457445
Br	2.043724	0.0	0.0
H	0.104401	0.770843	-1.993097
H	-1.500515	0.181969	-1.442059
N	-0.294072	1.331068	0.668727
O	-0.391821	1.320915	1.888715
O	-0.37024	2.313667	-0.05759
N	-0.529061	-1.018531	0.709206
H	-0.641711	-1.869391	0.181273
H	-0.354119	-1.068774	1.69648
N	-0.186528	-1.3669	-1.974493
H	0.738963	-1.430726	-2.378711
H	-0.873329	-1.581353	-2.683441
Br	-3.806535	0.0	0.0
