15

C	0.0	0.0	0.0
C	-0.476581	0.017302	-1.439604
Br	2.07049	0.0	0.0
H	0.076015	0.774672	-2.000005
H	-1.530707	0.309472	-1.361503
N	-0.240744	1.376298	0.641694
O	-0.174074	2.354827	-0.090907
O	-0.449597	1.397832	1.84892
N	-0.512869	-1.01672	0.757733
H	-0.831077	-0.698929	1.661974
H	-1.231882	-1.516859	0.248162
N	-0.416395	-1.331384	-1.981659
H	0.49349	-1.513322	-2.384141
H	-1.126329	-1.439419	-2.692405
Br	-3.753889	0.0	0.0
