15

C	0.0	0.0	0.0
C	-0.429502	0.076207	-1.454862
Br	2.042966	0.0	0.0
H	0.107633	0.88784	-1.948109
H	-1.502412	0.292584	-1.41841
N	-0.306754	1.279295	0.756405
O	-0.52803	1.170477	1.95529
O	-0.262836	2.323465	0.119261
N	-0.528976	-1.068003	0.628215
H	-0.62906	-1.887084	0.05019
H	-0.420354	-1.164753	1.621084
N	-0.22044	-1.241214	-2.05196
H	0.689454	-1.293642	-2.490346
H	-0.93524	-1.418933	-2.742997
Br	-3.845672	0.0	0.0
