12

C	0.0	0.0	0.0
C	-0.464847	-0.03991	-1.465639
Br	1.958673	0.0	0.0
H	-1.561494	-0.10891	-1.432184
H	-0.303521	-0.935257	0.471814
H	-0.063289	-0.917779	-1.979312
N	-0.492224	1.08659	0.786057
H	-0.336601	1.963066	0.297485
H	-1.504159	0.943362	0.861673
C	-0.081188	1.161868	-2.196968
N	0.209805	2.142292	-2.773546
Br	-3.698881	0.0	0.0
