12

C	0.0	0.0	0.0
C	-0.497595	-0.177853	-1.429715
Br	1.953735	0.0	0.0
H	-1.59597	-0.198607	-1.377005
H	-0.26912	-0.898667	0.565844
H	-0.151851	-1.134687	-1.829053
N	-0.49075	1.236295	0.534265
H	-0.280617	1.285348	1.524489
H	-1.511345	1.197485	0.43939
C	-0.068154	0.890936	-2.327593
N	0.253375	1.721077	-3.091902
Br	-3.718461	0.0	0.0
