12

C	0.0	0.0	0.0
C	-0.496902	-0.177212	-1.429905
Br	1.95401	0.0	0.0
H	-0.147951	-1.132148	-1.831491
H	-0.26816	-0.899364	0.565249
H	-1.595524	-0.200673	-1.376221
N	-0.491543	1.23551	0.534731
H	-1.512075	1.196896	0.439084
H	-0.282414	1.284477	1.525234
C	-0.069101	0.89457	-2.325488
N	0.256686	1.721635	-3.091631
Br	-3.720051	0.0	0.0
