12

C	0.0	0.0	0.0
C	-0.485443	0.41512	-1.396259
Br	1.956973	0.0	0.0
H	-1.5846	0.390064	-1.340842
H	-0.295475	-1.031964	0.189211
H	-0.16394	1.442	-1.600966
N	-0.497467	0.816678	1.064215
H	-0.358134	1.795243	0.834452
H	-1.507099	0.647157	1.104478
C	-0.029516	-0.456187	-2.473832
N	0.32408	-1.156556	-3.34663
Br	-3.702942	0.0	0.0
