12

C	0.0	0.0	0.0
C	-0.476613	-0.464068	-1.372593
Br	2.020902	0.0	0.0
H	-1.572962	-0.534462	-1.27518
H	-0.254498	-0.753007	0.742865
H	-0.050412	-1.437102	-1.62762
N	-0.533733	1.217478	0.345393
H	-0.730164	1.427091	1.304303
H	-0.474608	1.991205	-0.291499
C	-0.145044	0.498382	-2.417585
N	0.101164	1.284183	-3.253937
Br	-3.835424	0.0	0.0
