12

C	0.0	0.0	0.0
C	-0.474218	-0.442887	-1.39224
Br	1.951591	0.0	0.0
H	-1.571721	-0.485428	-1.330925
H	-0.305833	-0.764039	0.71492
H	-0.087512	-1.435108	-1.640697
N	-0.487206	1.265566	0.454919
H	-0.334893	1.969321	-0.260537
H	-1.497937	1.153939	0.576062
C	-0.083823	0.497128	-2.436826
N	0.209438	1.252362	-3.286765
Br	-3.703117	0.0	0.0
