12

C	0.0	0.0	0.0
C	-0.463579	-0.06268	-1.465496
Br	1.958499	0.0	0.0
H	-0.065065	-0.949764	-1.965031
H	-0.305325	-0.926519	0.485976
H	-1.560121	-0.128567	-1.422957
N	-0.490743	1.100354	0.766491
H	-0.333948	1.966882	0.261283
H	-1.502256	0.95952	0.844378
C	-0.081187	1.128582	-2.215356
N	0.208011	2.099842	-2.808404
Br	-3.692065	0.0	0.0
