14

C	-0.640158	0.00013	-1.389153
C	0.0	0.0	0.0
Cl	0.038749	1.289048	-2.424793
H	1.099131	0.0	0.0
H	-1.706522	0.218625	-1.277904
C	-0.50862	-1.279802	-2.083393
N	-0.401259	-2.308437	-2.639458
N	-0.528466	-1.204361	0.695891
H	-0.070331	-2.011194	0.275847
H	-0.114654	-1.1488	1.623533
N	-0.448857	1.197565	0.687135
H	-1.23376	0.971767	1.288441
H	0.324877	1.535534	1.244306
F	2.655607	0.0	0.0
