14

C	-0.35882	0.287203	-1.439735
C	0.0	0.0	0.0
Cl	-2.16798	0.308112	-1.734961
H	1.108192	0.0	0.0
H	0.024506	-0.519004	-2.063136
C	0.161239	1.574294	-1.894039
N	0.534519	2.628823	-2.250838
N	-0.461349	-1.341701	0.324881
H	0.207494	-1.704317	0.994307
H	-1.352215	-1.271581	0.804576
N	-0.435601	1.030522	0.936165
H	0.328944	1.684753	1.04864
H	-1.246233	1.539507	0.599659
F	2.612696	0.0	0.0
