14

C	-0.523555	-0.017257	-1.429619
C	0.0	0.0	0.0
Cl	-0.090654	-1.521966	-2.320761
H	1.100422	0.0	0.0
H	-0.028658	0.799519	-1.952593
C	-1.974525	0.161625	-1.504663
N	-3.136297	0.323421	-1.562314
N	-0.585581	-1.110484	0.771755
H	-0.031484	-1.149431	1.624208
H	-0.361129	-1.973352	0.283349
N	-0.419125	1.28363	0.544947
H	0.334131	1.627169	1.127686
H	-1.254983	1.154135	1.10449
F	2.663213	0.0	0.0
