14

C	-0.521906	0.029979	-1.430611
C	0.0	0.0	0.0
Cl	-0.089565	-1.445886	-2.368887
H	1.100382	0.0	0.0
H	-0.024361	0.861601	-1.926013
C	-1.972231	0.213153	-1.502452
N	-3.133805	0.376435	-1.555424
N	-0.588858	-1.134178	0.734823
H	-0.353694	-1.981549	0.224531
H	-0.044317	-1.195235	1.592258
N	-0.417821	1.265603	0.586758
H	-1.253908	1.119944	1.140974
H	0.335134	1.586845	1.179824
F	2.662298	0.0	0.0
