14

C	-0.422345	-0.030287	-1.452128
C	0.0	0.0	0.0
Cl	-2.21042	-0.263488	-1.696989
H	1.102567	0.0	0.0
H	0.056009	-0.899825	-1.901141
C	-0.035346	1.176224	-2.180481
N	0.251007	2.152296	-2.767958
N	-0.413477	-1.237214	0.632407
H	0.306239	-1.487338	1.29861
H	-1.290035	-1.086182	1.11948
N	-0.568063	1.170341	0.694592
H	-0.291917	2.004971	0.180234
H	-0.041967	1.228723	1.565617
F	2.641014	0.0	0.0
