14

C	-0.530324	0.027001	-1.431076
C	0.0	0.0	0.0
Cl	0.103834	-1.336356	-2.39574
H	1.098707	0.0	0.0
H	-0.178635	0.935315	-1.92601
C	-1.993735	-0.002118	-1.473376
N	-3.167972	-0.030325	-1.490895
N	-0.510054	-1.151418	0.698161
H	0.182246	-1.455569	1.368824
H	-1.383058	-0.935519	1.166933
N	-0.486487	1.269022	0.61282
H	0.14338	1.994351	0.273387
H	-0.249557	1.18333	1.597866
F	2.657557	0.0	0.0
