14

C	-0.652589	0.013815	-1.380649
C	0.0	0.0	0.0
Cl	-0.147071	1.423422	-2.367623
H	1.093713	0.0	0.0
H	-1.739992	0.106046	-1.268965
C	-0.383339	-1.206065	-2.142405
N	-0.17868	-2.16071	-2.794385
N	-0.389911	-1.274387	0.613892
H	-1.14192	-1.154321	1.283113
H	0.425706	-1.621184	1.105714
N	-0.406397	1.206382	0.715007
H	-1.176906	1.020198	1.348617
H	0.392906	1.49996	1.265206
F	2.629856	0.0	0.0
