14

C	-0.386843	0.012357	-1.485661
C	0.0	0.0	0.0
Cl	0.022838	-1.532019	-2.309116
H	1.101693	0.0	0.0
H	0.219914	0.776897	-1.973734
C	-1.805236	0.292005	-1.704457
N	-2.931008	0.589865	-1.860869
N	-0.671742	-1.119163	0.665657
H	-0.617798	-0.89524	1.65334
H	-0.091697	-1.941337	0.527112
N	-0.403283	1.235277	0.646604
H	0.330145	1.917912	0.510496
H	-1.294199	1.59724	0.322688
F	2.663501	0.0	0.0
