14

C	0.0	0.0	0.0
C	-0.586531	0.051291	-1.378848
F	1.38504	0.0	0.0
H	-1.715851	0.106486	-1.039149
H	-0.356745	-0.909554	0.481159
H	-0.344871	0.855274	0.572544
C	-0.254962	-1.15226	-2.231935
H	-0.721388	-1.086421	-3.214188
H	-0.645363	-2.038227	-1.724723
H	0.824883	-1.270918	-2.371911
N	-0.202365	1.308883	-2.047928
O	-0.008204	1.299117	-3.271402
O	-0.139901	2.339177	-1.371185
F	-2.729516	0.0	0.0
