12

C	0.0	0.0	0.0
C	-0.540344	-0.129486	-1.428442
F	1.372011	0.0	0.0
H	-1.653449	-0.112568	-1.278234
H	-0.367167	-0.845658	0.584495
C	-0.436096	1.259031	0.624719
N	-0.612483	2.286231	1.165241
C	-0.128423	-1.405356	-2.008203
N	0.202187	-2.441298	-2.451384
C	-0.111976	0.981339	-2.274183
N	0.229893	1.874163	-2.956699
Cl	-3.301508	0.0	0.0
