12

C	0.0	0.0	0.0
C	-0.410503	0.176616	-1.49596
F	1.372846	0.0	0.0
H	0.558408	0.2555	-2.011865
H	-0.371434	-0.943278	0.394015
C	-0.407261	1.119489	0.860423
N	-0.455246	2.041892	1.587128
C	-1.126403	1.410868	-1.827667
N	-1.502241	2.449149	-2.227965
C	-1.052764	-1.014196	-2.058548
N	-1.369946	-1.999561	-2.613303
Cl	-2.939391	0.0	0.0
