12

C	0.0	0.0	0.0
C	-0.514175	0.054867	-1.44526
F	1.368646	0.0	0.0
H	-1.627638	0.07995	-1.325525
H	-0.383193	-0.903343	0.476183
C	-0.41589	1.193556	0.75744
N	-0.545085	2.181623	1.378126
C	-0.112954	-1.151666	-2.165659
N	0.200922	-2.129864	-2.734118
C	-0.028641	1.248413	-2.133707
N	0.358552	2.213571	-2.678255
Cl	-3.261904	0.0	0.0
