12

C	0.0	0.0	0.0
C	-0.406619	-0.098753	-1.505281
F	1.373858	0.0	0.0
H	0.563354	-0.10859	-2.024512
H	-0.371876	-0.855118	0.558917
C	-0.405819	1.26036	0.637944
N	-0.4487	2.304056	1.176938
C	-1.121323	1.053715	-2.059524
N	-1.494674	2.000291	-2.646113
C	-1.043527	-1.373584	-1.844341
N	-1.355207	-2.445007	-2.209674
Cl	-2.931978	0.0	0.0
