12

C	0.0	0.0	0.0
C	-0.506117	0.158585	-1.43913
F	1.369614	0.0	0.0
H	-1.620324	0.163684	-1.331251
H	-0.384558	-0.935956	0.406872
C	-0.413945	1.133729	0.846085
N	-0.519261	2.075411	1.538957
C	-0.078097	-0.986038	-2.242415
N	0.250304	-1.910929	-2.88714
C	-0.026481	1.402496	-2.037237
N	0.359006	2.401506	-2.519383
Cl	-3.237912	0.0	0.0
