15

C	-0.29067	0.055316	-1.502822
C	0.0	0.0	0.0
Cl	0.049025	-1.572832	-2.224801
H	1.100142	0.0	0.0
H	-0.362379	0.950107	0.413677
C	-1.685239	0.361526	-1.822685
N	-2.791215	0.659289	-2.087366
C	0.697019	1.045197	-2.114487
H	0.675492	1.012746	-3.205926
H	0.439169	2.055343	-1.779953
H	1.681343	0.777902	-1.702301
N	-0.684114	-1.109218	0.671285
H	-0.069226	-1.91224	0.6007
H	-0.728499	-0.88353	1.658091
F	2.735585	0.0	0.0
