15

C	-0.287119	-0.006106	-1.506439
C	0.0	0.0	0.0
Cl	0.080269	-1.650032	-2.163063
H	1.093001	0.0	0.0
H	-0.35933	0.966471	0.37513
C	-1.690001	0.261235	-1.832247
N	-2.808919	0.540095	-2.063665
C	0.680227	0.981355	-2.151865
H	0.657279	0.911738	-3.241457
H	0.405809	1.99928	-1.854299
H	1.670841	0.746589	-1.732893
N	-0.649762	-1.100481	0.709428
H	0.065745	-1.793717	0.902635
H	-0.981092	-0.76287	1.604316
F	2.72755	0.0	0.0
