15

C	-0.570058	0.007598	-1.417923
C	0.0	0.0	0.0
Cl	-0.055123	1.539775	-2.226539
H	1.097428	0.0	0.0
H	-0.386148	0.896818	0.503033
C	-0.023168	-1.105414	-2.201232
N	0.374634	-2.020946	-2.821036
C	-2.091194	-0.050671	-1.453348
H	-2.492671	0.815144	-0.921294
H	-2.469036	-0.043849	-2.478343
H	-2.403714	-0.964995	-0.947114
N	-0.440017	-1.247153	0.654772
H	-0.959482	-1.046264	1.497489
H	0.41401	-1.71758	0.933513
F	2.652536	0.0	0.0
