15

C	-0.225128	0.011701	-1.533859
C	0.0	0.0	0.0
Cl	0.184016	-1.620834	-2.204027
H	1.094134	0.0	0.0
H	-0.369426	0.96845	0.361609
C	-1.618923	0.256613	-1.903377
N	-2.749257	0.483685	-2.13455
C	0.75204	1.020143	-2.126817
H	0.459044	2.025566	-1.806715
H	1.728532	0.776158	-1.681325
H	0.765502	0.978962	-3.216944
N	-0.579877	-1.080361	0.76445
H	-1.511377	-1.310084	0.438523
H	0.004375	-1.896576	0.646846
F	2.717497	0.0	0.0
