15

C	-0.437039	0.025736	-1.469676
C	0.0	0.0	0.0
Cl	0.211959	1.533345	-2.225152
H	1.092834	0.0	0.0
H	-0.41754	0.894567	0.479228
C	0.136069	-1.118792	-2.185164
N	0.494129	-2.081067	-2.756184
C	-1.948035	0.041105	-1.68805
H	-2.368834	0.907636	-1.173812
H	-2.194258	0.10185	-2.750218
H	-2.398338	-0.868632	-1.282293
N	-0.397552	-1.216341	0.701448
H	0.347293	-1.891193	0.580393
H	-1.267607	-1.623202	0.38189
F	2.643199	0.0	0.0
