15

C	-0.444092	-0.019513	-1.472473
C	0.0	0.0	0.0
Cl	0.243234	1.414514	-2.334581
H	1.09279	0.0	0.0
H	-0.391749	-0.925604	0.444961
C	0.093031	-1.21761	-2.122732
N	0.463355	-2.217032	-2.617479
C	-1.955436	0.010956	-1.685952
H	-2.204759	-0.011567	-2.748598
H	-2.406342	-0.854182	-1.191765
H	-2.372777	0.924401	-1.257699
N	-0.428272	1.163334	0.762375
H	0.293155	1.865068	0.656271
H	-1.306147	1.557621	0.449784
F	2.644874	0.0	0.0
