15

C	-0.444845	-0.063398	-1.470145
C	0.0	0.0	0.0
Cl	0.244854	1.344386	-2.376533
H	1.092773	0.0	0.0
H	-0.394304	-0.910068	0.474375
C	0.088782	-1.281659	-2.084535
N	0.47634	-2.286722	-2.553581
C	-1.955229	-0.035268	-1.684791
H	-2.372412	0.891143	-1.286271
H	-2.205782	-0.090025	-2.746181
H	-2.410194	-0.882631	-1.164058
N	-0.425837	1.188707	0.724305
H	-1.29717	1.580748	0.388607
H	0.304051	1.879207	0.602113
F	2.643398	0.0	0.0
