15

C	-0.234257	0.076809	-1.530976
C	0.0	0.0	0.0
Cl	-0.004783	-1.580295	-2.214824
H	1.09402	0.0	0.0
H	-0.463665	-0.903817	0.40194
C	-1.599566	0.482396	-1.870851
N	-2.69266	0.863112	-2.083262
C	0.817294	1.0007	-2.140675
H	0.598126	2.029699	-1.839876
H	0.818554	0.945185	-3.232433
H	1.778317	0.699458	-1.692078
N	-0.432728	1.187962	0.722166
H	-1.297222	1.582869	0.371069
H	0.301034	1.880557	0.668661
F	2.71863	0.0	0.0
