13

C	-0.614568	0.29268	-1.521118
C	0.181728	0.099413	-0.214747
Br	-2.551889	0.286368	-1.11435
H	1.257403	0.178834	-0.458918
H	-0.063657	0.947103	0.438808
C	-0.322718	1.582384	-2.146092
N	-0.061823	2.626407	-2.619
C	-0.369176	-0.789796	-2.471884
N	-0.162436	-1.617621	-3.279643
N	-0.070624	-1.212784	0.323243
H	-0.803105	-1.165233	1.020102
H	0.793727	-1.475648	0.806016
Cl	2.824849	-0.868906	1.670513
