17
Coordinates from ORCA-job run
  C   0.89116737822085     -0.25768864673995     -0.29103213261799
  C   -0.47799724986131      0.38011085626441     -0.61679424673230
  Br  1.45477259786017     -1.34354286600200     -1.83192631679725
  H   -0.36978159269254      0.96311908829849     -1.53262298469881
  C   1.84267893250308      0.84704627486501     -0.18368067812422
  N   2.57767578550121      1.75596537092456     -0.05646835254290
  C   0.95668535788459     -1.12033792670826      0.96644161834352
  H   0.68892331870340     -0.52436878218065      1.84162391437085
  H   1.97531404166789     -1.48726135565989      1.09562301294083
  H   0.27556502156194     -1.96446019070786      0.88523100404892
  C   -1.03676761663294      1.22566931037921      0.51553351879285
  H   -1.95998693697801      1.70574437243594      0.18415153421169
  H   -0.32664812376534      2.00765200945357      0.79002419140643
  H   -1.26147442308175      0.61259133779318      1.38723080049813
  N   -1.48525883361376     -0.67653853777532     -0.96677307034266
  O   -1.82803547011289     -1.44417104316586     -0.06920969438710
  O   -1.91583218716458     -0.67652927147461     -2.11635211836998
