17
Coordinates from ORCA-job run
  C   0.79048192336218     -0.34121718915312     -0.14655970679337
  C   -0.52730626321467      0.45867138491419     -0.23295432881138
  Br  0.50885052514232     -2.20398331379857     -0.70688839831260
  H   -0.25553193277689      1.50913096146414     -0.08792729125227
  C   1.80639265830174      0.22135641288180     -1.03499815965289
  N   2.68107023499826      0.67881286151702     -1.67380888636671
  C   1.33172399631337     -0.34482781479671      1.28371822631636
  H   1.44513146077995      0.68529895471775      1.63483980632784
  H   0.65809478915077     -0.88567001944969      1.94734283155620
  H   2.30684889740894     -0.83165200650394      1.30554804219682
  C   -1.60198532320693      0.03257060460818      0.74361280983170
  H   -1.80925879875041     -1.03370737421132      0.66701909202688
  H   -1.29976719757540      0.27665867360674      1.76258739874869
  H   -2.52438154396683      0.57282024884624      0.52768951711139
  N   -1.04920414878593      0.41290487699691     -1.64661038585020
  O   -0.47635328609487      1.13884265129939     -2.45667880993138
  O   -1.98480599108560     -0.34400991293903     -1.88793175714509
