17
Coordinates from ORCA-job run
  C   0.88759371863703     -0.11728921419030     -0.06293945377213
  C   -0.54031392695004      0.23394368835924     -0.53123305277912
  Br  2.10645330704898      0.59708327340956     -1.43817595265709
  H   -0.65326953283233     -0.12870930072317     -1.55384294491000
  C   1.22881426556823      0.54954588938200      1.18959456064127
  N   1.51843004941572      1.07538617985394      2.20037858852565
  C   1.11456091589476     -1.62282703893427      0.04024256754596
  H   0.83459322952205     -2.10724928529708     -0.89700813353314
  H   2.16396507601340     -1.82953939577530      0.25024969357438
  H   0.51062648100883     -2.03248924287213      0.85337724117051
  C   -0.92775296487397      1.69154829676514     -0.39119715423771
  H   -0.25722924820545      2.31466060563599     -0.98344117713092
  H   -0.87900573715963      2.00131554205648      0.65294126330831
  H   -1.94686116637003      1.83811950487089     -0.75519763785503
  N   -1.49161078915686     -0.60761452341139      0.27435092369915
  O   -1.59003996029024     -0.34428926652018      1.47060323068468
  O   -2.07795371727046     -1.51159571260941     -0.31770256227478
