17
Coordinates from ORCA-job run
  C   0.86173802108429     -0.16933845031798     -0.41515257771607
  C   -0.56206468554708      0.42337128132339     -0.50954492264335
  Br  1.29349639827312     -1.03136276304085     -2.13030582900276
  H   -0.58435010798520      1.11704801196367     -1.35135262738984
  C   1.77119232557318      0.96677147002866     -0.27510541482284
  N   2.47888262233423      1.89228580009826     -0.11608621994383
  C   1.10777069536694     -1.16945627496953      0.71137648810844
  H   0.46037765686789     -2.03628891810913      0.59932025938016
  H   0.91431042954058     -0.69788769635431      1.67732325308082
  H   2.14992361301723     -1.48892182185766      0.68435657216309
  C   -1.02477975577663      1.09297889174693      0.77365817727217
  H   -1.99680858898491      1.56138926025508      0.60519861252457
  H   -1.12755661889224      0.36634967310347      1.57849884858834
  H   -0.31938081635414      1.87115029616625      1.07045442614456
  N   -1.55483691934040     -0.64024423614458     -0.88004404650230
  O   -2.10958960433209     -0.52889336452839     -1.96954272069611
  O   -1.75932466484477     -1.52895115936327     -0.05505227854506
