17
Coordinates from ORCA-job run
  C   0.88879963025110     -0.10224334041003     -0.06700367351075
  C   -0.54624958512607      0.23015965552070     -0.52742127527635
  Br  2.09173382186854      0.64364489195633     -1.43902300890873
  H   -0.65716822730098     -0.12785737962984     -1.55190374755952
  C   1.22332869898872      0.55577591054783      1.19209477669046
  N   1.50877316519831      1.06839910222426      2.21096782416476
  C   1.13987653809468     -1.60504381039558      0.02168550377648
  H   0.86544984638391     -2.08577852140838     -0.91902220496513
  H   2.19282583577304     -1.79691169283365      0.22763067907658
  H   0.54457897540935     -2.03129805019811      0.83256326205144
  C   -0.95497162403335      1.68079716626611     -0.37701537331336
  H   -1.97950244198752      1.81333418604483     -0.73113595063554
  H   -0.29947230138605      2.31664860874621     -0.97255927131633
  H   -0.90197629481057      1.98679044623772      0.66805875948005
  N   -1.48112866717503     -0.63087603882570      0.27651557766352
  O   -2.05474192357496     -1.54101317962915     -0.31863289622244
  O   -1.58115544657309     -0.37452795421354      1.47420101880484
