17
Coordinates from ORCA-job run
  C   0.89014406092371     -0.06440880298717     -0.09319744256720
  C   -0.56950809732265      0.21456375483650     -0.50846136913448
  Br  2.02188080359483      0.75000407529260     -1.48666048452410
  H   -0.69508983854662     -0.13334146918942     -1.53475000080605
  C   1.23311187910742      0.58932441541128      1.16592615997213
  N   1.52588556606155      1.09899542039718      2.18416154175335
  C   1.20540473336678     -1.55658462816948     -0.03397040912174
  H   0.65258087293903     -2.01819966881841      0.78757381808566
  H   2.27110776753535     -1.70686841234764      0.13830998613722
  H   0.92309631845521     -2.03532354682714     -0.97334381553794
  C   -1.03373906914059      1.64464620458642     -0.32520080357334
  H   -0.96244563637162      1.93893844562085      0.72206104603964
  H   -0.42385110237550      2.31559784880027     -0.93043337259856
  H   -2.07294305516336      1.73795504476330     -0.64722117326305
  N   -1.44558136755680     -0.69540993816508      0.30781141409975
  O   -1.99839024761120     -1.61983193719396     -0.28510114638713
  O   -1.52266358789553     -0.46005680601012      1.51149605142582
