17
Coordinates from ORCA-job run
  C   0.89028706726451     -0.22330070415875     -0.31637512707627
  C   -0.49947153733669      0.39209467040114     -0.59401383512062
  Br  1.44999646777670     -1.23881265648589     -1.90622195469776
  H   -0.42167993297501      1.01267642031724     -1.48794747538261
  C   1.81916290307879      0.89765588523802     -0.18465624312594
  N   2.54890420587148      1.80664084815674     -0.02984860326744
  C   0.99980435938708     -1.12938437685399      0.90733987976968
  H   2.02907679819793     -1.47581057771083      1.00464000494014
  H   0.73459357079570     -0.57165256040113      1.80817671400128
  H   0.33726125122221     -1.98614365460083      0.80727254392025
  C   -1.05787548414694      1.17802064119950      0.58068175697791
  H   -1.99433414067337      1.65457504524921      0.28317322713200
  H   -0.35813097625417      1.96059949521711      0.87943120904160
  H   -1.25794539090362      0.52367787169310      1.42814308500349
  N   -1.48734938191389     -0.67466633867989     -0.96931373648594
  O   -1.79271812011626     -1.48798324205027     -0.09907262658323
  O   -1.93858165927445     -0.63818676653047     -2.11040881904654
