17
Coordinates from ORCA-job run
  C   0.89051458646549     -0.08582581588562     -0.07553231714320
  C   -0.55499869680105      0.21838479245324     -0.52259586578718
  Br  2.06573577167457      0.67652910661781     -1.46206432254716
  H   -0.66959330426129     -0.14503132561118     -1.54480121554259
  C   1.22522444466220      0.58240799265767      1.17807161146568
  N   1.51144151882329      1.10186792244399      2.19315231177467
  C   1.16939766425044     -1.58350889754232      0.01600901348765
  H   0.59115619966617     -2.01743360781030      0.83522138165947
  H   0.89261966858495     -2.07270318648842     -0.91964577348131
  H   2.22797102960729     -1.75580551121307      0.21050174146237
  C   -0.98945751856912      1.66162587399634     -0.37314963443916
  H   -2.01929444571378      1.77355544287463     -0.71887895330834
  H   -0.35126909010217      2.30752853165248     -0.97659045041179
  H   -0.93303561180534      1.97226547559540      0.67034490177697
  N   -1.46614215733421     -0.65702526822422      0.29313069085730
  O   -2.03116132655508     -1.57753825315872     -0.29426228216325
  O   -1.55910873259241     -0.39929327235777      1.49108916234024
