17
Coordinates from ORCA-job run
  C   0.63446126063561     -0.58373921796100      0.14001943597802
  C   -0.51716897530000      0.25099473201560     -0.46043866809191
  Br  -0.05334015930510     -1.86230176758918      1.46506238996561
  H   -0.08756246717681      0.79770716114028     -1.30585028130317
  C   1.31172130811779     -1.36552017123750     -0.89340927037028
  N   1.93942284407739     -1.95360751968754     -1.69499802441408
  C   1.65891591361371      0.31926309454914      0.82814457466123
  H   2.50879014912293     -0.27701059924746      1.16067009243820
  H   1.21735981575949      0.80913079861231      1.69516983977346
  H   2.01444870103086      1.07439672276408      0.12048860147710
  C   -1.20045672413373      1.19186969221968      0.50818448056773
  H   -0.51820321180701      1.99235535648326      0.79625711830484
  H   -2.06649675212185      1.64542657974161      0.02489104615399
  H   -1.54646495193422      0.66602672097606      1.39675887934477
  N   -1.52349511299939     -0.67090786333040     -1.10079956480529
  O   -2.56526074451968     -0.89445639194906     -0.49136874730350
  O   -1.20667089305999     -1.14062732749991     -2.19178190237673
