17
Coordinates from ORCA-job run
  C   0.88513603035094     -0.10999465681750     -0.09347718846911
  C   -0.55700006287618      0.25468681904870     -0.50398603917202
  Br  2.06263274607055      0.67242067999103     -1.46702711689379
  H   -0.70028950957528     -0.07103444122183     -1.53521103940206
  C   1.25802839822906      0.49627964478793      1.18096620885135
  N   1.57424857963235      0.96341047695402      2.21258577266085
  C   1.12039351115993     -1.61784709871325     -0.06543762985948
  H   2.17634859192892     -1.82820951036009      0.10419769357983
  H   0.81399436318018     -2.06129185407770     -1.01453299706783
  H   0.54259859070324     -2.06703890540183      0.74592679546701
  C   -0.94304499225430      1.70489815368955     -0.29988180704900
  H   -0.84788178375498      1.98329405473369      0.74970031020690
  H   -1.97861585517381      1.85682545499272     -0.61092902609792
  H   -0.30409119985851      2.34947017992953     -0.90356312169386
  N   -1.47990346042968     -0.61998793712048      0.29973492024263
  O   -1.56533884395177     -0.38156371509970      1.50211464243263
  O   -2.05721510338068     -1.52431734531479     -0.30118037773612
