17
Coordinates from ORCA-job run
  C   0.68313022255911     -0.52247851934071     -0.15146206847168
  C   -0.48840368861640      0.47471351798980     -0.28052030373685
  Br  0.01493878777649     -2.36889874832193     -0.06215284461786
  H   -0.03748749528942      1.44601098482861     -0.50777882149809
  C   1.56910088320346     -0.44640833791793     -1.31213375641063
  N   2.35530217970483     -0.37181870734229     -2.18314323465072
  C   1.49836226764058     -0.24341965750347      1.11186564913590
  H   2.37254814216633     -0.89423517347474      1.13546579081767
  H   1.83516157611566      0.79763508927167      1.10744862450240
  H   0.90093833645628     -0.43120119855373      2.00318248693578
  C   -1.39284615759924      0.56261870087789      0.92960575049311
  H   -0.85552150741560      1.00977191949830      1.76660665092659
  H   -1.77028642153482     -0.41767245577362      1.21659456733267
  H   -2.24723001382831      1.20001751991365      0.69923678886127
  N   -1.28854812252500      0.15008281980912     -1.51627071250338
  O   -0.78973264061532      0.49145571158857     -2.58677898711729
  O   -2.35742634819864     -0.43517346554919     -1.36976557999888
