17
Coordinates from ORCA-job run
  C   0.89113466653170     -0.25865447730260     -0.28639654480635
  C   -0.47544077694766      0.38068779297304     -0.61957372056722
  Br  1.46143225351429     -1.34744924494394     -1.82301677191664
  H   -0.36200304636656      0.96294016395074     -1.53517494552132
  C   1.84497165831443      0.84373597308368     -0.17548030366833
  N   2.58377011301551      1.74918650993401     -0.04488972137242
  C   0.94951791083076     -1.11983616338532      0.97254393948242
  H   1.96804429243133     -1.48458748334736      1.10886520355048
  H   0.27035710923301     -1.96535143399702      0.88840074298246
  H   0.67500674787993     -0.52299235521159      1.84515788492181
  C   -1.03891352751257      1.22692883816211      0.50980735707525
  H   -1.95652192478817      1.71325004332508      0.17190598648974
  H   -0.32663828590195      2.00408902945734      0.79235583955720
  H   -1.27445030733945      0.61300640731080      1.37812066373616
  N   -1.48128307285600     -0.67571164193388     -0.97475734074064
  O   -1.90346693651344     -0.67751395019193     -2.12756266757665
  O   -1.82851687352515     -1.44372800788314     -0.07930560162595
