17
Coordinates from ORCA-job run
  C   0.89018578984348     -0.28204458897094     -0.26757311840834
  C   -0.46340813405397      0.36451569785130     -0.63795501184670
  Br  1.45858130006374     -1.43518969957590     -1.75712448857804
  H   -0.33212746386568      0.91117141519582     -1.57295547196887
  C   1.85916077759387      0.80979935339428     -0.18781625990141
  N   2.61030761381766      1.70839688389546     -0.08295870008352
  C   0.92349093395151     -1.09667953845740      1.02285698882704
  H   0.23044192368310     -1.93290193200139      0.96372101548934
  H   0.65240962904414     -0.46327632705144      1.87033907019934
  H   1.93429087978703     -1.47358570086794      1.18141286740549
  C   -1.02515975706901      1.25972252973712      0.45391933559736
  H   -0.30515272643633      2.03792742195167      0.71316675420528
  H   -1.93370853512382      1.74443739498122      0.09028907070975
  H   -1.27539632401398      0.68198943892462      1.34270206031569
  N   -1.48175727121459     -0.68914344802977     -0.96470566694782
  O   -1.84993124292632     -1.41801864678925     -0.04523506366582
  O   -1.89222739308084     -0.72712025418744     -2.12108338134877
