17
Coordinates from ORCA-job run
  C   0.89328318025381     -0.23596119181719     -0.29921424833884
  C   -0.48726174956657      0.38599499700195     -0.60668136033481
  Br  1.46926490438002     -1.27980672024903     -1.86457427118994
  H   -0.39105441519906      0.99106947214202     -1.50944001788706
  C   1.82811087486583      0.88098440065698     -0.17190724414330
  N   2.55237731751431      1.79613607973471     -0.02870011549995
  C   0.97857948417888     -1.12400097943584      0.93939710129474
  H   0.31394884046905     -1.97958665213416      0.84214367144156
  H   0.70132770737221     -0.55238690564117      1.82783661048261
  H   2.00478898762202     -1.47294933139395      1.05814884867213
  C   -1.05648837369905      1.19632330464856      0.54591759920174
  H   -1.98792560485375      1.66932535774373      0.22749503241695
  H   -1.26978497373574      0.55947166693842      1.40330016289051
  H   -0.35841069390505      1.98304755940382      0.83713714140279
  N   -1.47733378584771     -0.67980061749532     -0.97753033919916
  O   -1.90902282658353     -0.66334653625154     -2.12666096921313
  O   -1.80339887326566     -1.47351390385200     -0.09666760199683
