14
Coordinates from ORCA-job run
  C   -0.55282014925114      0.24682306848981     -0.46279182781560
  C   0.79746592226418     -0.41214094418212     -0.75669406079508
  F   -1.27083390232098      0.10691559079429     -1.64767248660585
  H   1.29355789268473      0.10378328492041     -1.57695228495246
  H   0.63155961458802     -1.46344925656335     -0.98772115896259
  C   -1.33351340569340     -0.41452707457700      0.65356035240384
  H   -0.83416175419786     -0.29047811639071      1.61426084607613
  H   -2.32469080217519      0.03774211538261      0.70611149358614
  H   -1.43527427696353     -1.48004882090766      0.44208379305471
  C   -0.38760609539124      1.68800684182548     -0.20719608471159
  N   -0.27886628210650      2.83633882176537      0.01196798918604
  N   1.68487463043037     -0.34147143517937      0.43482631045650
  O   1.58610010919073     -1.25308995892359      1.25491170857532
  O   2.42420849894182      0.63659588354584      0.52130541050449
