14
Coordinates from ORCA-job run
  C   -0.44974154146221      0.22086371245720     -0.17414758959767
  C   0.80413323270723     -0.57665921445415      0.15364928011787
  F   -0.70696223247238      0.04151788844002     -1.52741743877671
  H   0.60392648353911     -1.64122734372918      0.04481275559609
  H   1.16501123948553     -0.34950318006408      1.15843349748508
  C   -1.63868512830857     -0.30587070282164      0.61167840904893
  H   -2.53215795884297      0.25065719365994      0.32734501864575
  H   -1.47848601574041     -0.18993020876624      1.68505982853644
  H   -1.78850277220893     -1.36080576608315      0.37558256292946
  C   -0.29040609796264      1.66326445585850      0.07987945523179
  N   -0.26015039921238      2.80565433366935      0.34823784064978
  N   1.91325498160246     -0.26223252018703     -0.79725160248216
  O   2.21344521946776      0.92005429729952     -0.92475748215009
  O   2.44432098940841     -1.21378294527905     -1.36110453523457
