14
Coordinates from ORCA-job run
  C   -0.57641316546473      0.16698962398795     -0.37053941586345
  C   0.91497043016928     -0.02746299024315     -0.65318744595427
  F   -1.27719632040564     -0.84659929737026     -1.00412234560135
  H   1.48411127532970      0.85510317075884     -0.36601098237850
  H   1.05537182585240     -0.27202713104167     -1.70574854288540
  C   -0.93430529155601      0.14855391389109      1.10285995218707
  H   -0.71925752680842     -0.83848481517464      1.51406710701982
  H   -2.00002973896403      0.34948204836934      1.21410849477641
  H   -0.36403337952011      0.89709982307545      1.65446932765523
  C   -0.96770512321336      1.44615542482691     -0.99239919353886
  N   -1.25707673693857      2.47740608274362     -1.47337600006114
  N   1.43232663997785     -1.16773214229002      0.15091882229371
  O   1.98699425361279     -0.88909055183764      1.21309703005438
  O   1.22024285792885     -2.29639315969582     -0.28413680770365
