18

C	0.0	0.0	0.0
C	-0.523489	-0.020875	-1.431906
F	1.407463	0.0	0.0
H	-1.631617	-0.055354	-1.290719
C	-0.476736	1.250039	0.703724
H	-1.575605	1.242699	0.665499
H	-0.14629	1.233962	1.745826
H	-0.075404	2.147277	0.224948
C	-0.468925	-1.242069	0.724561
H	-0.087026	-1.226317	1.749664
H	-1.566192	-1.21339	0.733629
H	-0.118105	-2.138578	0.211545
N	-0.063977	-1.203176	-2.159711
H	0.928073	-1.106156	-2.348095
H	-0.544117	-1.254752	-3.050608
C	-0.177925	1.224898	-2.140314
N	0.095359	2.18492	-2.763381
H	-3.26214	0.0	0.0
