12
Coordinates from ORCA-job run
  C   -0.50568180055853      0.17695744737747      0.13241820548375
  C   0.65407327303723     -0.55050495988047     -0.56664485752021
  Br  -2.02471820333057      0.35186800907054     -1.02981218909283
  H   1.46526299352448     -0.66866451727836      0.15850505696031
  H   0.30586557330300     -1.54134442709593     -0.87437055415987
  N   -0.84408189906388     -0.71064568363541      1.36368755445584
  O   0.00217377343621     -0.65250832670782      2.24628996116441
  O   -1.83917012159078     -1.41009072836313      1.32524297653680
  C   -0.10685393988554      1.48459606477394      0.62772027815968
  N   0.23158010435180      2.54678272282793      1.00218863714699
  C   1.13236195903917      0.19055452421951     -1.72727485202766
  N   1.53018828773741      0.78299987469173     -2.65895021710720
