12
Coordinates from ORCA-job run
  C   -0.58098886921817      0.23383096195175      0.07205572612977
  C   0.67895851467251      0.23087977765822     -0.80605980311191
  Br  -2.10062509533726     -0.46932922258940     -0.86868548463617
  H   1.49338626590566      0.68252608272383     -0.23258058769173
  H   0.49219248096449      0.84572629567140     -1.68998438059253
  N   -0.24495248069692     -0.62965346397913      1.32245257700562
  O   0.63956534245633     -0.13668842420487      2.01017554959609
  O   -0.82470435243814     -1.68552389963248      1.48600452880033
  C   -0.86890022738435      1.58061191340086      0.54161170524366
  N   -1.08840346853681      2.68228481839863      0.88957772824203
  C   1.04775289749920     -1.12311289649626     -1.20673698676913
  N   1.35671899211347     -2.21155194290252     -1.51883057221605
