12
Coordinates from ORCA-job run
  C   -0.43329054673457      0.17869153206821      0.19047589225469
  C   0.59373910837210     -0.61762996652438     -0.61659140188702
  Br  -2.10605568254070      0.33127143248649     -0.77554699173420
  H   0.17294810391073     -1.59593925967435     -0.85402105980357
  H   1.48061384342239     -0.77198936477874      0.00728906427319
  N   -0.74646447231325     -0.59271858365830      1.48916425090834
  O   -0.65275606284034     -1.81019882176286      1.42297006364803
  O   -1.09465526236026      0.07751565123412      2.44839825889044
  C   0.05427251653197      1.50070579727634      0.54679218073604
  N   0.49665117700764      2.56027069788011      0.80141569592066
  C   0.96481915126273      0.08961891900773     -1.83696358562707
  N   1.26917812628157      0.64940196644564     -2.82238236757953
