12
Coordinates from ORCA-job run
  C   -0.63523810032877      0.18138792753764      0.06715547086081
  C   0.20545591218656     -0.46727361780411     -1.03129865667065
  Br  -2.51725352881537     -0.12213558939734     -0.29179777353057
  H   -0.04005673228905     -1.52916941231564     -1.08164371518645
  H   -0.05154618110969     -0.00061852870047     -1.98565602171891
  N   -0.33056398996446     -0.50091221037530      1.41697307120680
  O   -0.07005543370295     -1.69307960848988      1.35810228884555
  O   -0.41887129336204      0.19928096171407      2.41340291942903
  C   -0.38296825476634      1.60692452994515      0.19149199465378
  N   -0.16127608493304      2.76131890743316      0.22749667699297
  C   1.63001224410413     -0.29337462022999     -0.75629843239286
  N   2.77136144298103     -0.14234873931729     -0.52792782248952
