12
Coordinates from ORCA-job run
  C   -0.44403907911287      0.16461687912980      0.17821432596725
  C   0.62629993415653     -0.61965403477994     -0.58327637637500
  Br  -2.11450926196618      0.18755391783329     -0.80371268431889
  H   0.25418115753331     -1.62671573052843     -0.77783841438520
  H   1.51360235809912     -0.70289762327736      0.05357902326981
  N   -0.72986214111899     -0.55462944547274      1.51192198023379
  O   -0.56952841503046     -1.76693479605092      1.51032201841808
  O   -1.12511389363256      0.14423133311669      2.43169258865853
  C   -0.02393668933643      1.52507917869974      0.47006915363626
  N   0.36420724645652      2.61668510583311      0.67236706165963
  C   0.97711349656294      0.04960564007555     -1.83084258881906
  N   1.27058528738907      0.58405957542120     -2.83349608794518
