12
Coordinates from ORCA-job run
  C   -0.49129262959209      0.29298777505612      0.08737652987893
  C   0.77612784848568      0.12665451709576     -0.75212247532176
  Br  -2.07326574271851     -0.18315601641936     -0.91749428964368
  H   1.64249827780588      0.34140363708379     -0.12085583014145
  H   0.74351796943236      0.86974860656719     -1.55395251874356
  N   -0.43674080710104     -0.60681987170736      1.34779124638716
  O   -1.39186887753286     -0.52341685942396      2.10064528913382
  O   0.56672848591731     -1.29374877368562      1.47934662936601
  C   -0.61147510896336      1.66334459237628      0.56445648556993
  N   -0.65746023918293      2.78032766257820      0.92955512608569
  C   0.90622297556675     -1.20596374289642     -1.33234043031984
  N   1.02700784788280     -2.26036152662464     -1.83240576225125
