12
Coordinates from ORCA-job run
  C   -0.63311917618514      0.18544262321531      0.08799531325911
  C   0.17023491430446     -0.45846661135757     -1.04124601436358
  Br  -2.52632685545713     -0.10419349641205     -0.21486073138521
  H   -0.08301761595325     -1.51860593720530     -1.09246382005933
  H   -0.11214727261805      0.01771356394822     -1.98368663493931
  N   -0.28843677936978     -0.51156540307453      1.42062088742572
  O   -0.05898701926733     -1.70899558977054      1.34407465123133
  O   -0.31573843254465      0.18436390494640      2.42359948058666
  C   -0.36787716209683      1.60816012101792      0.21587283083603
  N   -0.13991946142552      2.76129085775581      0.25418182682749
  C   1.60341160583540     -0.29643296404350     -0.80637485380181
  N   2.75192325477782     -0.15771106902015     -0.60771293561709
