12
Coordinates from ORCA-job run
  C   -0.63512500060369      0.16987946382713      0.09352393344584
  C   0.17217757117007     -0.45656512214079     -1.04240381449131
  Br  -2.52462338136052     -0.16229689933878     -0.19307853794484
  H   -0.05496830033151     -1.52281772368881     -1.08852710901040
  H   -0.13213358739042      0.00974706757085     -1.98291233102305
  N   -0.26520176790399     -0.51814731550022      1.42387470531167
  O   -0.30561766023214      0.17695383895068      2.42697484128874
  O   -0.00471490683540     -1.70918701696553      1.34602426666812
  C   -0.40195405563802      1.59841285636377      0.21940220742422
  N   -0.20118102030843      2.75660283166599      0.25762915818417
  C   1.60300704778834     -0.25680303246078     -0.82292764581571
  N   2.74933506164571     -0.08577894828350     -0.63757967403745
