12
Coordinates from ORCA-job run
  C   -0.63799471795870      0.15910688523150      0.09887092297572
  C   0.16698355949675     -0.47077536936009     -1.03674646255788
  Br  -2.52319858627229     -0.21830093772077     -0.15474212494713
  H   -0.04034672018829     -1.54182049981422     -1.06194924221283
  H   -0.15850310354421     -0.02626505867924     -1.98075727627421
  N   -0.23418832893483     -0.49728053786163      1.43635686029563
  O   -0.27349267017463      0.21519508216968      2.42718819613270
  O   0.04903213448454     -1.68406260637123      1.37591446283781
  C   -0.43307856963366      1.59399402924118      0.19673102175967
  N   -0.25358777015379      2.75624054560126      0.21002604879167
  C   1.59655777379428     -0.24055823894163     -0.83970616242324
  N   2.74181699908484     -0.04647329349482     -0.67118624437791
