12
Coordinates from ORCA-job run
  C   -0.58759555188301      0.22209968446253      0.05594263013079
  C   0.69179895251254      0.23510968294170     -0.79359484618960
  Br  -2.07073497638252     -0.52415557407586     -0.90938813880175
  H   1.48361418783726      0.70993799021178     -0.20720616543608
  H   0.51233038537805      0.83611742978113     -1.68842648886377
  N   -0.26246783007334     -0.61853880631059      1.32474107173495
  O   -0.82288163352064     -1.68488354772927      1.48798350886265
  O   0.59495269984453     -0.09831543558164      2.02651056780074
  C   -0.91312659007185      1.56849564789220      0.50133143466402
  N   -1.15745920304729      2.67077729989593      0.82995191341889
  C   1.09694878416741     -1.11586329723403     -1.16886072594578
  N   1.43462077523884     -2.20178107425387     -1.45898476137504
