12
Coordinates from ORCA-job run
  C   -0.43518704266275      0.18225622664266      0.18207299577811
  C   0.59729120457797     -0.59814564368725     -0.63363435576374
  Br  -2.05110225419553      0.47629567599089     -0.84549050309691
  H   1.44515983050775     -0.83661840128756      0.01748859189208
  H   0.14947804178049     -1.53679714258780     -0.96368876483545
  N   -0.84237405813128     -0.66539846755335      1.40515494180447
  O   -1.21591670803307     -0.05051959235818      2.39147719819372
  O   -0.78777380470580     -1.87792735004193      1.25682384409142
  C   0.08717558774958      1.45266116749001      0.65699303426234
  N   0.55758309197270      2.47180439032545      1.00806092928829
  C   1.05834555513454      0.18095731467574     -1.77724992746640
  N   1.43832055600539      0.80143182239132     -2.69800798414792
