12
Coordinates from ORCA-job run
  C   -0.63500472641713      0.16712530293163      0.10454276659282
  C   0.15062415061845     -0.48174812231809     -1.03385161565228
  Br  -2.52722843992259     -0.19052003637904     -0.12658192633075
  H   -0.06908068505751     -1.55052680228952     -1.04826853777736
  H   -0.17986772323595     -0.04146024969670     -1.97805797082233
  N   -0.22476187830128     -0.48064700872201      1.44357548121315
  O   -0.24838194393717      0.24116003375051      2.42807354338186
  O   0.04771326192226     -1.67035267105955      1.39111943250675
  C   -0.41268546588094      1.60060230985122      0.18591933634401
  N   -0.21932010166694      2.76064317809875      0.18464571109906
  C   1.58486348425475     -0.26679024688882     -0.85361962218032
  N   2.73413006762406     -0.08548568727839     -0.69849659837460
