12
Coordinates from ORCA-job run
  C   -0.48916424412516      0.28583828157705      0.11698130083178
  C   0.71559517167850      0.12059723506781     -0.81036487332701
  Br  -2.13133905682928     -0.24559351275250     -0.75515457583465
  H   1.62192020625907      0.36681517621732     -0.25068274287014
  H   0.60900616103875      0.84227060633085     -1.62525379208461
  N   -0.32378143497612     -0.57935550063837      1.39160755386479
  O   0.69920272899422     -1.24593593001246      1.46450023569722
  O   -1.22125896332733     -0.49174018615662      2.21190707769223
  C   -0.60148679863978      1.66591786572852      0.56700974426583
  N   -0.64262500302078      2.79139461092298      0.90574661230511
  C   0.82894309698702     -1.22382456108941     -1.36635707451829
  N   0.93498813596088     -2.28838408519517     -1.84793946602226
