12
Coordinates from ORCA-job run
  C   -0.66410977096974      0.04364669103369      0.01326219128988
  C   0.37869018182977     -0.44746163602809     -0.98993861087344
  Br  -2.40492926600667     -0.66892725575288     -0.45873058249902
  H   0.10512715613353     -0.08089781504312     -1.98259633150339
  H   0.36773823376446     -1.53850865539053     -1.00199845473458
  N   -0.32566665942283     -0.50996561112942      1.41306726384427
  O   0.16382353837145     -1.62909979335769      1.43203428549002
  O   -0.60990537286910      0.20059243657082      2.36467754908731
  C   -0.72909439244379      1.49352663858910      0.08184668477707
  N   -0.76190357238215      2.66910689020521      0.07356827670465
  C   1.70816237301885      0.03645503964816     -0.62413807588873
  N   2.77106755097622      0.43153307065476     -0.32105419569403
