12
Coordinates from ORCA-job run
  C   -0.54317124583643      0.23717327689316      0.05646919369974
  C   0.74336850872787      0.23783397918692     -0.77305467155125
  Br  -2.04274414448200     -0.38658408317604     -0.98185131087638
  H   1.55951944899211      0.62364373903824     -0.15866619455949
  H   0.59797266666354      0.91067220120133     -1.62224686590778
  N   -0.35600169311750     -0.67266961376392      1.30778271871807
  O   -1.36073496318037     -1.12012565451706      1.82843132771110
  O   0.80204257672297     -0.78782934438368      1.68528993394958
  C   -0.82181495929938      1.57036590041777      0.57213781262043
  N   -1.01065440636794      2.65754689644432      0.97931389822696
  C   1.07835361957670     -1.09936079308839     -1.25197432022991
  N   1.35486459160042     -2.17066650425264     -1.64263152180113
