12
Coordinates from ORCA-job run
  C   -0.63890913048750      0.17412177989421      0.05881426722796
  C   0.20907383386679     -0.52351631397317     -1.00346140523612
  Br  -2.51604021004522     -0.18530386442593     -0.26984885334975
  H   -0.01602929790909     -1.59109926277984     -0.98694197986520
  H   -0.06144838946744     -0.12117229054953     -1.98303077329280
  N   -0.31336987383719     -0.42198866765163      1.44514833861926
  O   -0.04858050064121     -1.61441945236049      1.45644602626922
  O   -0.38886066167387      0.33896573594637      2.39697207934013
  C   -0.41267881712899      1.60871488832210      0.09746738988978
  N   -0.21363583495816      2.76730560860333      0.06363890772666
  C   1.63126612043293     -0.30688245807396     -0.74639136689908
  N   2.77021276184895     -0.12372570295147     -0.52981263043005
