12
Coordinates from ORCA-job run
  C   -0.52735013179878      0.33562442004885      0.07326927947668
  C   0.73850874248794      0.13436341414042     -0.77281767180810
  Br  -2.11980333259024     -0.01642531803083     -0.94089213189443
  H   1.60437828051600      0.38476459985223     -0.15330382780842
  H   0.70588663366355      0.82314726946271     -1.62054869485300
  N   -0.40494436659065     -0.63535830908918      1.28348454584607
  O   0.53081425094405     -0.35302772872057      2.02029284704440
  O   -1.17860249036801     -1.56868459027062      1.37414401696274
  C   -0.56915487547166      1.68876274335413      0.60681230349243
  N   -0.58327855482390      2.79556127936480      1.00391193987042
  C   0.85089048073283     -1.24032836339431     -1.24930698013414
  N   0.95265536329885     -2.34739941671762     -1.62604562619466
