12
Coordinates from ORCA-job run
  C   -0.66214700688279      0.03546778029619      0.05022044001500
  C   0.32949618618175     -0.42259848661632     -1.01830779429516
  Br  -2.41914000617768     -0.68547039992632     -0.34251732229189
  H   0.33007804133308     -1.51318893770052     -1.05301827038564
  H   -0.00213353232952     -0.03907404534515     -1.98659748389152
  N   -0.24323947375242     -0.54448213455580      1.41738749224041
  O   -0.48772057135570      0.14030223498384      2.39828605948244
  O   0.25962683159780     -1.65730857593882      1.38528807437612
  C   -0.73762532305388      1.48272713345671      0.15391760499214
  N   -0.78250304978673      2.65778259015671      0.17353763867616
  C   1.67109326150566      0.07091719848866     -0.71538160319465
  N   2.74321464272041      0.47592564270082     -0.46181483572341
