12
Coordinates from ORCA-job run
  C   -0.66016591632223      0.06140462237462      0.04650337246936
  C   0.32267659052078     -0.37710700309186     -1.03827226780859
  Br  -2.44196384801642     -0.55895497171160     -0.40332523718371
  H   0.27640470836442     -1.46287286023622     -1.13613143029033
  H   0.01896282945757      0.07569220788775     -1.98557647304697
  N   -0.28358908062529     -0.61427055471486      1.38148118987277
  O   0.17813186742214     -1.74158304338989      1.28953040386266
  O   -0.51823883799274      0.01955519090987      2.39826045351444
  C   -0.67410416421441      1.50216785159253      0.23336902484219
  N   -0.66674882987426      2.67492849584792      0.32056475907210
  C   1.68122201699204      0.03813978156407     -0.69563485470061
  N   2.76741266428840      0.37990028296769     -0.41076894060332
