12
Coordinates from ORCA-job run
  C   -0.49074933746304      0.20145164610881      0.15317423824379
  C   0.60650293682401     -0.56260414573469     -0.60512407535595
  Br  -2.02219242207977      0.51860372581489     -0.96174656511150
  H   0.19279894517168     -1.51796235706292     -0.94204190973928
  H   1.42678582549341     -0.75748195146783      0.09251711420469
  N   -0.85507678625396     -0.71779922325442      1.35330850404833
  O   -1.88970990055590     -1.35692911331579      1.30765821558104
  O   0.01063554978778     -0.74687165963111      2.21832460009334
  C   -0.00151548264769      1.45964139485388      0.69380906526147
  N   0.40971290449215      2.48210145869364      1.10407348538480
  C   1.09980964322514      0.19647441924967     -1.74744278094491
  N   1.51099812400616      0.80237580574586     -2.66450989166583
