12
Coordinates from ORCA-job run
  C   -0.53086096473734      0.33752633568582      0.03284656123878
  C   0.80403434173110      0.14667241645911     -0.70243026684060
  Br  -2.02880631222062      0.01738810274978     -1.12586267300698
  H   0.84732645425859      0.84982539227367     -1.53779169482776
  H   1.61244784531566      0.38300902179337     -0.00470291221741
  N   -0.52009767655286     -0.65963991095097      1.22697769065630
  O   -1.30452644564951     -1.58834784341590      1.22972307294649
  O   0.34999380678001     -0.40042789836267      2.04805817585217
  C   -0.61369019709069      1.67925553253181      0.58993410719547
  N   -0.65830813407550      2.77657540474938      1.01023779321868
  C   0.95516601527273     -1.22040648411736     -1.19039880138350
  N   1.08832126696842     -2.32143006939604     -1.57459105283165
