12
Coordinates from ORCA-job run
  C   -0.63370210311969      0.19118916280456      0.06712171838476
  C   0.19518212078673     -0.48011275205992     -1.02738514691522
  Br  -2.52032208365323     -0.09091428433449     -0.28187225905076
  H   -0.05814335433195     -0.01960663332689     -1.98577555138861
  H   -0.06513976543076     -1.53910850542158     -1.06571371613890
  N   -0.33089081940483     -0.48190471062547      1.42189918078156
  O   -0.10851912682493     -1.68223128358503      1.37479153697655
  O   -0.37951223326198      0.23403520109904      2.40984611770648
  C   -0.36140135462712      1.61432325622956      0.17414057623213
  N   -0.12655810718459      2.76656646337734      0.19377198105067
  C   1.62236793695561     -0.32346233890347     -0.75596921493574
  N   2.76563889009673     -0.18877357525366     -0.52685522270291
