12
Coordinates from ORCA-job run
  C   -0.47546112801150      0.13998619326167      0.12842286315403
  C   0.68156698128231     -0.54171007471578     -0.60882844141240
  Br  -1.99736565266355      0.35912589672357     -1.03580470154400
  H   1.50270899356371     -0.69696357996675      0.09416176405057
  H   0.34640861573928     -1.52048078541210     -0.96220081219218
  N   -0.88452275985980     -0.74566287693604      1.34417965410784
  O   -2.00520032459906     -0.59021991250010      1.79242133919746
  O   -0.00256161922429     -1.47862720043331      1.77223219088904
  C   -0.08497355634516      1.42662953902419      0.68605278574984
  N   0.25736911816859      2.45323880699508      1.14724373011003
  C   1.13655708407237      0.27089657473290     -1.73159404376752
  N   1.52447424787712      0.92378741922667     -2.62628632834271
