12
Coordinates from ORCA-job run
  C   -0.54861642192500      0.30320926916174      0.06339440515848
  C   0.72951168271399      0.16171022262056     -0.77635581139063
  Br  -2.11300136499649     -0.17645769634071     -0.94217534164227
  H   0.65324302122006      0.82087768825005     -1.64455954826996
  H   1.57529711867954      0.48722208559740     -0.16410302067913
  N   -0.36666230209264     -0.62642891660839      1.29786428337885
  O   0.54801717584154     -0.26607300158638      2.02728886936837
  O   -1.07883547332162     -1.60503503571755      1.41202700547610
  C   -0.67833773748072      1.66431051593622      0.56147640833895
  N   -0.76592171633255      2.77765376323359      0.92960159516985
  C   0.93425647964793     -1.21633777423669     -1.21096909341501
  N   1.11104953804598     -2.32465112030984     -1.55448975149360
