12
Coordinates from ORCA-job run
  C   -0.49964611692227      0.18689404284021      0.14428403465400
  C   0.62650501901600     -0.57627538097269     -0.56916486925839
  Br  -2.04851032688882      0.35557560325846     -0.98936310756739
  H   0.22637204487537     -1.53300232866695     -0.91550959014868
  H   1.42325677652685     -0.76817537220068      0.15850817799097
  N   -0.84245322740950     -0.68488363788802      1.37627697995592
  O   -0.33963626599107     -0.32749931543098      2.43272146035023
  O   -1.49708879198900     -1.69087623017075      1.16137823198569
  C   -0.07748899651458      1.50186431428876      0.59546428743145
  N   0.28820361369664      2.57360327890689      0.91296958640684
  C   1.15960198878757      0.18163401961041     -1.69431593837363
  N   1.58188428281281      0.78014100642535     -2.61124925342700
