12
Coordinates from ORCA-job run
  C   -0.59050300634165      0.21441610765196      0.05980322940606
  C   0.62065621802178      0.09383256930455     -0.87673120639558
  Br  -2.11093270387468     -0.73954036694995     -0.62332296524547
  H   1.43414058080748      0.69323132031862     -0.45809203414350
  H   0.35150529148044      0.50462935549449     -1.85292682008518
  N   -0.13941005758511     -0.35749411393674      1.43506482374849
  O   0.74634563531535      0.30934096336826      1.95381333854111
  O   -0.64449131407488     -1.38523923969495      1.84308752392288
  C   -0.93418417777369      1.61339209473284      0.26486895257441
  N   -1.19949609894299      2.75172495230828      0.39327913702644
  C   1.05163374694973     -1.29335271714681     -1.01776225023377
  N   1.41373588601823     -2.40494092545055     -1.12208172911589
