12
Coordinates from ORCA-job run
  C   -0.58538570479378      0.22899789223730      0.02961689735839
  C   0.69074728511085      0.11630177241091     -0.81749302362388
  Br  -2.07432176346195     -0.64279674758381     -0.81392395160492
  H   1.48771187707760      0.66175970030798     -0.30411510494501
  H   0.51129782037311      0.59076811476794     -1.78547602187839
  N   -0.25830066928253     -0.42147250212580      1.40469175697298
  O   -0.82270113234316     -1.45029290214148      1.72227518405215
  O   0.60415906813080      0.19049918206604      2.02128053905081
  C   -0.90506626728838      1.62709627803605      0.27541539695935
  N   -1.14809577970398      2.76693090207083      0.43251653147488
  C   1.08625999800655     -1.27551050092085     -1.00818198143668
  N   1.41469526817490     -2.39228118912509     -1.15760622237975
