12
Coordinates from ORCA-job run
  C   -0.66251350140742      0.04938977834215      0.03364265640189
  C   0.34513576704087     -0.42797209384636     -1.01110497835640
  Br  -2.42348676534048     -0.63689590526374     -0.40104181482009
  H   0.04596027719043     -0.03537939034929     -1.98632637401005
  H   0.32330266449450     -1.51827428515411     -1.04872483945904
  N   -0.28890379844977     -0.53863769193245      1.41039101700455
  O   -0.54910007345365      0.14846163489830      2.38561933366258
  O   0.19834252076972     -1.65872307103216      1.38971541435771
  C   -0.71133445294637      1.49787672273204      0.13633979214755
  N   -0.73028492290665      2.67365655313601      0.15573011778157
  C   1.68951317638006      0.03475844309529     -0.67324240539455
  N   2.76436910862877      0.41173930537432     -0.38999791931570
