12
Coordinates from ORCA-job run
  C   -0.66070094868077      0.07008664926960      0.02590087517154
  C   0.34782108974304     -0.39734983600783     -1.02249479632255
  Br  -2.43625730349388     -0.53582713161961     -0.46565884181228
  H   0.07746471694952      0.04411920829018     -1.98514353086615
  H   0.29124363931461     -1.48390720928978     -1.10506009407030
  N   -0.33076535768115     -0.58852813581936      1.38167837090558
  O   0.11444372165470     -1.72449159669174      1.32051823807479
  O   -0.58004848774285      0.06683109216963      2.38131622152359
  C   -0.66232274379540      1.51373145254076      0.18982647584951
  N   -0.64319431255007      2.68765892194751      0.25820215500197
  C   1.70061101707347      0.00756487105068     -0.64636534805222
  N   2.78170496920877      0.34111171415996     -0.33371972540348
