12
Coordinates from ORCA-job run
  C   -0.63540614144009      0.17798635354424      0.08554250049689
  C   0.17187441048816     -0.48608418662844     -1.02876620609309
  Br  -2.52556517481091     -0.15190631213779     -0.19750261058859
  H   -0.06489665743480     -1.55111860718492     -1.04687865457449
  H   -0.12401716818979     -0.04302702189753     -1.98316079352227
  N   -0.27252587051557     -0.47364534644199      1.43700095533483
  O   -0.02202009949537     -1.66852297613398      1.39392670208672
  O   -0.30806603505789      0.25060116037136      2.41930680844328
  C   -0.39334845583665      1.60794754228436      0.17106041150517
  N   -0.18085297383462      2.76466273322087      0.17578442180315
  C   1.60342830981908     -0.29468730902055     -0.80707851916796
  N   2.75039585630844     -0.13320602997564     -0.61723501572364
