13

C	-0.080642	-0.010857	0.009772
C	-0.529707	-0.461852	-1.353287
Cl	1.689368	0.22092	0.072302
H	-0.049783	-1.38198	-1.671657
H	-0.579643	0.89912	0.325281
H	-1.622672	-0.546942	-1.310346
N	-0.402015	-1.064399	1.035903
O	-0.437162	-0.68917	2.199251
O	-0.538821	-2.218916	0.640855
N	-0.221776	0.569441	-2.378271
O	-0.20255	1.747637	-2.034788
O	-0.05076	0.162007	-3.526914
Cl	-3.256528	0.400252	0.089274
