13

C	-0.082845	-0.01451	0.005558
C	-0.529877	0.254972	-1.405297
Cl	1.686978	0.156905	0.175424
H	-0.049066	-0.393989	-2.130557
H	-0.582666	0.627047	0.723329
H	-1.62286	0.159945	-1.41076
N	-0.405247	-1.434137	0.388826
O	-0.442494	-1.672392	1.587685
O	-0.540718	-2.250502	-0.518308
N	-0.221125	1.654655	-1.798414
O	-0.048772	1.857736	-2.999943
O	-0.202529	2.516693	-0.924891
Cl	-3.259101	0.307026	0.270642
