15

C	0.0	0.0	0.0
C	-0.281249	0.070637	-1.547693
Br	1.945603	0.0	0.0
H	0.567641	0.618516	-1.965804
H	-0.410921	-0.855311	0.512805
N	-0.399623	1.227497	0.740855
O	-0.363723	2.287713	0.121391
O	-0.588252	1.110488	1.943916
C	-1.524411	0.709157	-2.181933
H	-1.691143	1.689737	-1.747823
H	-2.399706	0.105477	-1.982843
H	-1.309186	0.812954	-3.254857
C	-0.138006	-1.298234	-2.054719
N	-0.033893	-2.359976	-2.547049
F	-2.315097	0.0	0.0
