15

C	0.0	0.0	0.0
C	-0.556881	0.096639	-1.4005
Br	1.95575	0.0	0.0
H	-1.660257	0.277636	-1.090251
H	-0.359292	-0.888278	0.505872
N	-0.413437	1.150796	0.876278
O	-0.580745	2.239321	0.3442
O	-0.484618	0.914946	2.076899
C	-0.494828	-1.268163	-2.084346
H	-0.871673	-1.192003	-3.106859
H	-1.148454	-1.946133	-1.531139
H	0.521756	-1.674517	-2.123045
C	0.038571	1.132209	-2.220423
N	0.486944	1.92089	-2.969942
F	-2.619556	0.0	0.0
