15

C	0.0	0.0	0.0
C	-0.4366	-0.183402	-1.485132
Br	1.923636	0.0	0.0
H	0.473924	-0.393839	-2.061555
H	-0.342592	-0.811205	0.625919
N	-0.414624	1.244013	0.726651
O	-0.592735	1.116393	1.931347
O	-0.412539	2.308781	0.120572
C	-1.146759	0.974294	-2.194919
H	-2.040579	1.196385	-1.620581
H	-1.40863	0.636349	-3.203313
H	-0.491805	1.840944	-2.273671
C	-1.232904	-1.411019	-1.583099
N	-1.690792	-2.469916	-1.807555
F	-2.339145	0.0	0.0
