18

C	-0.457994	-0.084813	-1.457548
C	0.0	0.0	0.0
Cl	0.149231	1.460252	-2.291888
H	1.094484	0.0	0.0
C	0.2305	-1.231668	-2.172611
H	1.304023	-1.173591	-1.972973
H	-0.168273	-2.179222	-1.803333
H	0.048143	-1.17117	-3.249129
N	-1.882109	-0.177503	-1.566345
H	-2.151278	-0.171075	-2.544483
H	-2.309656	0.627107	-1.118463
C	-0.387653	-1.248177	0.803299
H	-0.117009	-1.089007	1.849865
H	-1.452325	-1.479268	0.732393
H	0.201527	-2.096018	0.449664
C	-0.546444	1.185605	0.639704
N	-1.03459	2.118873	1.16465
H	2.776173	0.0	0.0
