18

C	-0.333446	-0.11715	-1.510488
C	0.0	0.0	0.0
Cl	-0.005391	-1.831283	-2.012345
H	1.094836	0.0	0.0
C	-1.781334	0.167834	-1.867422
H	-1.915302	0.030873	-2.94228
H	-2.452356	-0.507643	-1.33419
H	-2.033047	1.197853	-1.60251
N	0.552608	0.717858	-2.294328
H	1.495517	0.577785	-1.920256
H	0.313781	1.683652	-2.091576
C	-0.526134	-1.072238	0.946642
H	-0.237566	-0.816961	1.971079
H	-0.066734	-2.030645	0.700125
H	-1.615906	-1.174635	0.907048
C	-0.422279	1.324335	0.430829
N	-0.751708	2.40985	0.744896
H	2.784114	0.0	0.0
