18

C	-0.358295	0.017572	-1.474424
C	0.0	0.0	0.0
Cl	-2.266209	0.364833	-1.644705
H	1.097245	0.0	0.0
C	0.336442	1.155065	-2.181542
H	0.130896	1.131518	-3.255635
H	1.408892	1.02596	-1.985553
H	0.00853	2.114828	-1.783302
N	-0.063113	-1.214436	-2.084615
H	-0.573738	-1.979225	-1.665747
H	-0.25458	-1.183125	-3.077146
C	-0.452734	-1.239352	0.76309
H	-0.215691	-1.117777	1.821804
H	0.115834	-2.103028	0.408692
H	-1.52756	-1.419867	0.661208
C	-0.435274	1.217058	0.664676
N	-0.759414	2.187832	1.243584
H	2.731219	0.0	0.0
