18

C	-0.446899	-0.076901	-1.461943
C	0.0	0.0	0.0
Cl	0.126246	1.496595	-2.271687
H	1.094479	0.0	0.0
C	0.279377	-1.192126	-2.188503
H	-0.093759	-2.155447	-1.837657
H	0.104863	-1.120692	-3.265775
H	1.348141	-1.106611	-1.976498
N	-1.866293	-0.206191	-1.584169
H	-2.321063	0.5766	-1.124564
H	-2.128404	-0.191384	-2.564072
C	-0.386442	-1.255296	0.792691
H	-1.454439	-1.47522	0.738334
H	-0.094309	-1.111888	1.835854
H	0.186035	-2.10529	0.417655
C	-0.553542	1.177129	0.64821
N	-1.048353	2.102109	1.181202
H	2.777437	0.0	0.0
