18

C	-0.201731	-0.042159	-1.520742
C	0.0	0.0	0.0
Cl	-1.966178	-0.319949	-1.942041
H	1.099052	0.0	0.0
C	0.243451	1.263288	-2.145706
H	1.286081	1.423099	-1.846055
H	-0.364025	2.100545	-1.800589
H	0.179908	1.178359	-3.231397
N	0.562202	-1.115001	-2.127334
H	0.235302	-2.001908	-1.758825
H	1.519589	-0.984582	-1.773166
C	-0.45112	-1.236218	0.768852
H	-1.530414	-1.393543	0.703511
H	-0.168167	-1.127579	1.818504
H	0.068623	-2.118356	0.389274
C	-0.525318	1.206866	0.608834
N	-0.95072	2.173797	1.12725
H	2.744336	0.0	0.0
