18

C	-0.368779	0.014813	-1.470654
C	0.0	0.0	0.0
Cl	-2.274187	0.329675	-1.631678
H	1.097275	0.0	0.0
C	0.306721	1.162298	-2.179147
H	1.379711	1.046789	-1.98944
H	0.093238	1.137674	-3.251467
H	-0.031835	2.116432	-1.776201
N	-0.055456	-1.212626	-2.086869
H	-0.265661	-1.177771	-3.075565
H	-0.555314	-1.982355	-1.664552
C	-0.433922	-1.244259	0.766952
H	0.1316	-2.10338	0.396064
H	-1.509932	-1.43088	0.691014
H	-0.168773	-1.124575	1.819458
C	-0.441087	1.211682	0.669219
N	-0.773354	2.179525	1.248395
H	2.733745	0.0	0.0
