18

C	-0.366351	0.010868	-1.503735
C	0.0	0.0	0.0
Cl	0.032977	-1.626316	-2.177168
H	1.097027	0.0	0.0
C	-1.835079	0.252232	-1.793267
H	-2.132994	1.229897	-1.407659
H	-1.997175	0.226435	-2.871959
H	-2.45203	-0.512443	-1.32199
N	0.4535	0.960474	-2.221783
H	0.168692	1.890675	-1.928233
H	1.41335	0.829506	-1.891306
C	-0.505986	-1.151151	0.861708
H	-1.598136	-1.218485	0.887169
H	-0.142579	-1.012481	1.882933
H	-0.096315	-2.089088	0.489621
C	-0.42592	1.277506	0.554443
N	-0.777753	2.308467	1.000348
H	2.779987	0.0	0.0
