16

C	0.0	0.0	0.0
C	-0.372566	-0.10373	-1.510049
F	1.413439	0.0	0.0
H	0.415956	0.438442	-2.049461
C	-0.392659	1.362366	0.531684
H	0.011895	1.44834	1.541521
H	-1.482357	1.428165	0.548648
H	0.031767	2.148204	-0.100874
N	-0.4976	-1.02007	0.845566
H	-0.298699	-1.929638	0.435632
H	-1.530849	-0.870658	0.782418
C	-1.658294	0.539107	-1.902148
N	-2.228396	1.216161	-2.692324
C	-0.325886	-1.494634	-1.965638
N	-0.234085	-2.611188	-2.319888
H	-2.805911	0.0	0.0
