16

C	0.0	0.0	0.0
C	-0.648863	0.026432	-1.379782
F	1.383525	0.0	0.0
H	-1.814061	0.023663	-1.000037
C	-0.380192	1.26679	0.75621
H	0.057727	2.150819	0.284345
H	0.011382	1.191399	1.774801
H	-1.470616	1.336067	0.78475
N	-0.445978	-1.221141	0.611621
H	-1.475789	-1.159733	0.572935
H	-0.18666	-1.196477	1.595344
C	-0.360362	-1.152569	-2.168364
N	-0.162455	-2.093797	-2.844521
C	-0.355433	1.235886	-2.127515
N	-0.152134	2.23514	-2.718585
H	-2.875409	0.0	0.0
