16

C	0.0	0.0	0.0
C	-0.613352	0.044402	-1.413311
F	1.381194	0.0	0.0
H	-1.768862	0.056096	-1.058406
C	-0.409664	1.25043	0.755379
H	-0.033748	1.155514	1.77598
H	0.030366	2.133798	0.286107
H	-1.499666	1.318036	0.763067
N	-0.449753	-1.16262	0.713669
H	-0.23644	-1.992221	0.162405
H	-1.475377	-1.065739	0.735537
C	-0.327537	-1.160953	-2.169423
N	-0.082237	-2.142569	-2.773045
C	-0.274352	1.226327	-2.184372
N	-0.027366	2.202506	-2.79311
H	-2.881415	0.0	0.0
