15

C	-0.517476	-0.017792	-1.412002
C	0.0	0.0	0.0
F	-1.881951	-0.164537	-1.456088
H	1.090436	0.0	0.0
H	-0.050503	-0.792082	-2.013438
N	-0.188892	1.295137	-2.070213
O	0.937664	1.374221	-2.550278
O	-1.048588	2.166723	-2.078292
N	-0.353031	-1.308588	0.59657
O	-0.727994	-1.33321	1.775557
O	-0.137647	-2.317147	-0.090991
N	-0.425381	1.13152	0.741194
H	0.224043	1.267146	1.508381
H	-1.357435	1.008064	1.115764
H	2.54273	0.0	0.0
