15

C	-0.634229	0.053571	-1.370401
C	0.0	0.0	0.0
F	-0.195444	1.175579	-2.01981
H	1.096084	0.0	0.0
H	-1.72432	0.071514	-1.328541
N	-0.288529	-1.086645	-2.296256
O	-1.231128	-1.631908	-2.868326
O	0.898838	-1.325808	-2.47387
N	-0.425385	-1.160768	0.714198
O	-0.698319	-2.186403	0.053708
O	-0.380471	-1.136503	1.961439
N	-0.317346	1.228516	0.698841
H	-0.705842	0.96384	1.598425
H	0.584295	1.663942	0.900139
H	2.401793	0.0	0.0
