15

C	-0.542009	-0.042775	-1.405215
C	0.0	0.0	0.0
F	-1.867924	-0.392338	-1.446341
H	1.093783	0.0	0.0
H	0.025736	-0.709674	-2.050706
N	-0.42912	1.338887	-1.993581
O	-1.440936	2.026311	-2.045484
O	0.691145	1.660222	-2.366303
N	-0.326694	-1.29909	0.623224
O	-0.631647	-1.316584	1.823409
O	-0.148727	-2.310546	-0.067955
N	-0.410688	1.139289	0.742053
H	-1.284033	0.982621	1.225551
H	0.313727	1.338338	1.42179
H	2.531304	0.0	0.0
