15

C	-0.535971	0.036689	-1.428713
C	0.0	0.0	0.0
F	-0.176295	1.207671	-2.017185
H	1.090499	0.0	0.0
H	-1.624704	-0.067401	-1.478344
N	0.005398	-1.094342	-2.267514
O	-0.597321	-2.158123	-2.131122
O	0.96191	-0.881065	-2.99623
N	-0.558126	-1.241472	0.63232
O	0.152036	-2.241386	0.680179
O	-1.718854	-1.174632	1.047652
N	-0.412999	1.130309	0.762444
H	0.329179	1.819164	0.72944
H	-1.300378	1.524954	0.481138
H	2.706819	0.0	0.0
