15

C	-0.537271	-0.020507	-1.402778
C	0.0	0.0	0.0
F	-1.905127	-0.156948	-1.426671
H	1.090465	0.0	0.0
H	-0.08644	-0.803081	-2.007052
N	-0.209029	1.284887	-2.076193
O	0.90762	1.351846	-2.576066
O	-1.060522	2.162973	-2.076072
N	-0.34403	-1.305763	0.609208
O	-0.161901	-2.31712	-0.082083
O	-0.669404	-1.326299	1.803376
N	-0.410469	1.132964	0.746195
H	0.261044	1.279996	1.490733
H	-1.331927	1.012555	1.143605
H	2.536812	0.0	0.0
