15

C	-0.380088	0.092267	-1.45609
C	0.0	0.0	0.0
F	0.145918	-0.904288	-2.201852
H	1.101387	0.0	0.0
H	-0.013256	1.051014	-1.834099
N	-1.876417	0.118573	-1.726827
O	-2.347602	-0.643142	-2.555271
O	-2.505848	0.970634	-1.098524
N	-0.497031	-1.255738	0.602763
O	-0.112361	-1.518078	1.739166
O	-1.237253	-1.985451	-0.077226
N	-0.317168	1.116583	0.826153
H	-1.10882	1.649379	0.504209
H	0.516081	1.681497	0.948339
H	2.566019	0.0	0.0
