15

C	-0.496826	0.022317	-1.418541
C	0.0	0.0	0.0
F	0.194825	-0.758112	-2.277093
H	1.09359	0.0	0.0
H	-0.468595	1.05612	-1.768957
N	-1.965353	-0.380952	-1.522144
O	-2.328338	-1.013685	-2.504818
O	-2.695194	0.025254	-0.620352
N	-0.398009	-1.242115	0.673105
O	-0.567721	-2.247358	-0.031586
O	-0.439238	-1.238663	1.909367
N	-0.336507	1.191938	0.711235
H	-1.212517	1.085177	1.205513
H	0.41043	1.366766	1.377036
H	2.528377	0.0	0.0
