17

C	-0.650058	-0.024913	-1.378489
C	0.0	0.0	0.0
F	-0.150039	1.091857	-2.053548
H	1.090526	0.0	0.0
N	-0.20943	-1.160023	-2.28951
O	0.956895	-1.508361	-2.216462
O	-1.043151	-1.557396	-3.103662
N	-2.039907	-0.032102	-1.265654
H	-2.303279	0.762725	-0.695331
H	-2.48615	-0.032705	-2.171399
N	-0.444955	-1.211188	0.765514
O	-0.481235	-2.27378	0.156725
O	-0.705155	-1.076564	1.96077
N	-0.495229	1.202467	0.663718
H	-0.611913	0.966316	1.64358
H	0.25654	1.881794	0.610171
Cl	3.270408	0.0	0.0
