17

C	-0.584358	0.012875	-1.403082
C	0.0	0.0	0.0
F	0.096933	0.979674	-2.118355
H	1.092711	0.0	0.0
N	-0.2092	-1.268563	-2.183022
O	-0.982858	-1.597007	-3.082574
O	0.853018	-1.802039	-1.909529
N	-1.956365	0.277074	-1.454275
H	-2.365264	-0.161874	-2.268917
H	-2.417371	-0.014507	-0.605893
N	-0.451023	-1.21239	0.763714
O	-0.112592	-1.247636	1.940575
O	-1.136337	-2.06767	0.194806
N	-0.533372	1.14443	0.732088
H	-0.478334	1.947887	0.114578
H	0.112217	1.320305	1.497872
Cl	3.297184	0.0	0.0
