17

C	-0.453104	0.007926	-1.455535
C	0.0	0.0	0.0
F	0.237787	-0.882477	-2.209115
H	1.09383	0.0	0.0
N	-1.929792	-0.446861	-1.5588
O	-2.29921	-0.969565	-2.600078
O	-2.647081	-0.153346	-0.604443
N	-0.400437	1.305395	-2.009678
H	0.055809	1.270894	-2.910525
H	0.063237	1.936987	-1.369863
N	-0.422068	-1.289976	0.677878
O	-0.535384	-2.294744	-0.017279
O	-0.580199	-1.246794	1.894514
N	-0.400449	1.167185	0.706882
H	0.209519	1.297058	1.498624
H	-1.361315	1.108285	1.008593
Cl	3.230488	0.0	0.0
