17

C	-0.447255	-0.184403	-1.450356
C	0.0	0.0	0.0
F	-1.74956	-0.622846	-1.519702
H	1.089002	0.0	0.0
N	-0.519956	1.24602	-2.072061
O	0.545163	1.689211	-2.484047
O	-1.604242	1.813781	-2.101137
N	0.405411	-1.03143	-2.148412
H	0.336122	-0.921334	-3.150284
H	1.366739	-0.939419	-1.831762
N	-0.440335	-1.271321	0.734271
O	0.146059	-2.311999	0.467278
O	-1.360628	-1.159135	1.545968
N	-0.501254	1.184976	0.586202
H	0.054778	1.418443	1.397547
H	-1.47168	1.080287	0.853227
Cl	3.260692	0.0	0.0
