18

C	0.0	0.0	0.0
C	-0.630576	0.037079	-1.387238
F	1.391119	0.0	0.0
H	-1.763055	0.05826	-1.108751
C	-0.441576	1.207591	0.803348
H	-0.093337	1.085008	1.832099
H	-1.536767	1.248005	0.780413
H	-0.016016	2.125847	0.396408
C	-0.459394	-1.28401	0.66272
H	-1.557423	-1.286272	0.659754
H	-0.067043	-2.154678	0.131896
H	-0.091393	-1.303099	1.691678
C	-0.278148	-1.11005	-2.206118
N	-0.045932	-2.074119	-2.837661
N	-0.273112	1.281637	-2.12828
O	0.664095	1.235444	-2.932023
O	-0.933566	2.289252	-1.874359
H	-3.057987	0.0	0.0
