18

C	0.0	0.0	0.0
C	-0.575216	0.028466	-1.416705
F	1.391301	0.0	0.0
H	-1.696316	0.020496	-1.230614
C	-0.464431	1.224	0.759572
H	-1.560543	1.254093	0.705253
H	-0.028449	2.133157	0.339704
H	-0.145231	1.133541	1.800939
C	-0.476897	-1.273904	0.662754
H	-0.08717	-2.151574	0.140493
H	-0.11787	-1.291556	1.695096
H	-1.575941	-1.260762	0.648176
C	-0.106606	-1.08331	-2.228976
N	0.24888	-1.998279	-2.875087
N	-0.205012	1.304057	-2.111997
O	0.894764	1.355792	-2.665165
O	-1.012076	2.228797	-2.051077
H	-3.126062	0.0	0.0
