11
Coordinates from ORCA-job run
  C   -0.65653465488462     -0.00938031720412     -0.58900758377720
  C   0.28666790240742     -0.01850403572801      0.59499582746207
  F   -0.60153797263770      1.23082705586381     -1.19052701070941
  H   0.08519870958070      0.81306056964770      1.26746579518126
  H   -0.34974535725412     -0.75505332124226     -1.32489004239454
  H   0.23972798573707     -0.96918094759112      1.12944155019685
  C   -2.02711454272870     -0.27958730445359     -0.13510072246396
  N   -3.11154952179076     -0.51134368201167      0.24853183968265
  N   1.69574425599770      0.13712222434277      0.11230664029674
  O   2.02568827673995     -0.54653278403468     -0.85220554467524
  O   2.41445491883308      0.90757254241117      0.73798925120076
