11
Coordinates from ORCA-job run
  C   -0.59965630566246     -0.46276510370344     -0.45030344661737
  C   0.23139855929638      0.42018910701168      0.45565114617317
  F   -0.52732212797324      0.02896546812932     -1.73722508651084
  H   0.16233838013246      0.09532379264794      1.49557731560000
  H   -0.20454874638409     -1.48037805273499     -0.45562160279812
  H   -0.05352288858267      1.46606620899908      0.35869651810296
  C   -1.99731042689180     -0.46579031516411      0.00106823789621
  N   -3.10828970999243     -0.47871242012398      0.37850675062353
  N   1.67458351138623      0.31989782116402      0.06800396505538
  O   2.31386118999950      1.36483900057812      0.03897989691912
  O   2.10846856467212     -0.80663550680364     -0.15333369444406
