11
Coordinates from ORCA-job run
  C   -0.64131859504478     -0.75458517508787     -0.20060626497594
  C   0.33340581829667     -0.09465347587254      0.75180987163132
  F   0.06324081162899     -1.47592948629649     -1.13958934521397
  H   0.92469362559664     -0.84865032948286      1.26922311625616
  H   -1.24544304701877     -1.46292123738424      0.37680325098121
  H   -0.18486846414486      0.53073924882452      1.48188469806782
  C   -1.56048403013303      0.18292837702753     -0.86054822173627
  N   -2.37078079638333      0.88774707635576     -1.33261150775608
  N   1.31800713717071      0.78797126778550      0.04652598921441
  O   0.96986926350728      1.30526933538394     -1.00849712291801
  O   2.39267827652449      0.94208439874674      0.61560553644936
