17

C	0.0	0.0	0.0
C	-0.343163	0.134618	-1.545263
Br	1.967867	0.0	0.0
H	0.445952	-0.425976	-2.054999
N	-0.63187	1.004974	0.787575
H	-0.499149	0.795164	1.77592
H	-1.655107	0.86286	0.590851
C	-0.296201	-1.386488	0.429176
N	-0.501425	-2.480872	0.814349
C	-0.242726	1.596095	-1.959386
H	-0.273842	1.643651	-3.053987
H	0.679234	2.059599	-1.6007
H	-1.086591	2.154561	-1.559571
N	-1.603679	-0.430552	-1.964966
H	-1.545358	-1.442761	-1.886027
H	-2.35967	-0.152933	-1.29593
H	-3.237533	0.0	0.0
