17

C	0.0	0.0	0.0
C	-0.186201	-0.027896	-1.579069
Br	1.992508	0.0	0.0
H	0.429437	0.827078	-1.908919
N	-0.624146	1.053827	0.695823
H	-0.513938	1.909578	0.156038
H	-1.662247	0.772134	0.634374
C	-0.364289	-1.291509	0.60164
N	-0.535998	-2.314049	1.155183
C	-1.574839	0.200878	-2.151966
H	-1.445502	0.29171	-3.242179
H	-2.258448	-0.604689	-1.903238
H	-2.037661	1.10361	-1.765273
N	0.304421	-1.303537	-2.101796
H	-0.072783	-1.44433	-3.032494
H	1.316214	-1.309141	-2.158942
H	-3.063024	0.0	0.0
