17

C	0.0	0.0	0.0
C	-0.344086	0.249157	-1.539803
Br	1.963158	0.0	0.0
H	0.46606	-0.225799	-2.102207
N	-0.62342	0.831707	0.970668
H	-1.64278	0.599182	0.883337
H	-0.516097	1.799399	0.686218
C	-0.321984	-1.407996	0.294469
N	-0.505017	-2.556105	0.467981
C	-0.336961	1.74572	-1.827108
H	-0.376082	1.88675	-2.908913
H	0.554813	2.245089	-1.436025
H	-1.233603	2.204175	-1.403789
N	-1.591852	-0.314847	-1.993183
H	-2.344086	-0.099941	-1.295999
H	-1.516298	-1.32778	-1.98768
H	-3.225914	0.0	0.0
