18
Coordinates from ORCA-job run
  C   -0.68994230083443     -0.35249734425359      0.00073271165970
  C   0.69247554112765      0.32423270515153     -0.04690697337186
  Cl  -0.56848332526650     -2.07729413662311     -0.32542228484367
  H   0.52107380197957      1.39070183705118      0.10482374241997
  N   -1.15450574248520     -0.13341898062094      1.45334633596653
  O   -1.37438129505796     -1.09313666750402      2.17420100098380
  O   -1.25968782542899      1.05071640628091      1.76180869205342
  C   -1.74259158204079      0.27199761630095     -0.89514988333238
  H   -1.79632379966736      1.34552930098663     -0.71698334765566
  H   -1.49703765047609      0.09534179296753     -1.94055799995886
  H   -2.71062779128051     -0.18466670906474     -0.68035193338602
  N   1.21553430163864      0.22357372775854     -1.45291543095809
  O   0.78537502345184      1.05580593159275     -2.25158978479904
  O   2.01874989712580     -0.66843856726929     -1.70812644827948
  C   1.69784970762668     -0.22080852209348      0.94360797281742
  H   1.35908665190661     -0.01886440429405      1.96138941047877
  H   1.84527361776550     -1.29105250102739      0.81582636351307
  H   2.65716276991557      0.27927851466059      0.80326785669239
