18
Coordinates from ORCA-job run
  C   -0.77366254968501     -0.38393275103706     -0.21411796038792
  C   0.70455357756976     -0.07446031920910     -0.48623135319524
  Cl  -1.22787698205283     -1.78914361788211     -1.18651839681945
  H   0.78135034394511      0.07981120490842     -1.56424295271221
  N   -1.01253406738781     -0.69777817312641      1.27129738505723
  O   -0.84969857032803      0.27051965586587      2.00881718300781
  O   -1.35546625601413     -1.81715978794890      1.60855564672518
  C   -1.67118291683156      0.78630157430472     -0.57431217951434
  H   -2.71395824889227      0.50001356265324     -0.42834566462619
  H   -1.52822268872979      1.04515995520972     -1.62451719832956
  H   -1.45035791277073      1.64634138314263      0.05489915966079
  N   1.53886438552936     -1.29491290079523     -0.22618426829157
  O   1.49626895097544     -1.75130167301844      0.91349153880815
  O   2.22247505017054     -1.71580026168154     -1.15448804656383
  C   1.33467756710039      1.08322460585844      0.26958000480616
  H   2.35891624571572      1.20769846688946     -0.08981128115353
  H   1.35000360303016      0.89449776834083      1.34034695002598
  H   0.79485046865567      2.01092130752546      0.08078143350253
