18
Coordinates from ORCA-job run
  C   -0.78286008657324     -0.25147708065442     -0.30408815591073
  C   0.75087619724518     -0.25958134075638     -0.39243446616798
  Cl  -1.41826864244306     -0.29271777513037     -1.96358158958945
  H   1.03968610993053     -1.14675475068315     -0.95683860912949
  N   -1.16424091294493     -1.59385203501590      0.34405274166935
  O   -1.68002314399235     -1.54056415328218      1.45608322822743
  O   -0.87234304353705     -2.60570175321340     -0.27718483294274
  C   -1.40569777214036      0.89472905167024      0.45251347116956
  H   -1.01690726114005      0.94801900140592      1.46713522499177
  H   -1.18952468224539      1.82732995527354     -0.06848333064873
  H   -2.48618765995181      0.76065929039211      0.49217368509029
  N   1.29793543101737     -0.50002135632646      0.99413956951063
  O   1.64670826946777     -1.64917511466956      1.25756647972123
  O   1.35293623754843      0.46228802519670      1.75732499612386
  C   1.35960723080368      1.00661883114156     -0.95745609292788
  H   1.13880081332134      1.86472243239321     -0.32517855978941
  H   0.98453173065838      1.18566705354463     -1.96486872228533
  H   2.44397118497555      0.89181171871390     -1.01087503711239
