18
Coordinates from ORCA-job run
  C   -0.72992084000580     -0.25806831091489     -0.01871068483280
  C   0.72978722534269      0.23208314335513     -0.02720704463376
  Cl  -0.83465763732453     -1.96216067752470     -0.44454118825348
  H   0.69921469076425      1.30057673344722      0.18959437912235
  N   -1.17406506912505     -0.06364136419053      1.44388381293802
  O   -1.53338326320580     -1.02474421053325      2.10442672460262
  O   -1.11803339980559      1.10322141588903      1.82311793587029
  C   -1.68397385488872      0.55066187448634     -0.87702413673387
  H   -1.45564129041346      0.40388819206400     -1.93093119112566
  H   -2.70540778277068      0.21409473642938     -0.68951339506418
  H   -1.59694099660069      1.60978872791192     -0.63649734403619
  N   1.24417598434519      0.14919156229663     -1.43765731698646
  O   0.93797914365064      1.08121597470109     -2.18141740923191
  O   1.91955793975458     -0.82683229860449     -1.74978765167113
  C   1.64818202727506     -0.49964790125335      0.92666852624383
  H   2.66528315165214     -0.12040425480612      0.81794054438631
  H   1.33005699059886     -0.31939233124962      1.95513021293572
  H   1.65678698075691     -1.56983101150378      0.73152522647029
