18
Coordinates from ORCA-job run
  C   -0.74378297220972     -0.37760662482479     -0.30911962917311
  C   0.74324268580960     -0.01869312603092     -0.43049714298752
  Cl  -1.08209013783106     -1.70041487602640     -1.43236343091750
  H   0.90273279318454      0.23225767875964     -1.48088651965098
  N   -1.09542949986388     -0.82348260306483      1.11913954306445
  O   -1.43860416661450     -1.97339688485430      1.32949732493128
  O   -1.01558680968711      0.07903893595575      1.94795589998473
  C   -1.63843267033499      0.80320410783842     -0.64133903033163
  H   -2.68204589703810      0.48650020499203     -0.60677826091653
  H   -1.41759533303444      1.15493279813072     -1.65023529003322
  H   -1.49082968267591      1.60938678605144      0.07467104587965
  N   1.58525659913004     -1.24196296332505     -0.21001173087208
  O   2.35830389550405     -1.56007002097424     -1.10844694967209
  O   1.45622235119405     -1.80403381671774      0.87452701928458
  C   1.28171625947229      1.07809738613827      0.47258035695168
  H   0.73624164806055      2.00929783261577      0.32065149492952
  H   2.32821598573171      1.25185493378830      0.21102125793465
  H   1.21546495120288      0.79609025154795      1.52063404159412
