18
Coordinates from ORCA-job run
  C   -0.77884646435529     -0.38056787045925     -0.20145694975172
  C   0.69806378500259     -0.08377793143223     -0.49351038708773
  Cl  -1.25362057205782     -1.79083551052144     -1.15702186412977
  H   0.76336990846343      0.05991945824746     -1.57371533307548
  N   -1.00262014090738     -0.68076690390755      1.28932473410738
  O   -0.82428775273145      0.29217622410205      2.01704801917794
  O   -1.34969032654908     -1.79491246985931      1.63941637282128
  C   -1.67249525431037      0.79262956722817     -0.56078693068242
  H   -1.43867776693485      1.65626656326759      0.05875213348836
  H   -2.71546660175012      0.51473322320737     -0.40063965860342
  H   -1.54005184147248      1.04187091879200     -1.61469632594761
  N   1.52801121824599     -1.30688984984216     -0.23176354078678
  O   2.20126335304416     -1.73761170413741     -1.16317830304435
  O   1.49374628089483     -1.75456452942286      0.91159555062132
  C   1.34449229059203      1.07718754080238      0.24347743281705
  H   0.81076379124058      2.00699455889648      0.04763570827623
  H   1.36768934768702      0.90119589907214      1.31621695827357
  H   2.36635674589821      1.18895281596658     -0.12669761647383
