18
Coordinates from ORCA-job run
  C   -0.77784099872795     -0.38586130468534     -0.19573519861278
  C   0.69655252302176     -0.08377164614649     -0.49627926968170
  Cl  -1.25022325641095     -1.80347095850551     -1.14130861987000
  H   0.75569459486457      0.05355559888795     -1.57768993119365
  N   -0.99391263319033     -0.67837189005977      1.29742887346631
  O   -1.33649953584628     -1.79130904018659      1.65553628041620
  O   -0.81509616294378      0.29923172987347      2.01879546761778
  C   -1.67837575060609      0.78150000627096     -0.55744318902935
  H   -1.55127626896860      1.02612641260173     -1.61310110326944
  H   -2.71938563713374      0.49965123496232     -0.39151591491564
  H   -1.44571052213147      1.64910956085641      0.05699135611321
  N   1.53286316610361     -1.30121598585176     -0.23023097642127
  O   1.50462595584817     -1.74174277539171      0.91613047779297
  O   2.20510453894275     -1.73489627558630     -1.16090773144155
  C   1.34088295254179      1.08488241272036      0.23008616218864
  H   2.36141670079894      1.19731527475281     -0.14359619345840
  H   0.80326708846454      2.01131084605444      0.02878287253123
  H   1.36791324537306      0.91695679943300      1.30405663776745
