18
Coordinates from ORCA-job run
  C   -0.70907120708723     -0.30203365792401      0.07915964395543
  C   0.71172715858384      0.25983428799444     -0.11191099037626
  Cl  -0.67668493283172     -2.03809405356744      0.36394999801183
  H   0.59759188690238      1.32063744916428     -0.33885303709267
  N   -1.22059556656622      0.41843195329818      1.34144042741370
  O   -1.52755147465476     -0.22790580214997      2.32995760554966
  O   -1.26884015475962      1.64004225668036      1.22415113852434
  C   -1.68399749607450      0.02269283471773     -1.03645905340448
  H   -1.68093872659523      1.09373527690612     -1.23631058637351
  H   -1.40574942490094     -0.51052896915378     -1.94348384438968
  H   -2.68582135450062     -0.29213613736219     -0.73811899698988
  N   1.28589348647570     -0.33419227169661     -1.36800624585076
  O   2.04374657527763     -1.29333576889619     -1.25933611861356
  O   0.94106580096296      0.19542115022389     -2.42447126157148
  C   1.64131316448409      0.04286577760360      1.06185145737265
  H   1.73316427157164     -1.01255450203008      1.30908046887010
  H   2.63233957623160      0.42883158150978      0.81899846582190
  H   1.27140841748102      0.58928859468190      1.93136092914268
