18
Coordinates from ORCA-job run
  C   -0.74025221897859     -0.38274004347166     -0.31169626157113
  C   0.74459937742306     -0.01324776666860     -0.42885992079497
  Cl  -1.06613997824137     -1.70750310111949     -1.43638336414765
  H   0.90545281509609      0.23820112559000     -1.47895053579868
  N   -1.09145131455620     -0.83256770805736      1.11561490592660
  O   -1.42494108688180     -1.98536503229351      1.32490874887638
  O   -1.02240629559745      0.07061538547557      1.94464984669702
  C   -1.64233544661820      0.79180381583782     -0.64522711333849
  H   -1.42239455928095      1.14419622466322     -1.65412082177845
  H   -2.68389412859285      0.46811803685232     -0.61235440360722
  H   -1.50156963213073      1.59921004270472      0.07074814011441
  N   1.59371376556225     -1.23057106794624     -0.20453037470615
  O   1.47164206959238     -1.78669352655124      0.88380374694542
  O   2.36490901078147     -1.55048871825033     -1.10397546145351
  C   1.27206097209464      1.08812752574368      0.47525816855521
  H   2.31915311721214      1.26690910425630      0.21952185512498
  H   0.72264875059121      2.01617979606033      0.31814459145969
  H   1.20120478252490      0.80781590717446      1.52344825349653
