18
Coordinates from ORCA-job run
  C   -0.77257070679704     -0.40889748270559     -0.16746793851527
  C   0.68382106004733     -0.07300918508969     -0.51547006364497
  Cl  -1.23408500284001     -1.85355832764799     -1.07653235963874
  H   0.70888004130158      0.04867905760786     -1.60003086726923
  N   -0.93683255968066     -0.68323662486889      1.33630166261595
  O   -1.23550700790859     -1.79997757834960      1.72081986159102
  O   -0.76642987611361      0.31048305085701      2.03719969954759
  C   -1.71408546522216      0.72837390626322     -0.52055908896286
  H   -2.74218198765158      0.42087565302016     -0.32282711664057
  H   -1.48926698215936      1.61092074211573      0.07516803411313
  H   -1.62172786910868      0.96089206993312     -1.58255689459046
  N   1.55962889671668     -1.26397017643607     -0.25591877140011
  O   1.58070557683444     -1.68393258333906      0.89819766741623
  O   2.21117628641207     -1.69789061272310     -1.20115991922938
  C   1.31658281690304      1.12333074399905      0.17516274383985
  H   1.38211751069622      0.97081571382773      1.24977250288150
  H   2.32141468764008      1.25987756232323     -0.23157950288926
  H   0.74636058093023      2.03122407121288     -0.02051964922441
