18
Coordinates from ORCA-job run
  C   -0.77197151595837     -0.39595973965821     -0.19801207913496
  C   0.69744177475171     -0.06960613150578     -0.49685430935374
  Cl  -1.22369609595203     -1.81483525171200     -1.15149393546992
  H   0.75477068355684      0.07706605318277     -1.57710804240094
  N   -0.98211618714651     -0.70081221829371      1.29391333452575
  O   -1.30386167565862     -1.82218123447127      1.64514683292141
  O   -0.82059814457418      0.27538419192318      2.02116594574522
  C   -1.69040743654868      0.75965242458123     -0.55246308496045
  H   -2.72693756324679      0.46054385567819     -0.38886335511333
  H   -1.56663441689304      1.01286546587315     -1.60648465319870
  H   -1.47176865805973      1.62698785754006      0.06740182856438
  N   1.55249614917696     -1.27639606358057     -0.24074154866161
  O   2.22656697690312     -1.69519623769903     -1.17692671619056
  O   1.53527756964207     -1.72386706982223      0.90311194293901
  C   1.32390331434421      1.10304102406144      0.23879512318364
  H   2.34140185261408      1.23631434981239     -0.13631784933271
  H   1.35683078883726      0.92586964271319      1.31108021171131
  H   0.77030258421171      2.02212908137720      0.04765035422621
