18
Coordinates from ORCA-job run
  C   -0.76555536542376     -0.24836649661816     -0.34747255469494
  C   0.77021298702943     -0.22375954938299     -0.37741839017563
  Cl  -1.33840217156738     -0.20797740448867     -2.02980685354965
  H   1.09795134470692     -1.07206871201055     -0.97914373885546
  N   -1.14385939513813     -1.63135085466284      0.21077027407988
  O   -1.69755698690766     -1.64902243900655      1.30558984240247
  O   -0.81316147233984     -2.60169349962546     -0.45549717281554
  C   -1.43818512493489      0.84275456138859      0.44700024520838
  H   -1.08611991466405      0.84755508158860      1.47637576847222
  H   -2.51640476770075      0.68655862380863      0.44079167848055
  H   -1.22320531219993      1.80635214546678     -0.01466181899413
  N   1.26948136847366     -0.53259333726343      1.01385701114942
  O   1.62461261952169     -1.69014200637511      1.22724202342902
  O   1.28207643153070      0.38703371372445      1.82964692317616
  C   1.37347102686748      1.08322285235747     -0.84743635031601
  H   1.03082545741157      1.31291367939596     -1.85611099349271
  H   2.46110620014627      0.99087710559959     -0.86765705207606
  H   1.11371307518868      1.89970653610370     -0.17606884142797
