18
Coordinates from ORCA-job run
  C   -0.77817373841313     -0.38328938851266     -0.19829516995997
  C   0.69619469870331     -0.08061698327209     -0.49771810856981
  Cl  -1.25322363761034     -1.79348402267181     -1.15357708174041
  H   0.75525726316600      0.06495355885490     -1.57803012132487
  N   -0.99257240443440     -0.68666963193138      1.29316326307193
  O   -1.33332215218753     -1.80270932537059      1.64339916345639
  O   -0.81410796439340      0.28573904386984      2.02152426405281
  C   -1.67790135912428      0.78748792623178     -0.55077075067031
  H   -1.55092909369714      1.03972531089065     -1.60464226011228
  H   -1.44452188685516      1.65047823784774      0.06981601698709
  H   -2.71905111042479      0.50517631356661     -0.38662022832700
  N   1.53144173143887     -1.30102304394277     -0.24172291882651
  O   1.50674571892893     -1.74822750437460      0.90208521551725
  O   2.19880949666817     -1.73071033919505     -1.17777526629422
  C   1.34169619550692      1.08165136358914      0.23794092566996
  H   0.80285993999093      2.00955683868859      0.04723493643132
  H   2.36118496071720      1.19849276879920     -0.13718848538065
  H   1.37161334201984      0.90346887693249      1.31017660601929
