16

C	0.0	0.0	0.0
C	-0.520064	-0.324624	-1.414912
F	1.352244	0.0	0.0
H	-1.62469	-0.216814	-1.301337
C	-0.518987	1.348793	0.436116
H	-0.19443	1.544948	1.455236
H	-1.621322	1.270818	0.415029
H	-0.191623	2.134384	-0.240504
N	-0.590374	-0.997733	0.937497
O	-1.723825	-1.44991	0.471022
O	-0.363433	-0.776461	2.149572
C	-0.188883	-1.67285	-1.86623
N	0.13001	-2.699388	-2.343639
C	0.000317	0.650873	-2.374885
N	0.411507	1.443588	-3.140725
H	-2.813987	0.0	0.0
