16

C	0.0	0.0	0.0
C	-0.501973	0.035646	-1.452667
F	1.362214	0.0	0.0
H	-1.608966	0.105596	-1.357362
C	-0.480288	1.198761	0.780012
H	-0.084758	1.104569	1.791183
H	-0.143515	2.12786	0.317527
H	-1.578595	1.164847	0.805691
N	-0.582366	-1.200666	0.637934
O	-1.746142	-1.47237	0.098877
O	-0.287614	-1.368602	1.845547
C	-0.135771	-1.178038	-2.184185
N	0.182934	-2.107405	-2.827513
C	0.017734	1.211839	-2.152514
N	0.406047	2.169146	-2.712121
H	-2.86926	0.0	0.0
