16

C	0.0	0.0	0.0
C	-0.353286	-0.002055	-1.559757
F	1.35324	0.0	0.0
H	0.447746	0.588915	-1.999887
N	-0.636998	1.198249	0.565112
O	-0.60447	2.204328	-0.226176
O	-0.473971	1.335936	1.802053
C	-0.462593	-1.166364	0.754708
N	-0.60455	-2.199164	1.314233
N	-1.60803	0.395982	-2.073557
H	-2.380056	-0.263695	-2.092321
H	-1.786506	1.395504	-2.187188
N	-0.120758	-1.438578	-2.019632
O	-1.112276	-2.150342	-2.212002
O	1.045803	-1.812587	-2.113508
H	-2.048936	0.0	0.0
