16

C	0.0	0.0	0.0
C	-0.466619	-0.02466	-1.506102
F	1.355994	0.0	0.0
H	0.109462	0.759523	-2.0042
N	-0.562065	1.218956	0.570374
O	-0.651011	2.232432	-0.234791
O	-0.365158	1.362599	1.814457
C	-0.51329	-1.091936	0.840258
N	-0.88349	-2.019736	1.4744
N	-1.898384	0.113621	-1.670931
H	-2.216035	-0.138692	-2.600914
H	-2.142494	1.06799	-1.426556
N	-0.119286	-1.323957	-2.180095
O	-0.517697	-1.440883	-3.34158
O	0.528183	-2.169242	-1.573329
H	-1.818835	0.0	0.0
