16

C	0.0	0.0	0.0
C	-0.36947	0.097712	-1.499807
F	1.353447	0.0	0.0
H	-1.34767	0.560504	-1.605099
N	-0.323666	1.312761	0.749285
O	-0.940009	2.212697	0.200939
O	0.123534	1.339715	1.893009
C	-0.811412	-1.03898	0.644996
N	-0.724294	-2.051364	1.281362
N	-0.34299	-1.202915	-2.060575
H	0.566325	-1.628972	-1.929916
H	-0.549668	-1.166205	-3.048271
N	0.606002	1.048977	-2.238759
O	1.02319	2.055708	-1.677183
O	0.848904	0.757493	-3.414117
H	-2.217067	0.0	0.0
