14

C	-0.234202	-0.006323	-1.485674
C	0.0	0.0	0.0
Br	-2.155372	-0.345915	-2.003311
H	1.092514	0.0	0.0
H	-0.28294	-0.993903	0.358052
N	0.011802	1.395109	-2.131418
O	0.260605	1.386481	-3.333747
O	-0.044214	2.387696	-1.419463
N	0.609949	-0.96851	-2.039316
H	1.542128	-0.849986	-1.596263
H	0.664317	-0.86383	-3.04522
C	-0.637327	0.99929	0.826755
N	-1.138502	1.739993	1.589989
H	2.660381	0.0	0.0
