14

C	-0.219352	0.046428	-1.493442
C	0.0	0.0	0.0
Br	-0.10097	-1.935284	-2.165071
H	1.093778	0.0	0.0
H	-0.414688	-0.887973	0.469326
N	-1.644287	0.367156	-1.934723
O	-2.545635	0.065788	-1.162061
O	-1.783292	0.894178	-3.034186
N	0.681251	0.899713	-2.063858
H	0.648618	0.950156	-3.071228
H	1.621151	0.7566	-1.65129
C	-0.480318	1.213845	0.635348
N	-0.851669	2.191713	1.171061
H	2.69865	0.0	0.0
