14

C	-0.567546	0.05388	-1.417711
C	0.0	0.0	0.0
Br	-0.002787	1.723703	-2.22642
H	1.091549	0.0	0.0
H	-0.294492	0.924246	0.508069
N	0.029443	-1.123443	-2.202638
O	0.992302	-0.959709	-2.931778
O	-0.536457	-2.193111	-1.970621
N	-1.994316	-0.059783	-1.597573
H	-2.294771	-0.9183	-1.145082
H	-2.431794	0.725346	-1.130553
C	-0.536343	-1.125316	0.744417
N	-0.955533	-2.038944	1.356262
H	2.684519	0.0	0.0
