14

C	-0.293899	0.034483	-1.494211
C	0.0	0.0	0.0
Br	0.05063	-1.702095	-2.290384
H	1.096042	0.0	0.0
H	-0.299573	0.970126	0.413865
N	-1.777849	0.388476	-1.699541
O	-2.612059	-0.498545	-1.812261
O	-2.026245	1.592274	-1.627364
N	0.49626	1.014888	-2.173025
H	0.227111	1.923243	-1.807599
H	1.461919	0.838365	-1.867788
C	-0.606653	-1.073401	0.75525
N	-1.092754	-1.934292	1.392048
H	2.684118	0.0	0.0
