14

C	-0.594443	0.007433	-1.386751
C	0.0	0.0	0.0
Br	0.203678	1.467788	-2.432977
H	1.089189	0.0	0.0
H	-0.306771	0.93608	0.477425
N	-0.176871	-1.274598	-2.149466
O	-0.821591	-1.526738	-3.167146
O	0.753609	-1.932519	-1.705597
N	-2.004446	0.169949	-1.412889
H	-2.422905	-0.526924	-0.804661
H	-2.34415	0.037551	-2.359807
C	-0.535737	-1.116367	0.759444
N	-0.986955	-2.023772	1.355816
H	2.669927	0.0	0.0
