14

C	0.0	0.0	0.0
C	-0.504365	-0.006794	-1.450696
Cl	1.763768	0.0	0.0
H	-1.602708	0.035864	-1.327397
H	-0.053725	0.85133	-1.953623
C	-0.506057	1.201214	0.665159
N	-0.723309	2.23458	1.182826
N	-0.469962	-1.219762	0.78916
O	-0.60895	-1.072159	1.992481
O	-0.546396	-2.266148	0.16382
N	-0.13975	-1.202164	-2.265898
O	-1.072563	-1.858089	-2.723234
O	1.049342	-1.426586	-2.49486
F	-2.510871	0.0	0.0
