12

C	-0.461661	-0.054153	-1.441425
C	0.0	0.0	0.0
F	-0.451049	-1.415114	-1.843539
H	1.09031	0.0	0.0
H	-0.393178	-0.844998	0.563779
H	-0.336001	0.934759	0.453492
C	-1.886255	0.350068	-1.58953
N	-3.007892	0.677566	-1.714256
N	0.350089	0.725343	-2.277143
H	-0.069034	1.363191	-2.926396
H	1.265605	0.956692	-1.918704
Br	3.631767	0.0	0.0
