12

C	-0.440892	0.049221	-1.457855
C	0.0	0.0	0.0
F	-0.576055	-1.285058	-1.919818
H	1.090366	0.0	0.0
H	-0.323713	0.906497	0.506666
H	-0.401056	-0.87926	0.499773
C	-1.809747	0.596672	-1.631685
N	-2.880689	1.051725	-1.757989
N	0.462145	0.780076	-2.204576
H	1.415669	0.864883	-1.87669
H	0.170841	1.323878	-2.985378
Br	3.647326	0.0	0.0
