17

C	-0.534888	0.017859	-1.431147
C	0.0	0.0	0.0
Cl	0.221447	-1.216749	-2.462474
H	1.093594	0.0	0.0
C	-1.986887	-0.151994	-1.453041
N	-3.143191	-0.354779	-1.393114
N	-0.221637	1.365132	-2.093363
O	0.828064	1.896668	-1.780155
O	-1.033712	1.76444	-2.922975
C	-0.452222	-1.253426	0.73423
H	-0.149101	-2.15794	0.205673
H	0.036272	-1.263486	1.710474
H	-1.538051	-1.269803	0.87472
N	-0.526353	1.216789	0.62175
H	0.249457	1.823893	0.854309
H	-1.029587	0.996944	1.471649
Cl	3.39635	0.0	0.0
