17

C	-0.473841	0.023602	-1.463857
C	0.0	0.0	0.0
Cl	-2.245402	0.165778	-1.564824
H	1.094709	0.0	0.0
C	0.106668	1.133343	-2.212151
N	0.509264	2.033544	-2.849854
N	-0.045166	-1.284215	-2.151167
O	1.114654	-1.298613	-2.540099
O	-0.848021	-2.208692	-2.185894
C	-0.477042	-1.237642	0.747148
H	-0.119925	-1.158364	1.776124
H	-0.060303	-2.154673	0.327437
H	-1.568318	-1.316987	0.753985
N	-0.416988	1.26769	0.579358
H	0.318563	1.605156	1.185701
H	-1.272249	1.166973	1.109937
Cl	3.373105	0.0	0.0
