17

C	-0.408612	-0.047968	-1.473454
C	0.0	0.0	0.0
Cl	0.240494	1.337509	-2.360902
H	1.096208	0.0	0.0
C	0.018535	-1.279553	-2.135051
N	0.320338	-2.296952	-2.63949
N	-1.946531	-0.002773	-1.673975
O	-2.645902	0.203563	-0.688986
O	-2.352446	-0.174833	-2.81639
C	-0.433488	-1.248009	0.766866
H	-0.087444	-2.163174	0.281005
H	0.042192	-1.20724	1.749174
H	-1.517025	-1.295815	0.900137
N	-0.419361	1.26218	0.585159
H	0.3437	1.622562	1.142472
H	-1.240232	1.141181	1.1618
Cl	3.334771	0.0	0.0
