13
Coordinates from ORCA-job run
  C   -0.30937936517882     -0.07866446256317      0.11327310980933
  C   0.94282624912845     -0.18866556600404     -0.37487021001544
  H   1.34909696334146     -1.16719281520948     -0.62530819570826
  C   -1.20033461043036     -1.26071807931517      0.33458717199038
  H   -0.72000687032190     -2.18348196941020      0.00674985017924
  H   -1.45650369297444     -1.35380451497317      1.39359919858329
  H   -2.13819662583717     -1.14878889724726     -0.22073902668578
  N   -0.81337282392288      1.14978332126680      0.54868604898020
  H   -1.79716735756821      1.26796899691580      0.35165489476621
  H   -0.25259383949106      1.90528525125836      0.17128704588393
  N   1.73577326117380      0.99695018850560     -0.53096807877594
  H   2.26065099149256      0.96538216755583     -1.39500016859716
  H   2.40020772058856      1.09594637922011      0.22804835959000
