13
Coordinates from ORCA-job run
  C   -0.34040368785787      0.25727439508073      0.19166328480250
  C   0.88551605278048      0.53397562000845     -0.29692057220876
  H   1.22476682354137      1.57443985798633     -0.31574054198206
  C   -0.90337833794735     -1.12765622491034      0.26416449743441
  H   -1.85797141424195     -1.18317409163927     -0.27145517603605
  H   -0.20467022131889     -1.83426896020921     -0.17744631314423
  H   -1.09694001314157     -1.39953768047990      1.30558996483653
  N   -1.15164725446177      1.24245125320858      0.77971444548014
  H   -0.85387891112089      2.18364241734644      0.56157935309273
  H   -2.13049711548564      1.12151102932892      0.56073268428648
  N   1.76177650498272     -0.50362457072537     -0.75482559823504
  H   2.57744699959785     -0.56870691129979     -0.15739624621863
  H   2.09088057467353     -0.29732613369557     -1.68965978210801
