13
Coordinates from ORCA-job run
  C   -0.31816723154805     -0.07471858489180      0.08831325346304
  C   0.94638156327665     -0.19001096143467     -0.36537858587287
  H   1.31056700802285     -1.14524177356341     -0.73957094729298
  C   -1.27937794317637     -1.22173475080153      0.11065099914404
  H   -2.18647341153169     -0.97921932717988     -0.45402483393321
  H   -1.58344521989600     -1.44595043772248      1.13686120598742
  H   -0.83576384495401     -2.11636377802253     -0.32804437843502
  N   -0.77285811852287      1.10854215784597      0.67607994877111
  H   -1.74071298406288      1.30978275818337      0.46803015978502
  H   -0.15902726430610      1.87607419550889      0.42785783962032
  N   1.80798293258285      0.95683435495239     -0.32454970281045
  H   2.44051058205903      0.91140403942970      0.46619068147944
  H   2.37038393205659      1.01160210769597     -1.16341563990585
