13
Coordinates from ORCA-job run
  C   -0.32543829014055      0.27544152878970      0.15165093342698
  C   0.97614863816010      0.56882119413828     -0.04098775389833
  H   1.33433455186197      1.56814602128911      0.20043617356144
  C   -0.95107488069668     -1.05891056321388     -0.12527192395660
  H   -1.15015938405290     -1.61243334609170      0.79968446752801
  H   -0.32776886812871     -1.69344493123605     -0.75810384660575
  H   -1.90616887150025     -0.91009309805880     -0.63504547716941
  N   -1.26652557570351      1.25563524190602      0.57341354748201
  H   -1.80665816082896      0.92773136231527      1.36572934628905
  H   -0.80970293717165      2.12112478932798      0.83237873367327
  N   2.00810403381564     -0.31080742545550     -0.44323511977093
  H   1.65817679304054     -1.21398767891301     -0.72880340119487
  H   2.56473295134495      0.08177690520258     -1.19084567936486
