13
Coordinates from ORCA-job run
  C   -0.32612029191590     -0.06687838447028      0.06239468101981
  C   0.93708868131548     -0.16604162778401     -0.39901504256215
  H   1.23622803689243     -1.02417757201613     -0.99840370931744
  C   -1.37336955429905     -1.09987085941526     -0.21391133700627
  H   -0.96063088347279     -1.93864506025292     -0.77578364146158
  H   -1.79130915842711     -1.48867537419363      0.72130189678805
  H   -2.19859931393983     -0.66522943611387     -0.78481154683417
  N   -0.76435080410676      1.07515063064533      0.73749077098723
  H   -1.42274982951817      0.87262244108998      1.47640331304151
  H   0.03160800151113      1.60892267284518      1.06760412976760
  N   1.86948399187133      0.88503049566684     -0.10729303122796
  H   1.98336120405144      1.50404036351738     -0.90186077118818
  H   2.77935992003780      0.50375171048138      0.11588428799355
