13
Coordinates from ORCA-job run
  C   -0.36435369928844      0.26502018512453      0.12656120297953
  C   0.88741503824538      0.52872624489901     -0.29963752620289
  H   1.21697381041703      1.57070320816184     -0.36032075255679
  C   -0.91555460762451     -1.12085990632106      0.25070837817032
  H   -0.14535740348898     -1.84793214051365      0.00418167995042
  H   -1.26972129731792     -1.30342174378154      1.27169713502924
  H   -1.77099670286984     -1.24668283729363     -0.41891854046488
  N   -1.29577126956146      1.28386260534944      0.38803965103271
  H   -0.87031708749942      2.19621550638929      0.48098988085874
  H   -1.87984476187507      1.08207027812401      1.18727870050408
  N   1.77678316909824     -0.51844867773367     -0.70746652028128
  H   1.96958182171214     -0.45510623885831     -1.70007633453887
  H   2.66216299005285     -0.43414648354627     -0.22403695448034
