13
Coordinates from ORCA-job run
  C   -0.39257289639625      0.25327776287909      0.01495155784029
  C   0.88925682798271      0.52405672016624     -0.30404032768084
  H   1.14736542996529      1.53162849366561     -0.64486339011952
  C   -0.85697083123500     -1.08860009117027      0.48784021659452
  H   -1.25703844661606     -1.01095004055822      1.50270940795412
  H   -1.66274386858029     -1.46377608730385     -0.15341041380415
  H   -0.02939024303466     -1.79382583041400      0.47143778423085
  N   -1.38462911803253      1.24801284620720      0.03456285095139
  H   -1.11236080781804      2.09040372916571     -0.45352561443974
  H   -2.27705089905908      0.91557911537842     -0.30257527313164
  N   1.91892536545595     -0.46407866628638     -0.17248449459172
  H   2.44345050407106     -0.54022721146438     -1.03494028617058
  H   2.57375898329689     -0.20050074026518      0.55433798236703
