13
Coordinates from ORCA-job run
  C   -0.36285727442187      0.25388469111535      0.15121616326531
  C   0.88390225540870      0.55266986235294     -0.26650614743592
  H   1.18526731429447      1.60338736878747     -0.32281150989075
  C   -0.87848772149707     -1.14670450878524      0.26468722901415
  H   -1.13145700806707     -1.37013243436117      1.30491696108227
  H   -0.12657112682682     -1.84751671230700     -0.09022725483374
  H   -1.79257885927285     -1.26892808492042     -0.32754076202945
  N   -1.24983439826429      1.23623912791161      0.62277158309581
  H   -0.97101572729462      2.17557552369531      0.37388864526786
  H   -2.20529288614325      1.06456094134895      0.34298510627618
  N   1.82836826330829     -0.47250495243502     -0.59959564079032
  H   2.59668424211777     -0.47605844829482      0.06082368473433
  H   2.22187292665862     -0.30247237410796     -1.51660805775571
