13
Coordinates from ORCA-job run
  C   -0.30900990679198     -0.09900192956110      0.09605526726308
  C   0.88695100027901     -0.05606890771059     -0.52526095935686
  H   1.15546207598227     -0.82173616387825     -1.25096708882747
  C   -1.31567676612532     -1.17737762601456     -0.15673985601645
  H   -1.50715285340005     -1.74386861215467      0.75881092639606
  H   -0.97071797754705     -1.86525644694260     -0.92966352864921
  H   -2.27004791868715     -0.74913795252319     -0.48262156191322
  N   -0.63291355935156      0.80707725730668      1.10925643876237
  H   -1.60751257981312      1.07289166809883      1.10787360795750
  H   -0.01564782789042      1.60989102923651      1.06531898166894
  N   1.80193744654940      1.00073567845811     -0.20109361327550
  H   2.26520926907784      1.34069697500836     -1.03341519226391
  H   2.51911959771812      0.68015503067646      0.43944657825465
