13
Coordinates from ORCA-job run
  C   -0.24318146394717     -0.11336098600766      0.12648327527774
  C   1.01686729587864     -0.23808845068264     -0.34089998930628
  H   1.44736382167279     -1.23175227727316     -0.42135978971727
  C   -1.08309660679571     -1.30782770305044      0.46079177882118
  H   -0.53136216656156     -2.23460705280091      0.29735274667603
  H   -1.98446318427274     -1.34437804152176     -0.16238328436395
  H   -1.40861412058708     -1.26226239602294      1.50357536943875
  N   -0.86453267812835      1.11673191763466      0.42545902362535
  H   -0.31132075438121      1.92272108988235      0.17565258736104
  H   -1.79767291373618      1.19558858632867      0.04504385589785
  N   1.84301625243139      0.80788259709601     -0.83355352523337
  H   1.31973658599306      1.63850223326589     -1.07123473798904
  H   2.59825993243413      1.05285048315193     -0.20692731048803
