13
Coordinates from ORCA-job run
  C   -0.25967827068749     -0.06499361325405      0.02197356852417
  C   0.99501588710375     -0.24828158298531     -0.42941967391489
  H   1.26060929909798     -1.14248977085234     -0.98379744771954
  C   -1.39161820696091     -1.00170592673992     -0.26448358970325
  H   -2.22588979316313     -0.47183447324928     -0.73989053081222
  H   -1.77832069166216     -1.46021801876258      0.65262267577167
  H   -1.08143937914141     -1.79736803596687     -0.94498254368824
  N   -0.51101724987318      1.08807691474397      0.82485276001123
  H   -1.49456217660928      1.21572594179115      1.01254648841467
  H   -0.00593037084491      1.05305546319647      1.70262168480083
  N   2.04987221474431      0.62248925070544     -0.09924521327597
  H   1.68328215543344      1.55421828857924      0.06513873772630
  H   2.75867658256299      0.65132556279408     -0.81793691613476
