13
Coordinates from ORCA-job run
  C   -0.30990887917666     -0.08038827303844      0.11147566211581
  C   0.99469815716761     -0.16400952006588     -0.21917031569041
  H   1.53756316131642     -1.09736159419581     -0.08031805065669
  C   -1.07661336973791     -1.23195108673270      0.68224544488443
  H   -0.45892771996329     -2.12934223179206      0.73439770737530
  H   -1.95397938473044     -1.45779385969598      0.06599640008236
  H   -1.43605518792077     -0.99221539608493      1.68679789401505
  N   -0.99763497823716      1.13419931074587      0.04705419126465
  H   -0.48922822537181      1.78813498016894     -0.53723302245804
  H   -1.96040886023420      1.03164238267025     -0.24115543475515
  N   1.65810437844535      0.99895895368330     -0.73556626504175
  H   2.21474665471516      1.45087856540609     -0.01908907005442
  H   2.27964425372770      0.74924776893135     -1.49343514108113
