13
Coordinates from ORCA-job run
  C   -0.24529863363156     -0.09246506754406      0.05672009548315
  C   0.98180460032716     -0.18777537010140     -0.48828057287791
  H   1.30171504987497     -1.09358754491872     -0.99250000405137
  C   -1.29200279517967     -1.15637991809910     -0.05546520951963
  H   -2.20795128902517     -0.76117205059384     -0.51068658916796
  H   -0.94662945692581     -1.98408701316369     -0.67840423148644
  H   -1.56448452994113     -1.55631773656030      0.92804898218417
  N   -0.56309096679839      1.10632924370552      0.76412191097243
  H   -1.53764383817657      1.14205777192190      1.02649968687534
  H   0.00807599982595      1.20856969051502      1.59548870917208
  N   1.95178308887060      0.82008620861441     -0.32337096340067
  H   1.49513109907441      1.72265196104467     -0.24373657826906
  H   2.61959167170523      0.83308982517957     -1.08043523591412
