13
Coordinates from ORCA-job run
  C   -0.35892052969433      0.27196652416235      0.04041321832362
  C   0.90065542722503      0.61548446104164     -0.29558526558403
  H   1.13121300805794      1.66306375098258     -0.48145727961700
  C   -0.81483366130754     -1.12557305322164      0.33540347026176
  H   -0.96173334712780     -1.28429599667880      1.40999151316239
  H   -1.77209567313417     -1.30444355069813     -0.16051808890864
  H   -0.10932907818228     -1.88194972526824     -0.01342133031830
  N   -1.41782347817229      1.22223362145827      0.07173141395092
  H   -1.92695813929785      1.17295964100497      0.94666959935220
  H   -1.07085301966535      2.16621680464545     -0.04409346632085
  N   2.03750838302437     -0.22410016184277     -0.35107306230447
  H   2.55953950958528     -0.09129565468991     -1.20691371336595
  H   1.80263059868900     -1.20126666089577     -0.25314700863166
