13
Coordinates from ORCA-job run
  C   -0.31830613356802     -0.08902686189221      0.07498076921496
  C   0.92423986856460     -0.09310435521097     -0.44898785631414
  H   1.24167580643532     -0.90463608012109     -1.10156063458668
  C   -1.31732549207180     -1.16910638387986     -0.19966442723036
  H   -2.19168225463292     -0.75976826004230     -0.71326209920575
  H   -0.88493378814278     -1.95822248960048     -0.81604762160440
  H   -1.66820153746921     -1.62032174483613      0.73507030574874
  N   -0.78729253188425      0.99525823944691      0.82126602218876
  H   -0.00741428039724      1.56019353462552      1.13763506101785
  H   -1.39498975005914      0.72187968857703      1.58055169723770
  N   1.80781937820744      0.99844044323717     -0.15402311163918
  H   2.74768911576983      0.66312883013390      0.01101570517660
  H   1.84772159924818      1.65528543956250     -0.92497381000410
