13
Coordinates from ORCA-job run
  C   -0.29441483407448      0.33180197802117      0.02122219105433
  C   0.94872559078034      0.52525341105662     -0.45749266397151
  H   1.22238331310751      1.53994705993812     -0.72992805604948
  C   -0.86361819044825     -1.00602128454195      0.40537831154806
  H   -0.20975969154667     -1.84264011010047      0.14623152213132
  H   -1.07066291627403     -1.05939839941434      1.48098237678235
  H   -1.81574112271185     -1.17431914402149     -0.10998768957931
  N   -1.12126327238217      1.50243578408765      0.15961189414096
  H   -1.95740100046411      1.40835710594590     -0.40748026769431
  H   -1.43057549720158      1.59942023608377      1.12084196851135
  N   1.91176194131745     -0.45074793470908     -0.74499193345955
  H   1.82872273162161     -1.28574053427214     -0.18538874985672
  H   2.85184294827622     -0.09034816807378     -0.69899890355751
