13
Coordinates from ORCA-job run
  C   -0.31776348758340     -0.09560535257580      0.06809002389974
  C   1.01071165288118     -0.13297476634451     -0.16009507607256
  H   1.54835909180860     -1.07866168560621     -0.11805353841870
  C   -1.12055931246645     -1.31875731271235      0.38359993728254
  H   -0.48334723226381     -2.20135563182258      0.45143335180148
  H   -1.87763626749190     -1.48895905113544     -0.38696289000034
  H   -1.64552814683709     -1.20333153411433      1.33836983224568
  N   -1.04816180018871      1.08488609771550     -0.09054736480821
  H   -0.42209068412003      1.88206838416414     -0.08581324497813
  H   -1.79752694810419      1.18207361042847      0.57990420236546
  N   1.69614909091347      1.08583350792030     -0.48253209514378
  H   2.59358711319070      1.12574301324057     -0.01776545383405
  H   1.86380693026163      1.15804072084226     -1.47962768433913
