13
Coordinates from ORCA-job run
  C   -0.35213005076295      0.28334646037267      0.05795096294222
  C   0.86466867686280      0.58340699476724     -0.43942028453429
  H   1.10164883039789      1.62167531512788     -0.66803162538859
  C   -0.80185836912903     -1.10002871364752      0.42350159384752
  H   0.03634915441986     -1.77032639325406      0.62360054539583
  H   -1.41972305524083     -1.53705326179043     -0.36662712433379
  H   -1.41549336292048     -1.07021386423463      1.32990504821498
  N   -1.39139718737960      1.24884455197841      0.13250938695634
  H   -1.06968269087109      2.17126976792169     -0.13200817778425
  H   -1.79879555977975      1.28922106149009      1.05919649581211
  N   1.85480750435602     -0.32848244557544     -0.87210116525080
  H   1.62453399473465     -1.28645334102918     -0.65174386970278
  H   2.76707211531250     -0.10520613212672     -0.49773178617450
