15
Coordinates from ORCA-job run
  C   0.88214274343416     -0.10002223595090      0.25605352651039
  C   -0.56008728338160      0.41140928012825      0.23591578826727
  H   1.26099362058605     -0.10982168094814      1.28009031469511
  H   -0.58016739435543      1.39532931606845      0.70659313218407
  N   1.72074355259820      0.91437876514218     -0.49713355811663
  O   2.31728056049497      0.54667418199197     -1.49789180351841
  O   1.71436898289443      2.03623977488558     -0.00625898376935
  C   0.98250319778802     -1.41690979965114     -0.35719448064267
  N   0.98951679536372     -2.49219739844193     -0.82984364519853
  N   -1.32796285889112     -0.49830847537850      1.22142551652595
  O   -0.92322516453393     -0.48787365852632      2.37991995791015
  O   -2.26841654618135     -1.14539680360192      0.77746531253498
  N   -1.07157422276898      0.45306385637757     -1.07167514167247
  H   -1.94190349420712      0.96272628863371     -1.12679474000154
  H   -1.19621248884002     -0.46929141072887     -1.47067119570832
