15
Coordinates from ORCA-job run
  C   0.93579264327506     -0.08221373502916      0.14895336491857
  C   -0.49099146497411      0.48843292543120      0.24448202245437
  H   1.45362065347034      0.11112746480409      1.09013613691996
  H   -0.44219249113273      1.51404043032914      0.61465738822868
  N   1.67499972214820      0.69019370362986     -0.91969251728041
  O   1.41862211751950      1.89114822494498     -0.97204615377988
  O   2.49663357662326      0.07886099621491     -1.62924828389251
  C   0.89584253594616     -1.49074211673212     -0.19757731099509
  N   0.66845904118968     -2.60501312809325     -0.40584174401095
  N   -1.13272546718484     -0.31246408358945      1.40293673021162
  O   -0.52936070366805     -0.30335234926010      2.46338301550588
  O   -2.17678776205707     -0.89817414124532      1.19721533206948
  N   -1.21723124894232      0.36882313472496     -0.95045665903434
  H   -1.90052971910533      1.10729319281174     -1.04836093480769
  H   -1.65315143310776     -0.55696051894147     -1.03754038650768
