15
Coordinates from ORCA-job run
  C   0.83549799657825     -0.08442772440741      0.21107712323438
  C   -0.64090969593149      0.34414918629456      0.35729913028132
  H   1.31404813336231     -0.13958568709624      1.19401664572141
  H   -0.66415419648370      1.28305309631536      0.90781131175400
  N   1.59080487817122      0.99504306814777     -0.54854093529469
  O   1.22528781248508      2.14742361933878     -0.34485929887246
  O   2.52267949905509      0.63630622214058     -1.25434664858772
  C   0.94829187940354     -1.35160319369707     -0.49550749408272
  N   0.95344442988963     -2.38261174928067     -1.05868794778845
  N   -1.22977214901584     -0.69517705568258      1.29843828415103
  O   -2.01379268341130     -1.51073055506258      0.83372696949483
  O   -0.81529353899684     -0.64473446878543      2.45432168267191
  N   -1.41450882536747      0.44255718587705     -0.81777900375947
  H   -1.26806678414220      1.31521141008152     -1.30186685770834
  H   -1.34255675559629     -0.35487335418364     -1.43410296121504
