15
Coordinates from ORCA-job run
  C   0.81033938288049     -0.08148069717428      0.30556818796562
  C   -0.68479812613438      0.30813650532587      0.29855354163834
  H   1.17077374754604     -0.17609851541926      1.33456729710489
  H   -0.79750588916038      1.21076915842444      0.89673808769673
  N   1.60848388160489      1.05799729547790     -0.30543337544089
  O   2.56776227541139      0.76792598233785     -1.00640176187424
  O   1.23565737710528      2.18547310832922     -0.00096092201226
  C   1.03866847910786     -1.30637414311792     -0.44578137732121
  N   1.14014402437840     -2.30547616091557     -1.05550914335068
  N   -1.35297156763378     -0.79830725184470      1.10049172252625
  O   -1.08331390392871     -0.80660755061353      2.29946024470277
  O   -2.05006846403082     -1.60233537908057      0.49787490904707
  N   -1.31369087901927      0.46255456855944     -0.95358101836987
  H   -1.13925286380399     -0.28801312259390     -1.60702243250215
  H   -1.15122747432301      1.37083620230499     -1.36056395981038
