15
Coordinates from ORCA-job run
  C   0.84147364993632      0.34804610988369      0.21027707222152
  C   -0.68451689257459      0.22858649891308      0.48782904125142
  H   1.11391746634259      1.40108768476752      0.31716085143938
  H   -0.83084778270419      0.38418026717666      1.55745060299112
  N   1.14316305107809      0.00359235594505     -1.23341040046036
  O   0.78732248090411      0.85194376946202     -2.04694928205470
  O   1.68163676641305     -1.06711365941774     -1.47273335002287
  C   1.63114046095240     -0.48282141903375      1.10741089623247
  N   2.23510081253407     -1.13548979901876      1.87497902596793
  N   -1.05363558609956     -1.21813187172422      0.24104830085604
  O   -1.14767707547131     -1.94971179384970      1.22116675647961
  O   -1.20819850954476     -1.53070755381011     -0.93510299308888
  N   -1.55631887411237      1.05769434150424     -0.26077179058709
  H   -1.28543976695621      1.14116102998121     -1.23087862502237
  H   -1.66712020069764      1.96768403922080      0.16152389379676
