15
Coordinates from ORCA-job run
  C   0.88812401297705     -0.12888937241012      0.22091992623245
  C   -0.53722903443145      0.42733200124501      0.25925531195968
  H   1.30552461119404     -0.15424661634055      1.22959874052329
  H   -0.50728655504538      1.40779574780675      0.73670979668690
  N   1.72638283513921      0.86218522900042     -0.56187514129627
  O   1.78152759083256      1.97919261391100     -0.06281087133708
  O   2.26329728853340      0.48311774490651     -1.59172786334096
  C   0.92480621574833     -1.44710237992222     -0.39685357174976
  N   0.88607745665132     -2.52449050234633     -0.86305318586485
  N   -1.29617030807690     -0.46427648493277      1.26659029457779
  O   -0.84506929765778     -0.47985375298090      2.40786876557133
  O   -2.27840321438947     -1.07051109374174      0.85643459513908
  N   -1.09577552115944      0.49658111155748     -1.02787395685851
  H   -1.26189648957827     -0.41770413277921     -1.43005427666850
  H   -1.95290959073722      1.03086988702666     -1.04512856357458
