19

C	0.0	0.0	0.0
C	-0.506472	-0.125941	-1.461042
Br	1.936465	0.0	0.0
H	-1.589102	-0.228826	-1.266484
N	-0.550974	1.058134	0.747081
H	-0.299084	1.93139	0.299773
H	-1.592256	0.856904	0.604761
N	-0.360191	-1.292541	0.803929
O	-0.76993	-1.164634	1.945923
O	-0.15463	-2.369192	0.251219
C	0.009761	-1.267151	-2.333297
H	-0.366065	-1.118115	-3.353462
H	-0.341683	-2.231944	-1.980599
H	1.103003	-1.294788	-2.380666
C	-0.276372	1.198286	-2.18977
H	0.787456	1.42764	-2.293669
H	-0.699096	1.132227	-3.194358
H	-0.772005	2.02795	-1.693346
F	-2.803273	0.0	0.0
