19

C	0.0	0.0	0.0
C	-0.382621	-0.033564	-1.548352
Br	1.955676	0.0	0.0
H	0.546797	-0.165822	-2.1014
N	-0.598641	0.936157	0.842553
H	-1.637052	0.685367	0.702084
H	-0.428295	1.859208	0.461994
N	-0.292311	-1.401181	0.636026
O	0.138438	-2.380469	0.03248
O	-0.889461	-1.437117	1.699816
C	-0.98542	1.319418	-1.92428
H	-1.944986	1.390555	-1.409005
H	-1.145577	1.35298	-3.005852
H	-0.333015	2.159489	-1.669244
C	-1.346492	-1.137089	-2.003392
H	-0.882816	-2.123058	-1.980793
H	-2.23143	-1.091187	-1.366726
H	-1.632018	-0.923317	-3.038587
F	-2.85596	0.0	0.0
