19

C	0.0	0.0	0.0
C	-0.389902	-0.346426	-1.505979
Br	1.949304	0.0	0.0
H	0.539846	-0.590031	-2.023934
N	-0.59882	1.090374	0.638636
H	-0.435617	1.913808	0.072447
H	-1.635563	0.818635	0.557102
N	-0.295012	-1.243265	0.901777
O	-0.924331	-1.072969	1.933153
O	0.156457	-2.319137	0.518523
C	-0.989628	0.907323	-2.146051
H	-0.327047	1.775527	-2.074419
H	-1.163156	0.722083	-3.209989
H	-1.943774	1.093804	-1.651313
C	-1.353771	-1.520114	-1.716382
H	-0.878562	-2.477947	-1.510818
H	-1.663609	-1.508777	-2.76747
H	-2.228428	-1.353042	-1.081751
F	-2.871794	0.0	0.0
