15

C	0.0	0.0	0.0
C	-0.501883	-0.012121	-1.453128
Cl	1.800759	0.0	0.0
H	-0.150114	-0.89697	-1.991681
H	-1.608161	-0.051018	-1.32783
N	-0.50029	1.114375	0.755671
H	-1.529397	0.980584	0.725603
H	-0.293043	1.976866	0.259413
C	-0.456738	-1.280766	0.67454
H	-0.058275	-2.15739	0.156917
H	-0.111116	-1.27903	1.709362
H	-1.554114	-1.275406	0.643045
C	-0.132923	1.186957	-2.190799
N	0.161973	2.164765	-2.772268
H	-3.107697	0.0	0.0
