15

C	0.0	0.0	0.0
C	-0.601109	-0.176138	-1.382831
Cl	1.845149	0.0	0.0
H	-0.35663	0.674428	-2.02744
H	-1.712704	-0.151428	-1.150547
N	-0.428372	1.271672	0.477821
H	-0.001885	2.023626	-0.047303
H	-0.214289	1.381771	1.459822
C	-0.488047	-1.087905	0.925879
H	-0.161587	-2.070498	0.580337
H	-0.108849	-0.927282	1.939608
H	-1.58873	-1.005487	0.902967
C	-0.216302	-1.412813	-2.041931
N	0.079886	-2.420366	-2.569403
H	-3.267623	0.0	0.0
