15

C	0.0	0.0	0.0
C	-0.518734	-0.050211	-1.43685
Cl	1.795394	0.0	0.0
H	-0.194897	0.852839	-1.959431
H	-1.625912	-0.035593	-1.317278
N	-0.506269	1.232147	0.551087
H	-1.536973	1.108411	0.504646
H	-0.255759	1.265104	1.53566
C	-0.429479	-1.245537	0.767013
H	-1.526407	-1.257162	0.742994
H	-0.020236	-2.156766	0.323086
H	-0.082213	-1.173084	1.802059
C	-0.111105	-1.233359	-2.178358
N	0.194973	-2.189157	-2.789037
H	-3.136684	0.0	0.0
