15

C	0.0	0.0	0.0
C	-0.502093	-0.014297	-1.452545
Cl	1.800503	0.0	0.0
H	-0.147824	-0.898177	-1.991389
H	-1.608642	-0.055088	-1.327562
N	-0.501393	1.115857	0.753354
H	-0.291946	1.977578	0.25605
H	-1.53025	0.981067	0.721171
C	-0.457256	-1.279112	0.677599
H	-0.111124	-1.275372	1.712457
H	-0.060111	-2.157167	0.161756
H	-1.554571	-1.272776	0.647059
C	-0.135963	1.185513	-2.191351
N	0.148778	2.160756	-2.781702
H	-3.108249	0.0	0.0
