15

C	0.0	0.0	0.0
C	-0.603819	0.127895	-1.388159
Cl	1.829857	0.0	0.0
H	-1.713754	0.09449	-1.161348
H	-0.366937	1.101465	-1.828732
N	-0.434582	1.13796	0.744143
H	-0.212086	1.033045	1.725006
H	-0.007177	1.985783	0.394112
C	-0.493539	-1.262308	0.666361
H	-0.169426	-2.14676	0.115523
H	-0.113504	-1.327927	1.690058
H	-1.593448	-1.175816	0.662944
C	-0.200652	-0.92554	-2.304349
N	0.125046	-1.769661	-3.054992
H	-3.287709	0.0	0.0
