15

C	0.0	0.0	0.0
C	-0.292609	-0.062602	-1.516862
Cl	1.803117	0.0	0.0
H	0.039898	0.898554	-1.923959
H	0.358738	-0.831256	-1.944227
N	-0.557819	1.204318	0.531491
H	-1.587281	1.026708	0.372165
H	-0.434816	1.191716	1.541276
C	-0.433485	-1.271535	0.714043
H	-0.00605	-2.166215	0.251991
H	-1.529644	-1.276522	0.657044
H	-0.120481	-1.230536	1.76186
C	-1.632614	-0.344771	-2.064537
N	-2.409376	-0.624679	-2.907702
H	-2.935382	0.0	0.0
