14

C	-0.414465	0.003343	-1.450438
C	0.0	0.0	0.0
F	-1.781017	0.033775	-1.62215
H	1.093911	0.0	0.0
H	0.036642	0.82371	-2.007185
N	0.064437	-1.261806	-2.112197
O	-0.667289	-2.24728	-2.035344
O	1.161575	-1.215051	-2.656427
N	-0.440146	-1.156376	0.764929
H	0.311583	-1.831916	0.744891
H	-1.276975	-1.572418	0.378475
C	-0.493933	1.240414	0.592737
N	-0.89166	2.241406	1.063986
F	2.521916	0.0	0.0
