14

C	-0.50335	0.040651	-1.417141
C	0.0	0.0	0.0
F	-1.855367	0.270127	-1.510004
H	1.096666	0.0	0.0
H	0.023945	0.785178	-2.015197
N	-0.236317	-1.29112	-2.07151
O	-1.176582	-2.061723	-2.216288
O	0.924694	-1.486616	-2.404874
N	-0.398237	-1.229829	0.67515
H	0.358373	-1.481642	1.296799
H	-1.255228	-1.130373	1.202738
C	-0.44372	1.212984	0.682188
N	-0.805091	2.161593	1.277343
F	2.520239	0.0	0.0
