14

C	-0.539994	-0.102767	-1.411732
C	0.0	0.0	0.0
F	0.118138	-1.072385	-2.094037
H	1.094243	0.0	0.0
H	-1.611672	-0.311795	-1.450701
N	-0.363296	1.194507	-2.165784
O	0.651096	1.35512	-2.830519
O	-1.281811	2.003749	-2.031417
N	-0.356148	-1.258586	0.684593
H	0.519813	-1.612489	1.048451
H	-0.979105	-1.091531	1.463879
C	-0.513591	1.163728	0.698884
N	-0.952436	2.066123	1.313499
F	2.522432	0.0	0.0
