14

C	-0.38704	0.035843	-1.448112
C	0.0	0.0	0.0
F	-0.307525	1.292394	-1.97718
H	1.101787	0.0	0.0
H	0.225244	-0.655418	-2.023933
N	-1.819937	-0.413189	-1.658407
O	-2.009533	-1.418814	-2.340929
O	-2.696447	0.257701	-1.119803
N	-0.359312	-1.315332	0.530265
H	0.421302	-1.625504	1.098907
H	-1.196355	-1.281949	1.10109
C	-0.518888	1.119648	0.771558
N	-0.924008	1.979905	1.466321
F	2.52979	0.0	0.0
