14

C	-0.460956	-0.113377	-1.441653
C	0.0	0.0	0.0
F	0.099262	-1.211145	-2.020203
H	1.096582	0.0	0.0
H	-1.547977	-0.182106	-1.561099
N	-0.066967	1.09401	-2.255297
O	0.96978	1.052648	-2.901174
O	-0.853729	2.039292	-2.190489
N	-0.340995	-1.207557	0.752687
H	-1.175032	-1.66492	0.401257
H	0.449333	-1.831754	0.6463
C	-0.570335	1.175386	0.640728
N	-1.024793	2.111645	1.188501
F	2.517824	0.0	0.0
