14

C	-0.521401	0.03581	-1.409835
C	0.0	0.0	0.0
F	-1.884761	0.205833	-1.477526
H	1.096361	0.0	0.0
H	-0.038404	0.811318	-2.006267
N	-0.209862	-1.273147	-2.089561
O	-1.115089	-2.088972	-2.211664
O	0.946984	-1.40302	-2.471327
N	-0.387765	-1.231016	0.67687
H	0.361168	-1.467	1.316902
H	-1.260367	-1.147357	1.183341
C	-0.448004	1.214314	0.680196
N	-0.825379	2.169567	1.254223
F	2.51975	0.0	0.0
