14

C	-0.5484	-0.096184	-1.407242
C	0.0	0.0	0.0
F	0.104655	-1.062575	-2.097702
H	1.094242	0.0	0.0
H	-1.620019	-0.305296	-1.436553
N	-0.37975	1.202069	-2.159446
O	-1.290522	2.017009	-2.008351
O	0.620946	1.354558	-2.845167
N	-0.353204	-1.265232	0.675371
H	-0.961418	-1.099464	1.465064
H	0.52688	-1.632086	1.023114
C	-0.515159	1.156169	0.711248
N	-0.950509	2.051991	1.338653
F	2.521488	0.0	0.0
