14
Coordinates from ORCA-job run
  C   -0.83309347100394     -0.32975039294224     -0.43737508044923
  C   0.44632111825996     -0.17801469049938      0.38576620527218
  F   -0.80834426055697      0.66140376200333     -1.43847504824261
  H   0.45641268628791     -1.00941671133570      1.09842189455399
  H   -0.81033167040383     -1.28559619906455     -0.96782122817051
  N   -1.98738614886942     -0.26578746010691      0.37195575779270
  H   -2.06530410553000      0.63409604600330      0.83108787553131
  H   -2.82388126489169     -0.43464458345121     -0.17046929997903
  C   0.38104574791429      1.06524347490422      1.15896404249038
  N   0.30769213732079      2.06549257730550      1.76897114841825
  C   1.70206118423612     -0.21824385037280     -0.48736190627785
  H   1.69847984724699      0.60809875774213     -1.19714419369040
  H   1.73382708197925     -1.15783535692443     -1.04461829856712
  H   2.60050111801053     -0.15304537326126      0.12809813131792
