14
Coordinates from ORCA-job run
  C   -0.83758834164181     -0.32599397672055     -0.43141154343908
  C   0.45305971219751     -0.18410543870913      0.37602125371591
  F   -0.83055172757023      0.68269276463411     -1.41465563939414
  H   0.47652993457334     -1.02807628118964      1.07343930826529
  H   -0.81911241637215     -1.27265200734075     -0.97855142977305
  N   -1.98053290046881     -0.28126313713075      0.39518551372015
  H   -2.82422053410008     -0.44490202536644     -0.13756400205464
  H   -2.05612919939286      0.61073100569689      0.86977938758419
  C   0.39342529885698      1.04413816167035      1.17316243801144
  N   0.32365117491882      2.03272909175136      1.80234213216326
  C   1.69614758475935     -0.20066255637955     -0.51551798625977
  H   1.68090243878541      0.64356336794187     -1.20346120835154
  H   2.60353545410638     -0.14922450086089      0.08777014058714
  H   1.72088352134814     -1.12497446799688     -1.09753836477516
