14
Coordinates from ORCA-job run
  C   -1.02070799469291      0.00693634490530      0.14781964521662
  C   0.46172082452205     -0.29611387730291      0.36359466176198
  F   -1.74021610087247     -0.75759759565484      1.08092378172128
  H   0.60785038457612     -1.36249267461300      0.14892453916364
  H   -1.23686240610068      1.05292325198423      0.38075141188211
  N   -1.40251468524045     -0.26860244951256     -1.18687407950250
  H   -2.36065525269590      0.00889810805381     -1.35423123533905
  H   -1.31077200797265     -1.25760293480102     -1.38632973124600
  C   0.80748944039886     -0.08262601860657      1.77099708759212
  N   1.11381305973950      0.12474901651087      2.88470905724653
  C   1.35715469165333      0.54874176547103     -0.54587370166246
  H   2.40882827626556      0.32242426873140     -0.36424083398027
  H   1.19849512044461      1.61200358675010     -0.35220911592473
  H   1.11737664997503      0.34835920808418     -1.58896148692928
