14
Coordinates from ORCA-job run
  C   -0.86061015259347     -0.70602931288756     -0.07969381409072
  C   0.54512102673524     -0.35551153174005      0.42429111013776
  F   -0.71327596833185     -1.60315802799839     -1.12720392654130
  H   0.99996028718183     -1.29757327569422      0.74919896919476
  H   -1.40666034969933     -1.25923460238715      0.69695330881125
  N   -1.53162490423809      0.45157556382477     -0.58487155454494
  H   -1.52280252634610      1.20193994343911      0.09486851586900
  H   -2.49321298061328      0.23154602022721     -0.81076696835923
  C   0.42330139740607      0.51377448843815      1.59558501578644
  N   0.28763076706812      1.23672892459630      2.51112876596248
  C   1.41038510647872      0.28460705346572     -0.66429971192098
  H   1.45634088224578     -0.38549911691820     -1.52250321174342
  H   0.98461571478583      1.23226183925803     -0.98985391902639
  H   2.42183169992053      0.45457203437628     -0.29183257953473
