14
Coordinates from ORCA-job run
  C   -0.44272390704558      0.23552315916425     -0.01982660155835
  C   0.88586443662663      0.28554031086401     -0.19749438246206
  H   1.25707921297481      1.22287541689758     -0.60756849693960
  C   -1.42571718874881      1.30640125204109     -0.36640083979514
  H   -0.89705173369320      2.20733682960062     -0.67926865715036
  H   -2.05362147560125      1.54775796475147      0.49493734708476
  H   -2.08634851197182      0.97975509541259     -1.17040330518620
  N   -1.06306580784578     -0.98729903134560      0.51157054494548
  O   -2.16795961003424     -1.28565565335443      0.05602506185361
  O   -0.45699858660213     -1.62655238733159      1.37161665747357
  C   1.90866579769504     -0.77110622080589      0.08885266963781
  H   1.51633429597974     -1.77888153084841     -0.04175887260912
  H   2.25299231219267     -0.69768410804940      1.12409171469868
  H   2.77255076607393     -0.63801109699628     -0.56437283999308
