16

C	-0.360988	-0.003412	-1.445687
C	-0.035913	-0.228941	0.030818
Br	0.011096	-1.672636	-2.445455
H	0.96674	-0.665728	0.089049
H	-1.443464	0.121109	-1.552611
C	0.409446	1.148597	-2.065417
H	-0.051075	2.074068	-1.710256
H	0.357816	1.118444	-3.156203
H	1.43742	1.157068	-1.685606
N	-1.001469	-1.169935	0.598424
H	-1.836824	-0.626782	0.802668
H	-0.64084	-1.492813	1.490029
N	-0.071665	1.082215	0.676509
H	-0.069953	0.892991	1.676681
H	0.904347	1.444895	0.472004
F	2.421133	1.382042	0.0099
