16

C	0.067431	-0.069717	-1.328305
C	0.156821	-0.236579	0.18684
Br	-1.806367	0.374808	-1.858454
H	1.222527	-0.485838	0.329891
H	0.664131	0.83413	-1.525228
C	0.509941	-1.282908	-2.115703
H	0.454914	-1.103207	-3.192077
H	-0.083759	-2.16213	-1.860302
H	1.555453	-1.481023	-1.856103
N	-0.648343	-1.364003	0.655905
H	-1.615885	-1.155526	0.423424
H	-0.592785	-1.328508	1.669334
N	-0.041437	0.99512	0.930253
H	0.697577	1.606161	0.509311
H	-0.939796	1.380454	0.646747
F	1.863619	1.917274	-0.646887
