16

C	-0.750622	0.020688	-1.558562
C	0.14757	0.029878	-0.319709
Br	-0.248609	1.464058	-2.809058
H	1.190091	0.169086	-0.635842
H	-0.550015	-0.888357	-2.132076
C	-2.224707	0.132088	-1.232374
H	-2.438598	1.113778	-0.807546
H	-2.453176	-0.640406	-0.494349
H	-2.845336	-0.008657	-2.120526
N	-0.045327	-1.259624	0.360804
H	0.441978	-1.977413	-0.172849
H	0.523206	-1.0977	1.226821
N	-0.151167	1.123175	0.580393
H	0.546824	0.951043	1.332881
H	-1.038146	0.88459	1.019747
F	1.522496	-0.176711	2.192834
