16

C	-0.214931	-0.076111	-1.476903
C	0.023819	-0.270309	0.027567
Br	0.25575	-1.778924	-2.408846
H	1.05644	-0.611761	0.160464
H	-1.293247	0.007588	-1.648179
C	0.55727	1.077746	-2.086972
H	1.541903	1.165566	-1.61139
H	0.603635	0.99987	-3.175881
H	0.021761	1.991979	-1.817726
N	-0.878342	-1.239585	0.647324
H	-0.802401	-2.12432	0.157637
H	-1.823341	-0.891564	0.50752
N	-0.194994	1.029377	0.636636
H	0.749398	1.487061	0.506038
H	-0.275064	0.839135	1.632363
F	2.301861	1.587364	0.114655
