16

C	0.02003	-0.099014	-1.392659
C	0.102963	-0.186588	0.129352
Br	-1.862801	0.257228	-1.956522
H	1.170397	-0.393237	0.291537
H	0.589629	0.812099	-1.631403
C	0.507286	-1.335146	-2.11515
H	1.555648	-1.487785	-1.836985
H	-0.061733	-2.218917	-1.822144
H	0.457871	-1.209977	-3.199493
N	-0.669629	-1.314744	0.649435
H	-0.62181	-1.228109	1.66019
H	-1.641822	-1.14892	0.402581
N	-0.141122	1.074028	0.808113
H	-1.048382	1.416042	0.498738
H	0.582237	1.68581	0.362246
F	1.751686	1.969579	-0.800345
