16

C	-0.210036	-0.063675	-1.456753
C	0.068839	-0.23309	0.043752
Br	0.194776	-1.794758	-2.367066
H	1.102915	-0.595985	0.153705
H	-1.290847	0.041094	-1.598259
C	0.568772	1.060088	-2.112801
H	1.568999	1.134825	-1.668759
H	0.580501	0.959954	-3.200789
H	0.06203	1.991399	-1.846318
N	-0.834816	-1.169356	0.709832
H	-1.775575	-0.802105	0.592623
H	-0.794244	-2.064662	0.235522
N	-0.10235	1.083019	0.632133
H	0.848034	1.515538	0.463645
H	-0.155392	0.914534	1.633611
F	2.388313	1.571786	0.027168
