16

C	0.0	0.0	0.0
C	-0.469619	-0.487426	-1.396857
Br	1.94195	0.0	0.0
H	0.373327	-0.926495	-1.938749
H	-0.272561	-0.81554	0.6685
C	-0.619616	1.286317	0.496669
H	-1.707437	1.12233	0.408236
H	-0.352775	1.44525	1.544613
H	-0.289957	2.144925	-0.087946
N	-0.737575	0.765325	-2.303145
O	0.177573	1.583787	-2.410994
O	-1.795779	0.815573	-2.922031
N	-1.549092	-1.369513	-1.295612
H	-1.859047	-1.633263	-2.222986
H	-2.35136	-0.875651	-0.75924
F	-3.206064	0.0	0.0
