16

C	0.0	0.0	0.0
C	-0.642965	-0.095881	-1.374349
Br	1.949239	0.0	0.0
H	-1.716551	-0.276709	-1.064887
H	-0.268192	-0.909746	0.533911
C	-0.517506	1.207204	0.755628
H	-0.190048	2.138134	0.285203
H	-1.612319	1.090238	0.714027
H	-0.155548	1.196174	1.786394
N	-0.110417	-1.318628	-2.064079
O	0.451732	-1.205683	-3.151113
O	-0.26347	-2.387169	-1.468913
N	-0.56654	1.039771	-2.232824
H	-1.299509	1.678568	-1.954784
H	0.335322	1.499642	-2.178792
F	-2.932536	0.0	0.0
