16

C	0.0	0.0	0.0
C	-0.642797	-0.089174	-1.374143
Br	1.954345	0.0	0.0
H	-1.713989	-0.282015	-1.06509
H	-0.264847	-0.913741	0.529167
C	-0.514497	1.202936	0.764031
H	-1.609403	1.089024	0.724335
H	-0.186502	2.13629	0.29878
H	-0.149763	1.184463	1.79375
N	-0.093608	-1.299012	-2.07238
O	-0.262107	-2.377415	-1.499691
O	0.503834	-1.166364	-3.138365
N	-0.579541	1.055235	-2.222558
H	-1.323663	1.678173	-1.939697
H	0.313951	1.52857	-2.161913
F	-2.929709	0.0	0.0
