16

C	0.0	0.0	0.0
C	-0.365497	-0.03364	-1.514393
Br	1.953808	0.0	0.0
H	0.31433	-0.740945	-1.99272
H	-0.282004	-0.989554	0.366799
C	-0.642826	1.055498	0.862664
H	-0.376029	0.891997	1.910397
H	-1.726876	0.907935	0.72744
H	-0.349687	2.060912	0.566407
N	0.049978	1.289878	-2.160736
O	-0.548709	2.305323	-1.81549
O	0.917795	1.252884	-3.036138
N	-1.705821	-0.288931	-1.87684
H	-2.43809	-0.072712	-1.103455
H	-1.792213	-1.266374	-2.121073
F	-3.321691	0.0	0.0
