14
Coordinates from ORCA-job run
  C   0.56303606719346      0.64218188554438     -0.44000194825252
  C   -0.51960595508869     -0.05352024396056      0.38039170681256
  F   0.49400836106471      0.22905479380690     -1.72704962847859
  H   -0.46715408595387      0.30332725722329      1.40851697994310
  H   0.52301336289998      1.72959174675623     -0.38555727454280
  N   1.88405381038169      0.21442339235002      0.14463906866914
  O   2.10042755882243      0.65732198332559      1.26846757628475
  O   2.58896118224301     -0.54408806176402     -0.50429953676719
  N   -0.52109380955237     -1.46255143086993      0.32234533664776
  H   -0.28545490129675     -1.83447549618423     -0.58581141965731
  H   0.01528329440798     -1.89357893672997      1.05832310361795
  N   -1.82484410339490      0.51809190127669     -0.17499034956270
  O   -2.00136925379943      1.71113907596133      0.06107574595789
  O   -2.55026152792724     -0.21691786673574     -0.82604936067204
