14
Coordinates from ORCA-job run
  C   0.93288319714885     -0.02724075463179      0.24089045558997
  C   -0.59279954493938      0.01144460026000      0.32810323889333
  F   1.42788505111597      0.14050255934106      1.49346165726567
  H   -0.89892026936152      1.00590842929278      0.65462285191957
  H   1.31488668255100     -0.94743161349977     -0.20134413780412
  N   1.40512156662239      1.11090790622456     -0.62024652623688
  O   1.68619904013135      0.82102964667716     -1.78014386145332
  O   1.41566368464667      2.22126238887756     -0.10351207842119
  N   -1.17658278473081     -0.99238222847792      1.15596254938441
  H   -1.03905600808937     -0.77619045252055      2.13328854378447
  H   -0.81207905558384     -1.91233620128885      0.94558665287693
  N   -1.10572355033363     -0.16811177598654     -1.07273955664064
  O   -1.55323521961522      0.81792757877586     -1.64824560153186
  O   -1.00424278956245     -1.30529008304354     -1.52568418762633
