14
Coordinates from ORCA-job run
  C   0.92671933215078     -0.05273202830165      0.25694305179500
  C   -0.59915359547322      0.01502365014469      0.31711342746257
  F   1.40123457025568      0.07241212951146      1.52258850410294
  H   -0.89085856511623      1.00707044478110      0.66346893222892
  H   1.29926250472810     -0.96865469050179     -0.20199534717241
  N   1.43860568065677      1.09796425315948     -0.56410165170699
  O   1.44588146443515      2.19623186185193     -0.02196600114054
  O   1.75402722420859      0.83071765340554     -1.72055131785630
  N   -1.21916755998330     -0.99691259750152      1.10767349343386
  H   -1.09463645409589     -0.80959293666854      2.09262881701310
  H   -0.87152582634583     -1.91903488229618      0.87919456489392
  N   -1.08801346020324     -0.11866393536468     -1.09730716197649
  O   -1.49880703538826      0.89162546101276     -1.65794534596443
  O   -1.00356827982911     -1.24645438323259     -1.57674396511315
