14
Coordinates from ORCA-job run
  C   0.61340675123557      0.62570065774805     -0.48128412812931
  C   -0.43921274497898     -0.05197970325781      0.37344275252026
  F   0.65770395694423      0.03840536447157     -1.70163938831327
  H   -0.46854153806196      0.42647280190959      1.35290153479983
  H   0.45482512809438      1.69775350092748     -0.58403209304809
  N   1.94005699405217      0.43692787901930      0.21179243070956
  O   2.78820822509892     -0.24719462730436     -0.33544839186935
  O   2.02008847114123      1.01381415781920      1.29053036195333
  N   -0.18761900061867     -1.43128317497340      0.46960940572271
  H   -0.20939936479038     -1.88360165508548     -0.43419488204651
  H   -0.82476344868434     -1.89761055491896      1.09850015031681
  N   -1.79359812740061      0.32721922531245     -0.27243881506150
  O   -2.52145405105732     -0.58640554987879     -0.63920646217154
  O   -2.02970125097425      1.52878167821116     -0.34753247538293
