14
Coordinates from ORCA-job run
  C   1.01094457277101      0.02486709841248      0.28808270663067
  C   -0.49928777413133      0.03967969390091      0.43833502722781
  F   1.57130933936650      0.44629055047805      1.45114094653853
  H   -0.81990323393313      1.01881350424385      0.78876325597741
  H   1.41794317361934     -0.94376289679227      0.00479132950114
  N   1.44117999705208      0.99928787046297     -0.77483527912888
  O   2.40883665468626      0.67895946763016     -1.45706885703717
  O   0.81723686324497      2.05747682848709     -0.82820589414957
  N   -0.90787293655530     -0.98472223465639      1.33203047182412
  H   -0.75126415651003     -1.90958033964606      0.95191266788100
  H   -1.87352877559320     -0.88045688167394      1.61110204219463
  N   -1.11144086738222     -0.11547179880100     -0.94344562313251
  O   -2.17148741894284      0.46178676825407     -1.15627205922611
  O   -0.53366543769213     -0.89216763029992     -1.70733073510108
