16

C	-0.527106	0.04836	-1.447152
C	0.0	0.0	0.0
Cl	0.242714	1.47644	-2.217266
H	1.089787	0.0	0.0
C	-0.115612	-1.119342	-2.24329
N	0.115849	-2.062722	-2.905116
N	-1.959145	0.280456	-1.469419
H	-2.258381	0.443239	-2.424114
H	-2.403397	-0.562697	-1.12029
N	-0.448258	-1.295166	0.655481
O	-1.331465	-1.970077	0.106949
O	0.071686	-1.568713	1.72492
N	-0.481829	1.075412	0.802959
H	0.271714	1.723291	0.982761
H	-1.267842	1.532415	0.35866
Cl	3.262131	0.0	0.0
