16

C	-0.538977	0.052746	-1.443833
C	0.0	0.0	0.0
Cl	0.256412	1.453207	-2.231998
H	1.089554	0.0	0.0
C	-0.161615	-1.135784	-2.225879
N	0.082698	-2.101982	-2.85039
N	-1.965932	0.32047	-1.454759
H	-2.272114	0.473886	-2.408637
H	-2.427348	-0.504774	-1.084285
N	-0.453616	-1.289683	0.65874
O	0.132617	-1.614225	1.678006
O	-1.407484	-1.909883	0.166412
N	-0.470308	1.080164	0.805998
H	-1.25311	1.545705	0.362948
H	0.292712	1.71918	0.981569
Cl	3.259304	0.0	0.0
