16

C	-0.577772	-0.033737	-1.436643
C	0.0	0.0	0.0
Cl	0.24369	-1.233215	-2.481847
H	1.093504	0.0	0.0
C	-2.00737	-0.425191	-1.390143
N	-3.162311	-0.649235	-1.359124
N	-0.378404	1.265635	-2.00522
H	-0.661536	1.956329	-1.319079
H	-0.883872	1.361379	-2.875947
N	-0.433986	-1.265654	0.724955
O	-1.211581	-1.146831	1.67518
O	0.008988	-2.328678	0.310731
N	-0.467987	1.173179	0.677252
H	0.283195	1.517582	1.263182
H	-1.264773	0.943831	1.261023
Cl	3.247559	0.0	0.0
