16

C	-0.592435	-0.037103	-1.418124
C	0.0	0.0	0.0
Cl	-0.238552	1.530267	-2.20319
H	1.090026	0.0	0.0
C	0.018601	-1.057275	-2.290747
N	0.375855	-1.881729	-3.04807
N	-2.04216	-0.170773	-1.334189
H	-2.445497	0.064614	-2.233779
H	-2.243735	-1.148035	-1.144498
N	-0.373367	-1.320652	0.698682
O	-0.292895	-1.323729	1.922501
O	-0.699132	-2.297835	0.015828
N	-0.466216	1.117652	0.72525
H	-1.445589	1.040532	0.961073
H	0.104053	1.261431	1.544927
Cl	3.245241	0.0	0.0
