16

C	-0.47855	-0.000483	-1.466303
C	0.0	0.0	0.0
Cl	-2.414791	-0.24945	-1.358635
H	1.09293	0.0	0.0
C	-0.398701	1.356521	-2.01282
N	-0.330343	2.432662	-2.480629
N	0.150352	-0.900418	-2.295526
H	0.297858	-1.807088	-1.874163
H	-0.167696	-0.908217	-3.252247
N	-0.425661	-1.324052	0.627975
O	-0.08796	-2.346572	0.026745
O	-1.047787	-1.309051	1.678665
N	-0.445952	1.083185	0.780082
H	0.248002	1.813213	0.818288
H	-1.367869	1.42425	0.555542
Cl	3.231505	0.0	0.0
