16

C	-0.60391	-0.018901	-1.420556
C	0.0	0.0	0.0
Cl	0.228812	1.344819	-2.325065
H	1.088281	0.0	0.0
C	-0.340689	-1.22002	-2.218892
N	-0.20817	-2.116869	-2.966164
N	-2.010423	0.170937	-1.309923
H	-2.154211	1.029411	-0.78593
H	-2.438161	0.250461	-2.224451
N	-0.44521	-1.274306	0.69102
O	-1.185884	-1.185826	1.670422
O	-0.025885	-2.323869	0.220304
N	-0.485082	1.158467	0.697548
H	-1.109853	0.859541	1.436805
H	0.310976	1.627247	1.109477
Cl	3.230884	0.0	0.0
