16

C	-0.446345	0.00831	-1.479195
C	0.0	0.0	0.0
Cl	-0.087847	-1.560862	-2.255407
H	1.090757	0.0	0.0
C	-1.896797	0.239206	-1.576904
N	-3.050511	0.449753	-1.641529
N	0.256706	1.043916	-2.203256
H	0.094382	1.903	-1.68248
H	1.252705	0.836317	-2.111155
N	-0.514502	-1.227376	0.718063
O	0.219936	-2.204805	0.80568
O	-1.667555	-1.159501	1.160839
N	-0.465139	1.209067	0.605413
H	-1.407358	1.09379	0.959107
H	0.16111	1.471761	1.355341
Cl	3.290222	0.0	0.0
