14

C	0.0	0.0	0.0
C	-0.556024	-0.290663	-1.397417
Cl	1.77475	0.0	0.0
H	0.188916	0.038008	-2.124136
H	-1.462227	0.3044	-1.497699
N	-0.354155	1.436277	0.4171
O	-0.488085	1.660417	1.609728
O	-0.370912	2.256466	-0.490499
C	-0.442307	-0.921616	1.038874
N	-0.650658	-1.688337	1.904418
N	-0.792128	-1.722769	-1.513682
H	-1.710399	-1.878197	-1.099737
H	-0.869762	-1.955273	-2.495948
Cl	-3.360793	0.0	0.0
