14

C	0.0	0.0	0.0
C	-0.563511	0.171388	-1.411594
Cl	1.763218	0.0	0.0
H	0.131211	0.801495	-1.969625
H	-1.523092	0.676732	-1.299716
N	-0.369352	1.22323	0.853163
O	-0.381998	2.291877	0.257145
O	-0.524087	1.050531	2.05244
C	-0.446827	-1.209724	0.681618
N	-0.655372	-2.235117	1.215616
N	-0.678192	-1.145643	-2.02453
H	-0.72815	-1.029112	-3.0289
H	-1.57827	-1.513699	-1.72503
Cl	-3.416737	0.0	0.0
