14

C	0.0	0.0	0.0
C	-0.492161	0.195017	-1.459671
Cl	1.773379	0.0	0.0
H	-0.264608	1.235245	-1.706401
H	0.168281	-0.437865	-2.060346
N	-0.448423	1.139158	0.919306
O	-0.69409	0.847405	2.081529
O	-0.462612	2.256348	0.421663
C	-0.447798	-1.27041	0.556102
N	-0.746549	-2.352233	0.903963
N	-1.848448	-0.12071	-1.755818
H	-2.559721	0.351159	-1.195225
H	-2.04155	-1.107423	-1.643018
Cl	-4.470358	0.0	0.0
