14

C	0.0	0.0	0.0
C	-0.496304	0.285945	-1.439816
Cl	1.773183	0.0	0.0
H	-0.166548	-0.576501	-2.029214
H	0.076684	1.153807	-1.775229
N	-0.420537	1.13078	0.94364
O	-0.673433	0.829359	2.101507
O	-0.40831	2.255113	0.460307
C	-0.470556	-1.27076	0.531928
N	-0.775174	-2.35192	0.877669
N	-1.885657	0.523754	-1.628875
H	-2.201367	1.370485	-1.177003
H	-2.521041	-0.199411	-1.29974
Cl	-4.553025	0.0	0.0
