14

C	0.0	0.0	0.0
C	-0.475951	-0.034977	-1.485648
Cl	1.773363	0.0	0.0
H	-0.244646	-1.050591	-1.825081
H	0.193222	0.6492	-2.012692
N	-0.412953	1.321968	0.650481
O	-0.776123	1.289198	1.816609
O	-0.298912	2.312597	-0.058987
C	-0.486158	-1.111592	0.798977
N	-0.806145	-2.084577	1.374942
N	-1.826772	0.303718	-1.781077
H	-2.548392	-0.179074	-1.240099
H	-1.996079	1.290278	-1.637356
Cl	-4.428469	0.0	0.0
