14

C	0.0	0.0	0.0
C	-0.551852	0.199521	-1.414468
Cl	1.769628	0.0	0.0
H	0.178561	0.787908	-1.973145
H	-1.479291	0.760059	-1.308252
N	-0.356895	1.207496	0.878576
O	-0.465644	1.013731	2.079335
O	-0.398579	2.285636	0.302613
C	-0.446121	-1.220345	0.661222
N	-0.63112	-2.258643	1.179279
N	-0.737473	-1.108818	-2.028021
H	-1.648376	-1.433624	-1.708368
H	-0.803071	-0.986514	-3.030918
Cl	-3.355457	0.0	0.0
