14

C	0.0	0.0	0.0
C	-0.551497	0.019008	-1.426867
Cl	1.774625	0.0	0.0
H	0.14042	0.604753	-2.035107
H	-1.519012	0.517531	-1.368145
N	-0.373975	1.297949	0.721365
O	-0.402789	2.298268	0.017749
O	-0.517323	1.247859	1.93277
C	-0.427826	-1.14123	0.80345
N	-0.632018	-2.117829	1.422413
N	-0.633049	-1.354268	-1.905843
H	-0.665955	-1.344005	-2.915353
H	-1.52688	-1.713642	-1.580189
Cl	-3.379688	0.0	0.0
