14

C	0.0	0.0	0.0
C	-0.524647	-0.023579	-1.448775
Cl	1.761036	0.0	0.0
H	0.070082	0.698564	-2.011422
H	-1.563298	0.305427	-1.392756
N	-0.405109	1.299196	0.69219
O	-0.321272	2.304688	-0.001272
O	-0.710901	1.23831	1.873055
C	-0.443593	-1.143769	0.79485
N	-0.595059	-2.147829	1.387037
N	-0.48434	-1.328262	-2.068059
H	0.405506	-1.788885	-1.918838
H	-1.221502	-1.897838	-1.667912
Cl	-3.426036	0.0	0.0
