16

C	-0.318628	-0.201642	-1.478713
C	0.0	0.0	0.0
F	-1.693079	-0.38223	-1.666114
H	1.10315	0.0	0.0
C	0.016569	1.070533	-2.172825
N	0.22935	2.068275	-2.754148
N	0.383062	-1.260805	-2.145482
H	0.154588	-2.10387	-1.629304
H	1.375583	-1.081107	-1.975454
N	-0.406229	-1.161946	0.832948
O	-0.396442	-1.009629	2.051087
O	-0.623317	-2.252395	0.281584
N	-0.455297	1.219079	0.578767
H	-1.171083	1.677463	0.035931
H	0.332248	1.835866	0.722754
H	2.586097	0.0	0.0
