16

C	-0.476058	-0.097974	-1.449871
C	0.0	0.0	0.0
F	0.208635	-1.122092	-2.10898
H	1.101896	0.0	0.0
C	-1.915746	-0.460129	-1.542254
N	-3.053964	-0.748234	-1.573937
N	-0.252422	1.149341	-2.096183
H	-0.248285	0.990079	-3.097523
H	0.657793	1.492415	-1.805209
N	-0.425571	-1.201375	0.767571
O	-0.466751	-2.289184	0.186217
O	-0.637461	-1.053693	1.978133
N	-0.356104	1.221007	0.63603
H	-1.258808	1.158479	1.089185
H	0.348041	1.407394	1.341822
H	2.579936	0.0	0.0
