16

C	-0.378568	-0.17819	-1.473524
C	0.0	0.0	0.0
F	-1.648667	-0.793583	-1.589642
H	1.092283	0.0	0.0
C	-0.574592	1.15451	-2.103473
N	-0.70247	2.139716	-2.731303
N	0.601051	-0.951168	-2.136462
H	0.700361	-0.694527	-3.108078
H	1.499317	-0.882693	-1.646963
N	-0.395396	-1.240785	0.744011
O	-1.110362	-1.11459	1.745776
O	0.063551	-2.307172	0.345402
N	-0.492891	1.195101	0.587779
H	0.16458	1.488411	1.301592
H	-1.393097	1.034034	1.022528
H	2.651781	0.0	0.0
