11

C	-0.432273	0.029459	-1.462562
C	0.0	0.0	0.0
Br	-2.389687	0.143237	-1.672104
H	1.095069	0.0	0.0
H	-0.037772	0.921217	-1.952717
H	-0.349294	-0.914843	0.48477
C	0.013767	-1.157738	-2.182842
N	0.341627	-2.113527	-2.782091
C	-0.494861	1.161673	0.725989
N	-0.898164	2.098306	1.30762
Cl	3.272271	0.0	0.0
