12
Coordinates from ORCA-job run
  C   -0.40151646285432      0.08579239510947      0.30007152615523
  C   0.77350649417837     -0.58344980387244     -0.41534225278226
  Br  -0.72307311962025     -0.73553911248352      2.02457523229053
  H   0.84786984191146     -0.16410155907511     -1.42457657980341
  H   0.56839661183967     -1.65122201130192     -0.50719310851172
  N   -1.67866120732528     -0.13710939439484     -0.53772978650954
  O   -1.71401865112551     -1.16912380271002     -1.19220074543769
  O   -2.54504103019318      0.71771838206426     -0.44455052584930
  C   -0.20188891110858      1.51627390800373      0.46016618881533
  N   0.01568180836171      2.66766448350010      0.56280199326661
  C   2.02284387122198     -0.36074424882143      0.30320030991282
  N   3.03490075471394     -0.18515923601828      0.87077774845340
