12
Coordinates from ORCA-job run
  C   -0.46477573187863      0.04866641414966      0.47083391872483
  C   0.84100359652631     -0.72612767230527      0.30220381033195
  Br  -1.52140846192769     -0.76017286745500      1.88211170808782
  H   1.39839275280685     -0.67334094366825      1.24095380715150
  H   0.60592599089001     -1.77048213525432      0.09114292246690
  N   -1.30146512415434     -0.06260247614402     -0.82103981414520
  O   -2.03702948884686      0.87846794125440     -1.07448057753725
  O   -1.17685833539148     -1.10639384229326     -1.44352939446721
  C   -0.24346499701853      1.45400022305335      0.76601820368645
  N   -0.00794930193109      2.57618500860257      1.02742652831887
  C   1.63628522495549     -0.16066988861728     -0.78549060922844
  N   2.26934387596996      0.30347023867742     -1.65815050339023
