12
Coordinates from ORCA-job run
  C   -0.38263493491597      0.09128012087505      0.49284986274463
  C   1.06781343958175      0.14483151112192     -0.00776438934149
  Br  -0.60455197341825     -1.21574237284952      1.88227386429036
  H   1.13806441618162      0.93315842109436     -0.76271467502134
  H   1.71893683480481      0.40626961069133      0.83009352191149
  N   -1.26134436028174     -0.25100031598983     -0.74604450557509
  O   -1.83599522426553     -1.32146793380069     -0.78679084168352
  O   -1.23707289696412      0.62838291429443     -1.59721722675726
  C   -0.80142957994066      1.39971551432862      0.97194009012048
  N   -1.10229160721907      2.46438391290632      1.37039458377815
  C   1.48281262537485     -1.13007176150481     -0.58466880639969
  N   1.81869326106232     -2.14773962116719     -1.06335147806673
