12
Coordinates from ORCA-job run
  C   -0.41900939990596      0.08439552921727      0.46392694307247
  C   1.06935052608530      0.10409243562736      0.08590037633494
  Br  -0.79957244332040     -1.27140346942169      1.76982533758621
  H   1.22884065357146      0.92146974506695     -0.62308894863917
  H   1.65700028960502      0.30318564964201      0.98545752190844
  N   -1.20286501671857     -0.17076503735708     -0.85624639882436
  O   -1.07697001106090      0.74239396066722     -1.66171788016186
  O   -1.80900954808491     -1.21571724797314     -0.99229402929325
  C   -0.83061129124040      1.38640846041623      0.96661521135544
  N   -1.12564859255542      2.44411518105009      1.38728321496980
  C   1.48535704675601     -1.15933794592991     -0.51464730080635
  N   1.82313778686875     -2.16783726100530     -1.01101404750230
