12
Coordinates from ORCA-job run
  C   -0.39632734925458      0.03750542728487      0.44535925814670
  C   1.08526441910765      0.14655601617688      0.07556400756648
  Br  -0.70601295741014     -1.42143040346206      1.66591789312425
  H   1.65113894695105      0.32636832777688      0.99330010730903
  H   1.22057161930271      1.00143403753826     -0.59015598687557
  N   -1.24067557375627     -0.17019125893551     -0.84860989712541
  O   -2.32967035755115     -0.69909409566643     -0.72735482395257
  O   -0.73685555234847      0.29077250676176     -1.86356820130350
  C   -0.86958550937893      1.28269361981032      1.03388137499300
  N   -1.21773479935895      2.30845306637807      1.49239803304643
  C   1.57020564119972     -1.06539180393300     -0.57684604933427
  N   1.96868147249736     -2.03667543973005     -1.10088571559455
