12
Coordinates from ORCA-job run
  C   -0.45103737871452      0.04077180313321      0.48601088550521
  C   0.83520001255194     -0.75050782057969      0.25394202342620
  Br  -1.48392593909985     -0.79807025511069      1.89697218059839
  H   0.57516424429802     -1.78301220058620      0.01534890932939
  H   1.42065001590650     -0.73876394740488      1.17684839998095
  N   -1.32235803586809     -0.01161264426256     -0.78660048457513
  O   -1.25214593847764     -1.04693066137032     -1.43148295670385
  O   -2.02540259434639      0.96255341372012     -1.00514273484930
  C   -0.19493817074022      1.43043907477949      0.82413551819872
  N   0.07127892439452      2.53651663439881      1.12232094530452
  C   1.60777561917103     -0.16233712983882     -0.83803091314755
  N   2.21973924092470      0.32095373312154     -1.71532177306756
