14
Coordinates from ORCA-job run
  C   -0.74728942910934     -0.03420104962743      0.12463083121064
  C   0.27654930002326      0.48560980551412     -0.87874607197193
  Cl  -2.34240580548419      0.65382402963500     -0.23769219728995
  H   -0.03869403278427      0.10053776586119     -1.85164127085530
  H   0.25010962868757      1.57692942497918     -0.91184394431186
  N   -0.81367752939952     -1.43711888039549      0.24132819119022
  H   0.08490629275455     -1.83213492696054     -0.01025056103901
  H   -1.57701537715289     -1.84164589992050     -0.27672767306536
  N   -0.37132567822240      0.54937999114039      1.52663339857390
  O   0.30273866896337      1.57881682528948      1.52364513088938
  O   -0.79137103851082     -0.03289711773169      2.51076504695506
  N   1.56881207097371     -0.08862727691013     -0.52992592028355
  H   2.14884796736538     -0.19694071653664     -1.35007755887923
  H   2.04981496189557      0.51746802566307      0.12190259887698
