14
Coordinates from ORCA-job run
  C   -0.76937627990797     -0.02106687012116     -0.00931200034819
  C   0.31152943502400      0.52884853946802     -0.92409219752651
  Cl  -2.33587201731097      0.74247178522495     -0.37074534695188
  H   0.29515980451227      1.61944775930603     -0.88423995699774
  H   0.03830827903396      0.21120070375987     -1.93181969334248
  N   -0.85758289991472     -1.41524889163130     -0.09734266220142
  H   0.08312440010498     -1.78970312136710     -0.02589482985028
  H   -1.45466285579246     -1.79671264508586      0.62482547229384
  N   -0.44933008168849      0.45094862007410      1.44713865603428
  O   0.19612065162942      1.48557542162532      1.58449264524549
  O   -0.88064493912258     -0.25348343985646      2.35128395139794
  N   1.58137537089898     -0.07412610961880     -0.53550670588223
  H   2.17322147514877     -0.21773357075124     -1.34139150183792
  H   2.06862965738481      0.52958181897361      0.11360416996710
