14
Coordinates from ORCA-job run
  C   -0.79242654525703     -0.00167434847450      0.12392675408547
  C   0.26302556228857      0.46228963833304     -0.88162579709189
  Cl  -2.34595928366245      0.75500672612245     -0.26376455580743
  H   -0.03909150136434      0.07037765152042     -1.85583899363729
  H   0.26152982141551      1.55446398041606     -0.93068617159403
  N   -0.96622536953427     -1.39919873303526      0.27215599276874
  H   -1.47373744438875     -1.77098112878168     -0.51967648623966
  H   -0.05000172447946     -1.82947336111970      0.33856555842335
  N   -0.32015133349841      0.56443653133497      1.48324530428567
  O   -0.13895358990451      1.77772886869164      1.51700526014919
  O   -0.09482860037583     -0.22692191489324      2.38647785793700
  N   1.53523510550072     -0.12661625846202     -0.48377885171732
  H   2.05616586646200      0.51221441778129      0.10324845073095
  H   2.10541903679824     -0.34165206943346     -1.28925432229275
