14
Coordinates from ORCA-job run
  C   -0.56498641931905      0.00333771510439      0.09592019645340
  C   0.77175026309946      0.58028853952051     -0.34068141925304
  Cl  -1.92048808440340      0.70565971266640     -0.79642640973163
  H   1.52028242886596      0.19178362128062      0.37422336287074
  H   0.73525960081794      1.66219893407150     -0.22115845122868
  N   -0.58477597809121     -1.40120153549363     -0.03826158660146
  H   0.10072525750709     -1.81949913529506      0.58024559784970
  H   -1.49527726950069     -1.78192310187647      0.18546489964818
  N   -0.78625714445064      0.45768005174826      1.57721786654276
  O   -0.58025056579064      1.63596769749809      1.83635547074946
  O   -1.14151806340383     -0.40812542637123      2.37060951303385
  N   1.00672795648173      0.24854678673505     -1.72935471270472
  H   1.07562182143869     -0.75352988995667     -1.84365118886684
  H   1.86218619674860      0.67981603036824     -2.05150313876173
