14
Coordinates from ORCA-job run
  C   -0.67277766172416     -0.00730139762200      0.10703068570034
  C   0.60287341028409     -0.15077797647578     -0.71782382429201
  Cl  -1.64835855147973      1.31243922664886     -0.54458216811653
  H   0.29122810762216     -0.38385882757868     -1.74661406842888
  H   1.13391378426335     -1.01727982816676     -0.31691707650190
  N   -1.49695652192505     -1.17157260292969      0.23183022296308
  H   -0.93553728645519     -1.95529290103726      0.54243444882455
  H   -1.94336024004018     -1.38596888588438     -0.64980864063874
  N   -0.21723341383141      0.32898298303544      1.53243025808217
  O   -0.45448613263178      1.41567396209311      2.02485497543647
  O   0.38899410316964     -0.60100242104423      2.05884892409704
  N   1.44210004243994      1.02053023210769     -0.56262515503328
  H   2.39733113992656      0.81362943583580     -0.81833252426488
  H   1.11226922038175      1.78179900101788     -1.14072605782743
