14
Coordinates from ORCA-job run
  C   -0.66037632988282      0.06986102947331      0.07571209975168
  C   0.43803132778921      0.53556202533130     -0.85925779012531
  Cl  -2.18726086802062      0.99242271558119     -0.30975884091224
  H   0.12812593650186      0.26988310256726     -1.88161327150681
  H   0.50737601800265      1.62052002633422     -0.80029857629277
  N   -0.80584526778086     -1.32784160886859      0.05197441505549
  H   -1.21891992282836     -1.62692647930825     -0.82157122386001
  H   -1.35196486892764     -1.66022439663783      0.83626890989977
  N   -0.31037745171182      0.49464579597049      1.50266183061026
  O   -0.54921483598530     -0.30944655879187      2.39601959703024
  O   0.14129886178199      1.61982511414474      1.63917187921456
  N   1.67877990707994     -0.05539430214982     -0.39818542293388
  H   1.71531211564986     -1.03830145723482     -0.62806461126291
  H   2.47503537833191      0.41641499358867     -0.80305899466806
