14
Coordinates from ORCA-job run
  C   -0.48920004823618      0.05880305426767      0.26899694961888
  C   0.89628921105012      0.36180395246009     -0.28121794355820
  Cl  -1.69672248897075      1.09900639329028     -0.66428157590864
  H   1.61332775016247     -0.10579658700452      0.39669426762982
  H   1.06058211558914      1.44108064567033     -0.26623140143391
  N   -0.75163315227687     -1.30414007453875      0.25443204509953
  H   -0.47655545539775     -1.68974122258040     -0.64087250940680
  H   -1.69901045684249     -1.53462314515028      0.51788956551388
  N   -0.64140982287216      0.55502245956388      1.69897002104561
  O   -1.59962260694284      0.11771576134134      2.32164681081972
  O   0.19517562838457      1.35079779478375      2.11200125238298
  N   1.00057232227817     -0.26481223524428     -1.59516161858025
  H   0.61757424545433      0.34867167998022     -2.30316833583224
  H   1.97063275862022     -0.43578847683932     -1.82169752739038
