14
Coordinates from ORCA-job run
  C   -0.56030869788373      0.09465669238766      0.07956007083775
  C   0.87153095766951      0.45603542839855     -0.28124146092510
  Cl  -1.73983754884738      1.06904629387365     -0.80699988709694
  H   1.01514460218167      1.51951589998135     -0.09530337297657
  H   1.51401566693166     -0.09524397912869      0.42992427902465
  N   -0.81352714883439     -1.27574907760181     -0.14236031250354
  H   -0.23440338415899     -1.83962650379403      0.46930924849106
  H   -1.78366722244783     -1.50572594929149      0.03090666293956
  N   -0.75853462185596      0.49670967896610      1.57882114228852
  O   -1.28123224624080     -0.34033896808981      2.30785901236071
  O   -0.37060940193353      1.60783740810760      1.91458874252756
  N   1.10153979442679      0.16780123646494     -1.67997459574833
  H   1.01187187939110     -0.82380181866440     -1.85449684813207
  H   2.02601737160188      0.47188365839040     -1.95259268108726
