14
Coordinates from ORCA-job run
  C   -0.47286164500051     -0.05418409027795      0.29732911384099
  C   0.74276307827656      0.56883085066087     -0.37224346815413
  Cl  -1.96760588830629      0.51319883358563     -0.62798903179107
  H   0.59313577918690      1.64721649689916     -0.45490213512343
  H   1.59329942986370      0.38783103812144      0.28821908682293
  N   -0.33781383979411     -1.43085351940619      0.41007391603448
  H   -0.00473917733554     -1.80968175623879     -0.46820458289312
  H   -1.16703337492181     -1.89026358844329      0.75839572743518
  N   -0.69495391166197      0.51552337792240      1.69052976849775
  O   -1.45973902565837     -0.11035118979892      2.41216517547991
  O   -0.10149868416351      1.54923057996292      1.97871845128678
  N   0.96116284338917     -0.12746545914905     -1.63585456650746
  H   1.92843398440995     -0.04241704661162     -1.91633773817989
  H   0.38745043171582      0.28238547277341     -2.36189971674893
