14
Coordinates from ORCA-job run
  C   -0.48321265948904     -0.02638297673569      0.28404590726634
  C   0.79632210044546      0.51932508697960     -0.33163103417619
  Cl  -1.90200913533950      0.69548479022801     -0.65251210760842
  H   0.73782362730883      1.60874396393903     -0.37449644714942
  H   1.61130749143907      0.24373608064329      0.34081225357050
  N   -0.46303622538394     -1.41295585084623      0.34536072079699
  H   -0.13951358682234     -1.78404314246334     -0.53981811643502
  H   -1.33640611485822     -1.81496529176546      0.65473303071832
  N   -0.69515273208188      0.50666751944094      1.69303260892706
  O   -0.02759390398626      1.47655409255994      2.03582582410964
  O   -1.52770717885826     -0.08009685218897      2.37111580482609
  N   0.99041202089027     -0.14398398114761     -1.61691722900193
  H   0.47050266919456      0.33889486117999     -2.33858351894255
  H   1.96826362754124     -0.12697829982350     -1.87196769690140
