14
Coordinates from ORCA-job run
  C   -0.46548314368981     -0.05712789458547      0.30723437809589
  C   0.73529560374260      0.57224482843799     -0.38257409474759
  Cl  -1.97990856275660      0.52010700035578     -0.58091535595162
  H   0.58496263268764      1.65151178876520     -0.45102128451973
  H   1.60005905353320      0.38409911769958      0.25716706631153
  N   -0.32880381829393     -1.43460701649262      0.40370005034086
  H   -0.01745447476066     -1.80632226375846     -0.48541870403054
  H   -1.14911079683745     -1.89664855264709      0.76921071830711
  N   -0.65801838751598      0.49930906761690      1.71001012558865
  O   -0.06156096257420      1.53259891352448      1.99350260991450
  O   -1.40523027243177     -0.13457879641987      2.44299522859367
  N   0.92522701169234     -0.11161020519041     -1.65755758880779
  H   1.88585418238438     -0.02340874128379     -1.95912048316560
  H   0.33517193482025      0.30543275397779     -2.36621266592934
