14
Coordinates from ORCA-job run
  C   -0.62624170818572     -0.04334768223825      0.08764532777982
  C   0.25063146752426      0.59264904259103     -0.98830945082874
  Cl  -2.32679318987232      0.59330828715720     -0.11461198893178
  H   0.10462837133427      1.67119318511353     -0.96840440919776
  H   -0.13252553029982      0.23158770774999     -1.94897210349259
  N   -0.52278818457931     -1.44380480574365      0.09745788900468
  H   -0.85216898257655     -1.83445551587721     -0.77564244601679
  H   -1.01931535128286     -1.85265144667253      0.87892265833047
  N   -0.22040095122661      0.44509880301706      1.47632644331801
  O   -0.49720107484474     -0.28618150991925      2.41943696554850
  O   0.32056628312059      1.54205638762345      1.54573045409945
  N   1.65902259043893      0.29197197380247     -0.87794887315683
  H   1.79823198026880     -0.69963695816944     -0.73408054950501
  H   2.06435428018109      0.79221253156561     -0.09854991695143
