14
Coordinates from ORCA-job run
  C   -0.47693078778383     -0.02269629267085      0.29498295182769
  C   0.79520892737052      0.51152015608180     -0.34573922042855
  Cl  -1.90721080705395      0.72174529020509     -0.60587723509031
  H   0.74924020349321      1.60180857228148     -0.38051587832578
  H   1.62165139157001      0.22121789138292      0.30630884650870
  N   -0.47188290653435     -1.40990059361764      0.34742501518795
  H   -0.17333590279121     -1.77834093687251     -0.54761351346487
  H   -1.34298791799888     -1.80320875654331      0.67389627738734
  N   -0.65127985715359      0.50470966666342      1.71099926779288
  O   -1.47029773267377     -0.08035431139603      2.40687599272180
  O   0.02954194484469      1.46973857144987      2.04119924217268
  N   0.95254117533761     -0.14587339416115     -1.63899573039922
  H   0.42132430336709      0.34678969627736     -2.34565128022494
  H   1.92441796600644     -0.13815555908045     -1.91629473566536
