14
Coordinates from ORCA-job run
  C   -0.64911447640196      0.00272395895974      0.09591804329975
  C   0.55986091882314     -0.05106544452667     -0.85747658550847
  Cl  -1.57112520692974      1.47773018344508     -0.19339599518762
  H   1.03315641679264     -1.02514483294223     -0.70211085445959
  H   0.14961298286211     -0.03546361214642     -1.87171846569630
  N   -1.54151324836565     -1.11586123119265      0.06326340261368
  H   -2.08339275279284     -1.10611102122542     -0.79060036748897
  H   -1.01553005685030     -1.97841931451508      0.13416074584689
  N   -0.05434619463397      0.02810315727224      1.50685758365015
  O   -0.02444985962198      1.06452573644209      2.15154857127864
  O   0.43306749835790     -1.05068874349601      1.83833360687576
  N   1.56027235073096      0.97867157396273     -0.72692661604484
  H   1.15086934705887      1.90042397459416     -0.80011915465007
  H   2.05363228097081      0.91157561536843      0.15326608547099
