14
Coordinates from ORCA-job run
  C   -0.46406666532337     -0.02872177300656      0.31371011192199
  C   0.78258793285850      0.51785891048247     -0.36526265024643
  Cl  -1.92731708924856      0.74423697387372     -0.50773552919680
  H   0.73972564133921      1.60880224031545     -0.37029336032484
  H   1.63407784764240      0.20819917759287      0.24423630192379
  N   -0.46332936931830     -1.41660420918430      0.33038688256971
  H   -1.32145033162790     -1.81545059450350      0.68339498596788
  H   -0.20299624711237     -1.76363295903603     -0.58487021360223
  N   -0.57779422482976      0.46200931781804      1.74912669178416
  O   0.12516283927149      1.41146638900004      2.07808289462701
  O   -1.37454979591919     -0.13477768294186      2.46066957463483
  N   0.88327696633054     -0.10666786745367     -1.68048424371383
  H   1.84293089844269     -0.09422953855645     -1.99753306897049
  H   0.32574159749460      0.40651161559976     -2.35142837737473
