14
Coordinates from ORCA-job run
  C   -0.76959035295368      0.03005918748429      0.08373262886703
  C   0.25583946954157      0.55813372367617     -0.93985877026082
  Cl  -2.34104093380805      0.77219333256228     -0.27717969952884
  H   -0.09279387998644      0.23153510235572     -1.92446115658482
  H   0.22742188129180      1.64936378497829     -0.92441005328879
  N   -0.93797848389183     -1.37698657596059      0.19699780039979
  H   -1.17991036444359     -1.78173051243575     -0.69729918257303
  H   -0.12392498248867     -1.81787801745008      0.60098491161889
  N   -0.27986057946454      0.54364201209831      1.44060340799366
  O   0.25083689204157     -0.28015821719579      2.18106217660545
  O   -0.34448694839190      1.74965724926781      1.63313547574932
  N   1.61510239363442      0.11728669434968     -0.74151599250258
  H   2.02634169122700      0.49464713953863      0.10119051482174
  H   1.69604419769235     -0.88976490326899     -0.73198206131701
