14
Coordinates from ORCA-job run
  C   -0.69530703991171      0.05375633366224      0.07813439968443
  C   0.42445129930863      0.44316904270491     -0.87624444599119
  Cl  -2.20856434793384      0.87609722097209     -0.50466011919542
  H   0.56878280502187      1.52521582678610     -0.79759945095740
  H   0.05025759342318      0.22792709019321     -1.87983429563839
  N   -0.80139831938152     -1.31858827360394      0.26217939161583
  H   -0.33925391894116     -1.86632880690702     -0.44513589818801
  H   -1.70258772348385     -1.65291623009020      0.56149053412164
  N   -0.47113531431580      0.66789742994659      1.47645372118701
  O   -1.30655816637609      0.39554373561875      2.32414345192125
  O   0.55279321463397      1.32523323344083      1.64858119452149
  N   1.60762674046339     -0.36973802058775     -0.64474161988667
  H   2.06450542436643     -0.06361618159945      0.20534990971341
  H   2.25838775312651     -0.24265240053638     -1.40911677290798
