14
Coordinates from ORCA-job run
  C   -0.48607139330808     -0.00183067567517      0.12673003037507
  C   0.87084654068930      0.54671452325006     -0.33198326170528
  Cl  -1.81569327202092      0.70584763780918     -0.81277654496502
  H   1.62079324319368      0.14372480655495      0.36120579989963
  H   0.86263453581158      1.62927116927714     -0.21018286805654
  N   -0.53800987601339     -1.40609072610684      0.02209519961699
  H   -1.44624482993570     -1.76748424444134      0.28483692386243
  H   0.16360700719457     -1.82692151328386      0.62000602766959
  N   -0.70216020123159      0.50236679885514      1.58681001590848
  O   -0.91118542556134     -0.35493532292664      2.44025036051967
  O   -0.60360507509499      1.70722923608227      1.77793924220028
  N   1.23839764686960      0.20620467235208     -1.68532477116862
  H   1.10010945456160     -0.78503360250537     -1.83825988595148
  H   0.64658164484569      0.70193724075842     -2.33934626820518
