14
Coordinates from ORCA-job run
  C   -0.57536464907763     -0.07167147852903      0.15441954401813
  C   0.60077923694865     -0.09937306514975     -0.81429582566398
  Cl  -1.67218377724222      1.30644933793248     -0.24765962065174
  H   1.22655435304191     -0.94267304534517     -0.49837853928145
  H   0.16867723112329     -0.35090138770775     -1.78756168806952
  N   -1.21826801872350     -1.32823401560351      0.21356605533709
  H   -1.99435875947514     -1.30252205866970      0.86425529656012
  H   -1.54931947972542     -1.60602338990617     -0.70119899458367
  N   -0.10155017243961      0.18655209871704      1.58430576360961
  O   -0.96110037427787      0.12659218153514      2.45311932452365
  O   1.09455970273418      0.38938504469550      1.76469338649368
  N   1.28522932137665      1.16977755142272     -0.91663565428263
  H   2.02171275879156      1.22991186108580     -0.22988249388960
  H   1.67563262694514      1.29273036552239     -1.83874655411968
