14
Coordinates from ORCA-job run
  C   -0.76935589172452     -0.02708419089843     -0.00197662300087
  C   0.29877867065764      0.52126920466931     -0.93251009010892
  Cl  -2.34476341656226      0.72110452946802     -0.35632834063320
  H   0.01876036232554      0.19064447612995     -1.93417742421564
  H   0.27451104746809      1.61206887223980     -0.90430833053482
  N   -0.84786723607322     -1.42268505096144     -0.07489505880484
  H   0.09620466977762     -1.78950722656490     -0.00860382902988
  H   -1.43510962002875     -1.80115299265300      0.65685122450833
  N   -0.43901586966589      0.46232475118677      1.44644604818312
  O   -0.85472294019510     -0.23678412238655      2.36199112505214
  O   0.19794563936880      1.50433493962062      1.56676746121205
  N   1.57689918096260     -0.06751893018340     -0.54923442908669
  H   2.06522501065056      0.54684567898141      0.08897137393250
  H   2.16251039303888     -0.21485993864817     -1.35899310747329
