14
Coordinates from ORCA-job run
  C   -0.48557196659145     -0.02930054865764      0.12593322006927
  C   0.83772728950462      0.59433420403448     -0.33506337884597
  Cl  -1.85284007599606      0.59334196906547     -0.81976837765262
  H   1.60881252243568      0.24096651246851      0.36197700834152
  H   0.76595064976286      1.67539625458938     -0.22109746858441
  N   -0.45549994141219     -1.43489220852775      0.03091292163503
  H   -1.34128343568732     -1.84672426218153      0.29614763591735
  H   0.26889084355272     -1.80991625742199      0.63218755041086
  N   -0.73296631864744      0.47137267881564      1.58250536294016
  O   -0.70424081175664      1.68123004278389      1.76529960765804
  O   -0.89421732049637     -0.39076591252033      2.44137793242196
  N   1.22678460869223      0.26647734072653     -1.68548254971595
  H   0.60697648795748      0.72083758223034     -2.34363480163972
  H   1.14847746868187     -0.73235739540499     -1.83129466295552
