14
Coordinates from ORCA-job run
  C   -0.79264556375862     -0.00522864821234      0.12703732061014
  C   0.25709221468670      0.46337114501689     -0.88255831213954
  Cl  -2.35065893810434      0.74451108996589     -0.25554747962795
  H   -0.04705225465211      0.07024207309559     -1.85567055464870
  H   0.25010759563602      1.55562029579903     -0.93141104748247
  N   -0.96029802413515     -1.40351275499254      0.27662930076438
  H   -0.04228398516031     -1.82972296662870      0.34422612496570
  H   -1.46455136721588     -1.77785787961532     -0.51615300166475
  N   -0.31684917440996      0.56281772190685      1.48388218824656
  O   -0.07289754090783     -0.22908167956082      2.38192934787199
  O   -0.14973416121440      1.77797199542836      1.52028120690092
  N   1.53355379588138     -0.12024250666440     -0.49039649739488
  H   2.10205455591271     -0.32864255324257     -1.29886656047825
  H   2.05316284744181      0.51975466770409      0.09661796407685
