14
Coordinates from ORCA-job run
  C   -0.40420888052677      0.00287483196322      0.28801703719895
  C   0.75777296301677      0.66043135797823     -0.46055656981278
  Cl  -1.97200274435620      0.56069504533312     -0.49363250121356
  H   1.64950050423029      0.51475018002957      0.15378246373612
  H   0.56756117938209      1.73025609988388     -0.52483837088781
  N   -0.27131125587895     -1.38770252393877      0.38060037924793
  H   -0.99980675984865     -1.79465224493633      0.95339729205017
  H   -0.26656543470204     -1.81006649811651     -0.53704185615411
  N   -0.50707248003165      0.53922581422046      1.71162577701976
  O   -0.00232892555544      1.63334882348437      1.93124393433864
  O   -1.11152717954894     -0.15811917707342      2.51716028527277
  N   1.00777070419322      0.13221123339184     -1.78173936882714
  H   1.35951444841364     -0.81410216823138     -1.75965254046167
  H   0.19270386121262      0.19084922601171     -2.37636596150728
