14
Coordinates from ORCA-job run
  C   -0.56772997716195      0.05665372694532      0.22037342372182
  C   0.79551809512393      0.52827343912183     -0.33259541500698
  Cl  -1.86924738728731      0.78166386644221     -0.73231945894074
  H   0.81425710644958      1.62089028376902     -0.30835820751379
  H   1.55555551974586      0.16047302937331      0.36532342338032
  N   -0.79783705907048     -1.34850326202418      0.30499004111563
  H   -0.06466966950805     -1.80289816313667      0.83341145870328
  H   -0.89115678756445     -1.75295883290922     -0.61573233847320
  N   -0.61044745920815      0.60097352734564      1.65134673051380
  O   -1.02307207394591      1.73557253094264      1.84002057398464
  O   -0.09984090232523     -0.13968739259478      2.48790057290512
  N   1.12525624595578      0.07864701049681     -1.66196213850721
  H   1.18200655133980     -0.92929377807567     -1.71287633442071
  H   0.45140779745657      0.40919401430375     -2.33952233146196
