14
Coordinates from ORCA-job run
  C   -0.64339316448169      0.01428004378112      0.12939833854685
  C   0.51253475182975     -0.05715166107790     -0.88632473765445
  Cl  -1.55211654258163      1.50722332359466     -0.10588746793809
  H   0.04975872293072     -0.03095063909667     -1.87751870013805
  H   0.97572818103981     -1.04006116655248     -0.75867590250441
  N   -1.55663993181394     -1.08752828980183      0.14020852687995
  H   -1.04381330821050     -1.95971292156167      0.18514562440775
  H   -2.13944964828660     -1.06700696958603     -0.68606035595909
  N   0.02511173326802      0.02271104575249      1.50777547286205
  O   0.51148440016693     -1.06556019587977      1.80837857881267
  O   0.10554363116790      1.05510395453720      2.15451104649904
  N   1.53684911160524      0.95390683835180     -0.80548994278202
  H   1.14084524793874      1.88332714285911     -0.84950496595235
  H   2.07755681542723      0.87141949467998      0.04504448492016
