14
Coordinates from ORCA-job run
  C   -0.64609438576802     -0.02695051953524      0.11336071292157
  C   0.53713141205758     -0.01249048924074     -0.87325915009807
  Cl  -1.63760553346075      1.41205424484730     -0.12407686642269
  H   1.05543080324540     -0.96786758754466     -0.74845539920023
  H   0.09845250033036      0.00307421801485     -1.87554698308662
  N   -1.49100879660244     -1.18186585648062      0.08476403152697
  H   -2.05517213066648     -1.18080702162489     -0.75467115616788
  H   -0.92712249899212     -2.02220728228232      0.12537345969732
  N   -0.01341695176830      0.00033825642623      1.50778302218108
  O   -0.00826128394769      1.02665635831725      2.16904948386134
  O   0.52790004098255     -1.06199269521916      1.80690073068484
  N   1.49615421308329      1.05675722627640     -0.75082573986727
  H   1.04615300608635      1.96132972393338     -0.79317569106944
  H   2.01845960542024      0.99397142411222      0.11277954503908
