14
Coordinates from ORCA-job run
  C   -0.76873293376868      0.00128087416188      0.09442157481971
  C   0.22326037860127      0.58237996553091     -0.93323446797747
  Cl  -2.37044573100217      0.69229936066075     -0.23292896263658
  H   -0.12720771113494      0.26078796546481     -1.91880795545266
  H   0.15662168478012      1.67151581586769     -0.89831262111461
  N   -0.88616778330898     -1.41243867255980      0.18682680463456
  H   -0.04898890639672     -1.83161925531381      0.56594064654103
  H   -1.13280944677787     -1.81011511971016     -0.70937210114723
  N   -0.27882805741841      0.50988797907980      1.45341761051358
  O   -0.38324720329804      1.70966387562503      1.66672661277692
  O   0.29168954243543     -0.30625992403189      2.17236560728556
  N   1.59990295366068      0.18679701578303     -0.76022727226287
  H   2.00816770793708      0.56353339547685      0.08421167454148
  H   1.71678550569122     -0.81671327603509     -0.77002715052143
