16
Coordinates from ORCA-job run
  C   -0.38677613299662     -0.48778981648891      0.09314692142216
  C   0.74742624251983      0.54979340911290      0.15581578635532
  Cl  0.30078867550952     -2.02141411751641     -0.54560725112203
  H   0.29736219448769      1.45687652486197      0.58029233178968
  N   -0.80370367504176     -0.75015408399683      1.45670804432625
  H   -1.36404463437675      0.02931262038719      1.78785160119546
  H   -1.37919330557342     -1.58372134520847      1.49040628207740
  C   -1.49258377945181     -0.03645468988036     -0.84723041775093
  H   -1.11506213839387      0.13266873614034     -1.85380302705484
  H   -1.91626615664696      0.90174685514047     -0.47354179405567
  H   -2.28220327580150     -0.79015031000207     -0.87148342984893
  N   1.23714619069764      0.88437399588140     -1.17087916699613
  H   1.76705737264390      0.10196126215336     -1.53871480657761
  H   1.86409410399408      1.67786174281539     -1.11363905655964
  C   1.80173564806188      0.10907172775493      1.09056573699895
  N   2.72322267036815     -0.17498251115490      1.76111224580058
