16
Coordinates from ORCA-job run
  C   -0.41451246958610     -0.46797157678952     -0.29115961104362
  C   0.99152189825367      0.16507351727719     -0.23501325431862
  Cl  -0.65542527878964     -0.99868971637415     -2.03143182987549
  H   1.69845563762294     -0.59837057642156     -0.60019555149407
  N   -0.41679759747208     -1.57746315623401      0.60832372218980
  H   -1.35574999408337     -1.93188199338433      0.74282231137391
  H   0.16075408018793     -2.33218949583343      0.25494433009194
  C   -1.51374499205429      0.51309003876883      0.05491342253809
  H   -2.48613611447987      0.02099525966932     -0.02040307288023
  H   -1.50500708332119      1.35725155825836     -0.63408240857196
  H   -1.35900686248031      0.87653373604649      1.07064829861790
  N   1.23399763955768      0.61527273413419      1.12926790051413
  H   1.13908941996163     -0.18372403905002      1.74472085417786
  H   2.16824966556301      0.99690870294334      1.21245239574454
  C   1.09535888132311      1.31262686870283     -1.14303201073176
  N   1.21695316979688      2.23153813828648     -1.86277549633242
