16
Coordinates from ORCA-job run
  C   -0.41384854649296     -0.47047539165855     -0.25376768114500
  C   0.84797969690999      0.39150856180863     -0.47782126711616
  Cl  -0.44273012909979     -1.72944974140789     -1.52423994657401
  H   0.77630874751865      0.85152567888933     -1.46887392916256
  N   -0.25827282683553     -1.14275605422542      1.02842013483016
  H   -0.86509725240836     -1.95237066338021      1.07273240256715
  H   -0.52530666030647     -0.50674981058987      1.77391639490485
  C   -1.68688494448803      0.35284472317141     -0.38812102475565
  H   -1.72474906379017      1.11923207498135      0.39040808488080
  H   -1.74182577816017      0.83895444547632     -1.36464973608002
  H   -2.55542127073887     -0.29888544997094     -0.27892931233594
  N   2.03943688562440     -0.42667610672531     -0.41679217118450
  H   2.87039724137527      0.15017220755468     -0.44511003339266
  H   2.01984071715585     -0.95137537108239      0.45045101107266
  C   0.82352983182847      1.47325570093494      0.53394775712219
  N   0.83464335190771      2.30024519622392      1.36942931636869
