16
Coordinates from ORCA-job run
  C   -0.44626964194906     -0.49166039631555     -0.28605020194724
  C   1.00517927997778      0.03760077242173     -0.24734761173519
  Cl  -0.69920485331603     -0.96775579017700     -2.06478117958983
  H   1.62581725196310     -0.68479242353868     -0.78727403257024
  N   -0.57211992456409     -1.58147605390756      0.60274226906149
  H   0.20149886241960     -2.23034774026056      0.54413641291377
  H   -1.44915470039472     -2.06836568969273      0.47154650808836
  C   -1.49993474269577      0.55824808446780      0.01592590214497
  H   -2.49100231480765      0.10242491395303     -0.03086185097042
  H   -1.35318938899320      0.94283541815507      1.02841494724476
  H   -1.46591421831020      1.37875549902308     -0.69936135612235
  N   1.50526558177517      0.10749948113306      1.11851811331098
  H   0.90495565375504      0.69201268297929      1.68755202941138
  H   2.43072844715552      0.52101754310434      1.11763567228645
  C   1.09217431778761      1.31632032864248     -0.98108876358249
  N   1.21117039019692      2.36768337001221     -1.49170685794441
