16
Coordinates from ORCA-job run
  C   -0.48063138822575     -0.51278878291683     -0.41818054540351
  C   0.94635145606426      0.06163616056512     -0.20930297279150
  Cl  -0.63330797055418     -0.85119149348037     -2.17215192637346
  H   1.64422280340553     -0.70065353718091     -0.56965264505455
  N   -0.67246582278085     -1.75737898504648      0.28847549305445
  H   -0.07617120696160     -2.47562253132159     -0.10944848425788
  H   -0.37780084132024     -1.60415998948401      1.24888091728300
  C   -1.55176459848651      0.47690747439655     -0.00472021205202
  H   -1.49239384344933      0.65195221587504      1.07325991798364
  H   -2.52795026568480      0.04516466140884     -0.22247069974162
  H   -1.44920568360364      1.42525627095692     -0.53463345441141
  N   1.17145946253021      0.25035440310609      1.22224860497289
  H   0.81606994201006      1.15220370049364      1.51743678442837
  H   2.16406470189089      0.23855956504400      1.42196250279296
  C   1.16893890163021      1.28932167522014     -0.99147472163976
  N   1.34958435353572      2.31143919236387     -1.54222855878957
