16
Coordinates from ORCA-job run
  C   -0.49082951361373     -0.45490187631210     -0.24783621741367
  C   0.82471282289183      0.36702085856122     -0.29753722539485
  Cl  -0.36948883213541     -1.56888254916116     -1.69445757288908
  H   0.87828476922472      0.87366772703032     -1.27195468202765
  N   -0.61173659438414     -1.24425328411216      0.92890491934523
  H   -1.07940862019332     -0.73317530669434      1.66552154169249
  H   0.30186602522529     -1.55691955710395      1.23759665106503
  C   -1.71505250229579      0.41319590172824     -0.45407656522202
  H   -2.59940889539762     -0.22352642879768     -0.49531964192236
  H   -1.64337445792670      0.97368028534694     -1.38702187880067
  H   -1.82147097117208      1.11832546221547      0.37491028325957
  N   1.95836796655592     -0.50895632579968     -0.01785821376359
  H   2.12140374737867     -1.10145981970856     -0.82348344864108
  H   2.79439980495130      0.03738619037223      0.14948643055750
  C   0.75918312067311      1.39491869797147      0.74778499708831
  N   0.69155213021796      2.21388002446373      1.58634062306684
