16
Coordinates from ORCA-job run
  C   -0.35657970278518     -0.42353785850118     -0.22030738042256
  C   0.88846136783486      0.49347574713669     -0.37774169287031
  Cl  -0.24592570099498     -1.66666777784001     -1.51384334353449
  H   0.83007225601406      0.97582003056130     -1.35909120261193
  N   -0.22787203729761     -1.11598045150926      1.04880732071536
  H   -0.46223041228097     -0.47570938262539      1.80212382213307
  H   -0.87268335561770     -1.89667539538623      1.08851752398712
  C   -1.65966577514593      0.33467185723956     -0.41898396884791
  H   -2.50317692312926     -0.35602664822741     -0.36220565020073
  H   -1.77277336240587      1.08839185296476      0.36435335329409
  H   -1.68598342686868      0.83115327046110     -1.39166812025053
  N   2.17405225408678     -0.15965490332538     -0.25327368322510
  H   2.11748157539448     -0.80564282233315      0.52800721044594
  H   2.34781661063247     -0.70341429763818     -1.08927016253925
  C   0.78156708000904      1.54272771238509      0.65072144972372
  N   0.64643955255452      2.33806906663769      1.50385452420349
