16
Coordinates from ORCA-job run
  C   -0.49482531220884     -0.45609487052874     -0.23618784994982
  C   0.82167051633988      0.36226695242798     -0.31264123290093
  Cl  -0.39587560780321     -1.58352770417516     -1.67525384680469
  H   0.86252902393558      0.85821519912696     -1.29307156314606
  N   -0.59989530932453     -1.23398654808840      0.94912097479371
  H   -1.06207284082984     -0.71886015234094      1.68626150332556
  H   0.31763643444528     -1.54226752721019      1.25032129658464
  C   -1.72021123412347      0.41232401374046     -0.43355219654444
  H   -1.66083353240177      0.96365835799366     -1.37278877866318
  H   -1.81343569983502      1.12559340723398      0.39002245443280
  H   -2.60620006488320     -0.22306153918118     -0.45616291813735
  N   1.95702488443071     -0.51349005795736     -0.03966916681943
  H   2.10778064511685     -1.11444859644012     -0.84144928135796
  H   2.79615453284399      0.03270558102486      0.11106433966156
  C   0.77306494775460      1.40100980305060      0.72264718241236
  N   0.71948861654299      2.22896368132360      1.55333908311323
