16
Coordinates from ORCA-job run
  C   -0.41875889956803     -0.53198680900603     -0.41971858689296
  C   1.00170245012089      0.04705039277035     -0.26319675913142
  Cl  -0.65508422306173     -0.86255654473354     -2.17415225228086
  H   1.67699289125235     -0.71535484626309     -0.66118944012393
  N   -0.41396846469486     -1.79304479388175      0.27610017265168
  H   -0.08833966356681     -1.61974546883856      1.22147940485990
  H   -1.34872332133670     -2.18311194741093      0.30355340823907
  C   -1.49600606078066      0.45160674498490      0.01458448086226
  H   -1.38334993662430      0.66474228054338      1.08133831985950
  H   -2.48057476511294      0.00520793219002     -0.13901666424773
  H   -1.45242657542316      1.38364580852720     -0.55249397192880
  N   1.29298702893649      0.23029443842114      1.15814201228169
  H   0.97950651494395      1.14218875225053      1.46886669015723
  H   2.29183314868204      0.18180626445701      1.31567164726675
  C   1.17096853094793      1.28293010176226     -1.04470010627037
  N   1.32224134528554      2.31432769422711     -1.58626835530202
