16
Coordinates from ORCA-job run
  C   -0.40486305793582     -0.45728121065653      0.14964373900382
  C   0.75008193912581      0.55804654492755      0.10908309393917
  Cl  0.28259936592021     -2.09012777453918     -0.15873866410119
  H   0.29727583547625      1.53261124370672      0.33435202988533
  N   -0.91998491260837     -0.46767394912840      1.50474751067144
  H   -1.51859233500931     -1.27365757202095      1.64325132957024
  H   -1.48029029198421      0.36614451743464      1.65288499759056
  C   -1.43232863219774     -0.16442213108501     -0.93183075599912
  H   -0.98368139490247     -0.18210853993746     -1.92317631590283
  H   -2.23825520649279     -0.89904367935470     -0.87859891523182
  H   -1.85494345075764      0.83134434959949     -0.76071857372600
  N   1.33697868853273      0.64449592404579     -1.21737853832050
  H   1.98092765365999      1.42536246544506     -1.25612343518264
  H   1.86771230109796     -0.19921371902253     -1.40377179713925
  C   1.72652328152368      0.27468673961914      1.17986231261160
  N   2.59184021655174      0.09983679096637      1.95451198233119
