16
Coordinates from ORCA-job run
  C   -0.38374579721519     -0.49667347086042      0.05879300340546
  C   0.77966389735067      0.53828362846961      0.15174774828330
  Cl  0.29517097199876     -1.97800667342075     -0.71068652912814
  H   0.32970055021137      1.43611697469240      0.59711070258411
  N   -0.91930014436916     -0.88819973213746      1.33604411477226
  H   -0.19217221784413     -1.23004690922023      1.95439121311001
  H   -1.39469456911957     -0.10758774035383      1.77448536563632
  C   -1.50681666530868      0.03171712703089     -0.81315295420845
  H   -2.29951593381303     -0.71441753409798     -0.85892614894101
  H   -1.16223389532573      0.23980129254353     -1.82566631848540
  H   -1.91339798463078      0.95186977460148     -0.37964220204181
  N   1.44798399892872      0.94481223168485     -1.06659685452330
  H   0.81683597323303      1.46346216963500     -1.66247984756399
  H   1.78411526141463      0.13262240118822     -1.56960619487805
  C   1.77632527707668      0.04758767938878      1.11612620184213
  N   2.54408127741242     -0.37134121914409      1.89905870013657
