16
Coordinates from ORCA-job run
  C   -0.40776732998365     -0.47834402585851     -0.24870379221733
  C   0.83510190393497      0.40679194481912     -0.48770684019049
  Cl  -0.42790848150600     -1.73803181946184     -1.51872862217763
  H   0.74342913712283      0.86366292663543     -1.47853569946800
  N   -0.22502267206844     -1.14730780149644      1.03160126957639
  H   -0.49504933543693     -0.51615073900168      1.78021380774492
  H   -0.81596827289892     -1.96815776396827      1.08279352253745
  C   -1.69733850841875      0.32121337551831     -0.36848974845433
  H   -2.55232595327499     -0.34652083474367     -0.24946539181311
  H   -1.74063322628991      1.08684043735883      0.41049648577854
  H   -1.77237583983091      0.80610905417770     -1.34424898992254
  N   2.04225535685012     -0.38866407450730     -0.43904679563574
  H   2.86197031109653      0.20342781619650     -0.47683881595197
  H   2.04175325474061     -0.91341589378858      0.42829407075459
  C   0.80179382861477      1.48954965242199      0.52263518564411
  N   0.80708582734866      2.31899774569841      1.35573035379515
