16
Coordinates from ORCA-job run
  C   -0.43011711946353     -0.37168106604039     -0.17672415996514
  C   0.86205501223109      0.45749876348370     -0.38728816847425
  Cl  -0.41768818185973     -1.59158130189490     -1.58473805395121
  H   0.83387503084403      0.83561149180601     -1.41455291757462
  N   -0.39836386169275     -1.00850810476340      1.08389995548585
  H   -1.27418672015916     -1.46865244381679      1.29541216801575
  H   0.35003383125173     -1.68596044959094      1.14713315149113
  C   -1.68508117153702      0.46054862318923     -0.33896457976532
  H   -1.75498801385321      1.17657578671944      0.48182740555303
  H   -1.67254841636940      0.99683836532247     -1.28875124546350
  H   -2.56673191241113     -0.18368264836372     -0.32707374117508
  N   2.12272776473641     -0.23306719889055     -0.20353914436897
  H   2.16927792857739     -1.04982875597558     -0.79932666432832
  H   2.26224755318632     -0.49600423523972      0.76334463408148
  C   0.82325091447682      1.61703047430058      0.51500833045867
  N   0.77823736204214      2.54386269975455      1.23333302998050
