16
Coordinates from ORCA-job run
  C   -0.50007961634405     -0.42894490444890     -0.17975650188173
  C   0.81313577427221      0.34643802432526     -0.41956661204065
  Cl  -0.60951376666064     -1.61481527808754     -1.60034697888295
  H   0.84557900908773      0.62160166239087     -1.47682652031097
  N   -0.40846604700883     -1.08848884670693      1.06772874923070
  H   0.35094823350837     -1.75940859054569      1.04555156990130
  H   -1.27131530607450     -1.56420624248537      1.29954012115403
  C   -1.72929498728579      0.45311063877117     -0.25745611315205
  H   -1.73615115227264      1.14718300468152      0.58466814932453
  H   -1.74561886172195      1.01515850294167     -1.19256304063683
  H   -2.63040165774842     -0.16207160524296     -0.21997703992009
  N   1.96058229780262     -0.49590465011965     -0.10431492188493
  H   2.29508270571878     -0.30626573337654      0.83154303849302
  H   2.71757602125434     -0.33215565934000     -0.75272460699108
  C   0.80566641471918      1.59182271312095      0.36814507285960
  N   0.84127093875360      2.57794696412213      1.00535563473811
