16
Coordinates from ORCA-job run
  C   -0.50318099484666     -0.42309691683025     -0.18401419553281
  C   0.81440147471982      0.34729737361784     -0.41486012724977
  Cl  -0.62079246101603     -1.58881140668410     -1.62117939550155
  H   0.84656818490066      0.63863076034848     -1.46788218989288
  N   -0.41418745319460     -1.09990471727148      1.05402672258989
  H   0.34281598505643     -1.77310528429187      1.02316067827351
  H   -1.27885474227488     -1.57451699659060      1.28077028380926
  C   -1.72723150820951      0.46715533306427     -0.24910647730857
  H   -1.72879824659017      1.15145912859092      0.60092374417479
  H   -1.74179601874400      1.04011362109386     -1.17749413868718
  H   -2.63187921222151     -0.14299155108472     -0.21727378477238
  N   1.95723184912906     -0.50707056828399     -0.11427093782897
  H   2.30159885289763     -0.32672703245821      0.81982475492802
  H   2.71007241904207     -0.34631698511012     -0.76843760898885
  C   0.81646373568157      1.58078279456639      0.39100929090165
  N   0.85856813567013      2.55710244732357      1.04280338108582
