16
Coordinates from ORCA-job run
  C   -0.33304198625037     -0.45507857950313      0.16789234517082
  C   0.83898816819085      0.55786191094598      0.15106189918651
  Cl  0.31089634667440     -2.06581663523859     -0.29628715575225
  H   0.41201667389535      1.51113918161496      0.49381035052504
  N   -0.79594373639222     -0.55866028500722      1.53428335208148
  H   -1.25297423426194      0.30658897303720      1.80456476087301
  H   -1.46577833152680     -1.31389953588904      1.62558198264554
  C   -1.40455112742709     -0.07526631921750     -0.84545453942709
  H   -2.23321158677034     -0.78314414055809     -0.78518463901736
  H   -1.02735393999039     -0.08573210698924     -1.86876307423703
  H   -1.78634487253383      0.92514475609052     -0.61454851861862
  N   1.49028903504965      0.80837232186206     -1.11795455667844
  H   0.85492339877848      1.24567019608980     -1.77145630775465
  H   1.83415899856623     -0.05759599346962     -1.51465636276059
  C   1.85328021295516      0.16548395877833      1.14099050444160
  N   2.70364698104287     -0.12506770254641      1.89511995932203
