16
Coordinates from ORCA-job run
  C   -0.38074348379499     -0.43741416066991     -0.48470355081112
  C   1.01394687491432      0.22030223250244     -0.24976385154340
  Cl  -0.54949080213111     -0.57214963264338     -2.27468149762447
  H   1.74192436966313     -0.39680776506159     -0.79022948954010
  N   -0.47320113780491     -1.76818540826168      0.05183201337838
  H   0.31411400695129     -2.34787125360546     -0.21270012615214
  H   -0.58723275889186     -1.75731059468277      1.05662236823182
  C   -1.52225263887852      0.40285841507217      0.05176181494443
  H   -1.53314711230674      1.39012952516374     -0.40958832622237
  H   -2.46470885916033     -0.10175618896317     -0.16032222893599
  H   -1.42919605645459      0.52005101717527      1.13599557173226
  N   1.44373206768309      0.30412433436696      1.13517617735783
  H   1.44905490435611     -0.61190023178300      1.56356622634211
  H   0.85467162205664      0.92736033687408      1.67217337588085
  C   1.05997676661661      1.56721567974180     -0.83075216912167
  N   1.06355223718186      2.66235369477450     -1.25338630791642
