16
Coordinates from ORCA-job run
  C   -0.51212779780797     -0.52657310791856     -0.35916862948306
  C   0.91865633292725      0.07341186445370     -0.30707237984106
  Cl  -0.83970977706364     -0.89340622140785     -2.08328619539012
  H   1.58840465222755     -0.68348401964793     -0.72719711874165
  N   -0.60811705595277     -1.76342507020936      0.37986499055771
  H   -0.21775080646442     -1.59140053856261      1.30221401039556
  H   -0.04422550316375     -2.47796747640400     -0.06863306628576
  C   -1.55186491155306      0.45196056057612      0.15001740159766
  H   -1.52069195105026      1.39409721669091     -0.39963597740907
  H   -2.53770134426140      0.00173083513461      0.03960656642096
  H   -1.38499631596696      0.64336867930882      1.21385191634764
  N   1.28720037153377      0.28727282892735      1.09083073132808
  H   2.29521247930229      0.29587164655687      1.18670360780929
  H   0.94706522375123      1.18703267752386      1.40953585586133
  C   1.03825047030025      1.29250028828741     -1.12431670787893
  N   1.14339593324189      2.30900983669066     -1.70431500528858
