16
Coordinates from ORCA-job run
  C   -0.42092039085427     -0.45392963820727      0.11105131633783
  C   0.78618461173748      0.49935240458235      0.13584378518088
  Cl  0.15164572606262     -2.05694970937388     -0.46894968461208
  H   0.40469465420704      1.45215537429896      0.52591704040987
  N   -0.85401430858719     -0.63402011314228      1.48276163698703
  H   -1.35536806428762      0.19612295202457      1.78392926674217
  H   -1.48877758533530     -1.42148613804904      1.54675564178149
  C   -1.49237474581559      0.04103564533589     -0.84707242115440
  H   -1.10572087494453      0.14308088402495     -1.85919175376813
  H   -2.33547522146886     -0.65268867690326     -0.84261485332205
  H   -1.84473256865992      1.02182700748038     -0.51045335171822
  N   1.29653863481931      0.74736683684252     -1.20182838291979
  H   1.76594621614806     -0.08524981036736     -1.54040409869532
  H   1.98048219411974      1.49392344715607     -1.17401284658430
  C   1.80705258809656      0.01756945111583      1.08772611087168
  N   2.70583913476248     -0.30910991681842      1.76954259446333
