16
Coordinates from ORCA-job run
  C   -0.47245179961279     -0.36763897517969      0.14174691429043
  C   0.73932826087210      0.57531335300259      0.03947699239211
  Cl  0.17030386932054     -2.07343624760321     -0.20547786822810
  H   0.32626177721985      1.58011950027815      0.17950323869595
  N   -1.03548883607658     -0.25852019588720      1.43719521650926
  H   -1.89365165861362     -0.79040913580467      1.50841384381326
  H   -0.39725319225551     -0.56895820049045      2.16069472431495
  C   -1.50183510290704     -0.05750498319104     -0.92471860462991
  H   -1.90329681192905      0.94298126872354     -0.74519923328989
  H   -1.04837340174046     -0.09617417425799     -1.91199957520015
  H   -2.31878003024563     -0.78049412956272     -0.87516011510123
  N   1.36172069663740      0.51886714481328     -1.26898763951929
  H   2.02774602841972      1.27514387191798     -1.36633886381298
  H   1.85852023790253     -0.35726199994238     -1.37842674037909
  C   1.66458524851099      0.32675131612915      1.16517200006866
  N   2.42266471449752      0.13022158705465      2.04110571007603
