16
Coordinates from ORCA-job run
  C   -0.50773156140619     -0.45456935308111      0.03921366412633
  C   0.75379663036281      0.44292072857293      0.10374285298862
  Cl  0.01134953173219     -2.02005541688123     -0.69509459254541
  H   0.40551180476675      1.40186356048592      0.50747518569750
  N   -1.07002117314603     -0.76202503907142      1.32604270547273
  H   -1.47687339566973      0.06685549875824      1.74265344481102
  H   -0.38200289854647     -1.15914636230097      1.95530266393760
  C   -1.56398540915671      0.17683284496486     -0.84508306789961
  H   -1.16251084020008      0.38232755453740     -1.83468161624756
  H   -2.41780719735838     -0.49672365658991     -0.91422117781235
  H   -1.89438200297263      1.12149084372554     -0.39982981967939
  N   1.31974139562293      0.69724382793018     -1.20761268318888
  H   2.03357851289487      1.41307920087528     -1.14699761997959
  H   1.75005448919794     -0.14792982532951     -1.56438913352173
  C   1.70870288956475     -0.11311485861834      1.08585351646660
  N   2.49057922431397     -0.54804954797787      1.84762567737413
