16
Coordinates from ORCA-job run
  C   -0.49083846881639     -0.45987979722302     -0.23669983572158
  C   0.81058663438626      0.38198604251677     -0.31876018269821
  Cl  -0.39520682688737     -1.56102710403409     -1.69650480752267
  H   0.82672903068943      0.89711913646887     -1.28999768090201
  N   -0.56491816304500     -1.25956889242719      0.93617772221751
  H   -1.02301459516226     -0.76514197001802      1.68985828006031
  H   0.36173009689584     -1.56026523846645      1.21657727063933
  C   -1.73331511956064      0.39109176178590     -0.40071747825219
  H   -1.82556433062989      1.08842206177823      0.43650852457617
  H   -1.69746078165789      0.95924820924807     -1.33104734368894
  H   -2.60900430143854     -0.25846626003066     -0.42075166295192
  N   1.96467355204896     -0.47912409828515     -0.08079072712538
  H   2.79640385206623      0.07813889871679      0.06873830441533
  H   2.11379663673020     -1.06180412649482     -0.89608127626580
  C   0.76120356822522      1.39943240163439      0.73732907012421
  N   0.70619921615583      2.20983897483038      1.58516182309584
