16
Coordinates from ORCA-job run
  C   -0.35307752821521     -0.42557722268050     -0.22228100249610
  C   0.87249755259157      0.51649990794524     -0.38357740995032
  Cl  -0.24391453954792     -1.64077899805940     -1.54226205676438
  H   0.78834492037946      1.01684534696201     -1.35404161634993
  N   -0.18931258593021     -1.14041640240860      1.03034756628983
  H   -0.81615311830985     -1.93586751143735      1.06388509759542
  H   -0.42567808244551     -0.52096274001338      1.80026843411628
  C   -1.67261125464112      0.31294477550859     -0.38245648038516
  H   -2.50295043852912     -0.39349658427706     -0.32350135440624
  H   -1.72558970071322      0.82722042200990     -1.34484514063691
  H   -1.78404270211432      1.04979509633213      0.41717113964949
  N   2.17158510942768     -0.11555641496971     -0.29466204703749
  H   2.14127498092774     -0.77553223759112      0.47635219660525
  H   2.33894544935556     -0.64198613447788     -1.14295174250704
  C   0.76642443073264      1.54399958804856      0.66653293715289
  N   0.63425750703184      2.32086910910857      1.53702147912440
