16
Coordinates from ORCA-job run
  C   -0.40227681316537     -0.35996157703716      0.16188665613181
  C   0.83262769056890      0.57600962008558      0.09138181855589
  Cl  0.18881940045123     -2.04285979063522     -0.34194694440501
  H   0.44549492681412      1.56896995689084      0.34912945313846
  N   -0.92754484375773     -0.33472178455988      1.47596623449929
  H   -0.26361882127758     -0.67656682489202      2.16117100797644
  H   -1.78056198135367     -0.87492390035455      1.54657446227877
  C   -1.46409124706603      0.04627376815041     -0.84060254460426
  H   -1.08076941288127      0.00711194626760     -1.85923107557033
  H   -1.80848935918945      1.05754098136742     -0.60974776890179
  H   -2.31444952863891     -0.63589504584213     -0.78132667913202
  N   1.53787139113934      0.68006971191422     -1.16627358767708
  H   1.79360494811861     -0.23823158611744     -1.50798215684526
  H   0.96622464778940      1.14572574222215     -1.85792518681062
  C   1.77842620770303      0.20085249523167      1.15387078347337
  N   2.49873279474537     -0.12039371269150      2.02305552789235
