16
Coordinates from ORCA-job run
  C   -0.40144913799532     -0.41445173977623     -0.34799843545803
  C   0.99656173571032      0.25470738813770     -0.40855401598405
  Cl  -1.00817969999195     -0.46906319257728     -2.07982534408450
  H   1.60353978892812     -0.34828525523764     -1.09598650759022
  N   -0.22391175535259     -1.72045539748460      0.19889727465503
  H   -1.11631970275920     -2.16286889855674      0.38209853886453
  H   0.29922497122917     -2.31263464547610     -0.43671279015629
  C   -1.40620883616999      0.37375593478522      0.46563063485899
  H   -1.52265911504023      1.38199518029301      0.06818745239983
  H   -1.07722069519174      0.42283578064129      1.50548941063560
  H   -2.38064325133516     -0.11806086219939      0.43321137776686
  N   1.68310437941120      0.32321942527664      0.87129051704520
  H   1.28301149725633      1.05065636264348      1.45092037401933
  H   1.56130238281625     -0.56647176616275      1.34190694930163
  C   0.90138694593322      1.60343996122163     -0.97467307882143
  N   0.80846049255156      2.70268172447175     -1.37488235745245
