16
Coordinates from ORCA-job run
  C   -0.44407982837039     -0.41726279900753     -0.44799496719376
  C   0.95199991241535      0.27679595331549     -0.39471141894261
  Cl  -0.90191486031786     -0.43350941990912     -2.19164456177052
  H   1.59666740282767     -0.27348449447152     -1.09057396557944
  N   -0.41072496451451     -1.78515758641020     -0.00548850006687
  H   -0.35266933783420     -1.84826966674832      1.00226076508820
  H   0.33599011117588     -2.31379360108156     -0.44017029655984
  C   -1.50373184835209      0.33777491370697      0.32903563437259
  H   -1.23571808267995      0.38175588875219      1.38931993812341
  H   -1.61779552207141      1.35397734615318     -0.04779450058101
  H   -2.45386592222582     -0.18788070350666      0.23553416239488
  N   1.60240107249877      0.28145370850052      0.90428418320512
  H   1.09360736274111      0.84356216134508      1.57435511329424
  H   1.70246445638233     -0.66087155085322      1.25740287298651
  C   0.86415426323493      1.66169998209133     -0.87191869152121
  N   0.77321578509019      2.78420986812336     -1.20289576724970
