13

C	0.0	0.0	0.0
C	-0.545699	0.015325	-1.42916
Cl	1.790478	0.0	0.0
H	0.096093	-0.641494	-2.023975
H	-0.304059	-0.919573	0.506198
H	-0.427101	1.026667	-1.83451
C	-0.437425	1.145237	0.796664
N	-0.72875	2.081797	1.443278
C	-1.995585	-0.456155	-1.490088
H	-2.684426	0.077801	-0.833347
H	-2.387406	-0.34826	-2.504059
H	-2.066495	-1.516798	-1.224927
Cl	-5.239429	0.0	0.0
