13

C	0.0	0.0	0.0
C	-0.541338	-0.089075	-1.420851
Cl	1.792473	0.0	0.0
H	-0.112168	-0.988077	-1.876205
H	-0.329196	-0.860754	0.58214
H	-1.620765	-0.230822	-1.303434
C	-0.406314	1.225261	0.693876
N	-0.611848	2.234226	1.257615
C	-0.25864	1.143978	-2.265566
H	-0.663398	1.00288	-3.270668
H	0.811008	1.351259	-2.354646
H	-0.750815	2.018135	-1.83384
Cl	-3.606156	0.0	0.0
