17

C	0.0	0.0	0.0
C	-0.565318	0.008895	-1.429851
F	1.386323	0.0	0.0
H	-1.67169	0.022465	-1.238651
C	-0.421275	1.286134	0.700115
H	-0.041548	1.246365	1.726236
H	-1.512649	1.297787	0.693585
H	0.002285	2.166634	0.209598
N	-0.495498	-1.200834	0.604414
H	-1.523502	-1.059808	0.545952
H	-0.234247	-1.178559	1.585725
N	-0.190736	-1.259058	-2.136647
O	-1.055614	-2.122187	-2.242962
O	0.964304	-1.35098	-2.552535
C	-0.08749	1.133505	-2.217366
N	0.242984	2.077878	-2.832714
F	-2.858571	0.0	0.0
