17

C	0.0	0.0	0.0
C	-0.355668	0.066775	-1.512973
F	1.403743	0.0	0.0
H	-0.204564	-0.943939	-1.895791
C	-0.415048	1.230575	0.784659
H	-1.50666	1.228161	0.790214
H	-0.010081	2.141464	0.341252
H	-0.020051	1.125195	1.801356
N	-0.512636	-1.240056	0.484524
H	-1.541841	-1.058635	0.370732
H	-0.3402	-1.260371	1.486432
N	0.700384	0.899902	-2.209089
O	0.663639	2.115954	-2.04832
O	1.535039	0.29598	-2.876835
C	-1.648182	0.584498	-1.972096
N	-2.427999	1.028593	-2.73656
F	-2.757207	0.0	0.0
