17

C	0.0	0.0	0.0
C	-0.562892	0.041747	-1.43101
F	1.382899	0.0	0.0
H	-1.669318	0.05656	-1.243612
C	-0.425346	1.268416	0.727955
H	-1.51697	1.27606	0.720286
H	-0.046752	1.207656	1.753579
H	-0.004154	2.161108	0.25765
N	-0.498473	-1.215054	0.574046
H	-0.24071	-1.215414	1.556506
H	-1.526401	-1.069981	0.517156
N	-0.19616	-1.214786	-2.163085
O	-1.075643	-2.055948	-2.313282
O	0.965961	-1.319727	-2.554043
C	-0.072936	1.177167	-2.195558
N	0.286203	2.114623	-2.806237
F	-2.860057	0.0	0.0
