17

C	0.0	0.0	0.0
C	-0.530799	-0.010744	-1.465326
F	1.392634	0.0	0.0
H	-1.635259	-0.086637	-1.270932
C	-0.435519	1.306683	0.641348
H	0.040426	2.155646	0.147492
H	-1.523744	1.349925	0.581135
H	-0.112078	1.266792	1.683055
N	-0.502159	-1.086453	0.771718
H	-0.330897	-1.960574	0.285675
H	-1.526153	-0.911805	0.730747
N	-0.025493	-1.213764	-2.189685
O	0.892126	-1.076109	-2.998981
O	-0.542514	-2.292673	-1.896461
C	-0.169313	1.175106	-2.224997
N	0.083492	2.16543	-2.804689
F	-2.843661	0.0	0.0
