10
Coordinates from ORCA-job run
  C   -0.26763329265396      0.31193236944467     -0.30385880381098
  C   1.14227697359153     -0.19453667576031     -0.10055313182621
  Cl  -0.37492766818709      1.99219179963047      0.46894413029480
  H   1.87066235645171      0.50175048100218     -0.51455366580212
  H   -0.47303902545095      0.50916920859973     -1.35524604628319
  H   1.24372397795396     -1.16414322935611     -0.59160062182899
  H   1.35229899486689     -0.31264728663420      0.96488855611212
  N   -1.22938999983397     -0.59965797930655      0.19585435764914
  H   -2.17385923588778     -0.26833884883142      0.05205130846388
  H   -1.09111308085034     -0.77471983878847      1.18307391703154
