16

C	-0.613078	-0.004842	-1.399671
C	0.0	0.0	0.0
Br	0.097353	-1.457382	-2.492527
H	1.096648	0.0	0.0
C	-2.067397	-0.12697	-1.374503
N	-3.236089	-0.243777	-1.317026
N	-0.244101	1.310979	-2.086882
O	-1.166773	2.08269	-2.329248
O	0.93878	1.495013	-2.309188
N	-0.51774	-1.186322	0.715667
H	-0.060934	-1.137201	1.624171
H	-0.099273	-2.002393	0.273799
N	-0.450473	1.221741	0.629677
H	0.309621	1.580992	1.19192
H	-1.27268	1.057385	1.199605
F	2.6	0.0	0.0
