16

C	-0.619311	-0.027341	-1.400606
C	0.0	0.0	0.0
Br	0.158595	-1.407435	-2.518079
H	1.094902	0.0	0.0
C	-2.06045	-0.248393	-1.314988
N	-3.199729	-0.46745	-1.118878
N	-0.375443	1.313874	-2.086351
O	0.786687	1.637087	-2.254575
O	-1.368747	1.967707	-2.390249
N	-0.380003	-1.234523	0.664202
H	0.392617	-1.506084	1.25835
H	-1.218944	-1.129287	1.222321
N	-0.428099	1.256818	0.600865
H	-1.24381	1.144292	1.190531
H	0.345808	1.60531	1.152117
F	2.580102	0.0	0.0
