16

C	-0.603002	-0.031201	-1.405333
C	0.0	0.0	0.0
Br	0.112464	-1.507356	-2.462292
H	1.09662	0.0	0.0
C	-2.057474	-0.149434	-1.390769
N	-3.226711	-0.263604	-1.339288
N	-0.226393	1.271256	-2.114119
O	-1.142836	2.053198	-2.34613
O	0.954739	1.438223	-2.357835
N	-0.522035	-1.172706	0.734298
H	-0.057324	-1.116793	1.638706
H	-0.116899	-1.998732	0.29954
N	-0.450441	1.232933	0.604998
H	0.304286	1.596488	1.172991
H	-1.282004	1.080758	1.166309
F	2.600613	0.0	0.0
