16

C	-0.465939	0.028663	-1.450876
C	0.0	0.0	0.0
Br	-2.425766	0.025081	-1.64415
H	1.098471	0.0	0.0
C	0.023304	1.209343	-2.151833
N	0.399268	2.184298	-2.690504
N	0.10444	-1.208329	-2.158546
O	1.250091	-1.070884	-2.568696
O	-0.575494	-2.218798	-2.206235
N	-0.462238	-1.19767	0.638336
H	0.250909	-1.508124	1.285491
H	-1.343406	-1.044248	1.117355
N	-0.501538	1.22048	0.66741
H	0.012275	2.005958	0.269958
H	-0.135251	1.145529	1.61375
F	2.575848	0.0	0.0
