16

C	-0.492467	0.036493	-1.442237
C	0.0	0.0	0.0
Br	-2.456235	0.011926	-1.594069
H	1.098788	0.0	0.0
C	-0.036849	1.233805	-2.138171
N	0.288881	2.24158	-2.649254
N	0.079255	-1.183171	-2.176322
O	1.205702	-1.019593	-2.629669
O	-0.580369	-2.208644	-2.202056
N	-0.448672	-1.205142	0.637553
H	0.282249	-1.52373	1.260508
H	-1.312263	-1.048754	1.145602
N	-0.500942	1.20804	0.68997
H	-0.078018	1.146724	1.61434
H	-0.039959	2.010487	0.263689
F	2.578063	0.0	0.0
