16

C	-0.590306	-0.0202	-1.410827
C	0.0	0.0	0.0
Br	0.119576	-1.497482	-2.472302
H	1.096737	0.0	0.0
C	-2.045462	-0.118153	-1.41174
N	-3.217349	-0.204833	-1.372129
N	-0.187597	1.27932	-2.109076
O	1.003918	1.445649	-2.295398
O	-1.092849	2.056083	-2.398203
N	-0.534678	-1.167703	0.728948
H	-0.131118	-1.997451	0.299703
H	-0.080929	-1.113547	1.63781
N	-0.453017	1.236751	0.598231
H	0.300268	1.605667	1.163535
H	-1.283769	1.087859	1.159809
F	2.603257	0.0	0.0
