16

C	-0.513555	0.089061	-1.433836
C	0.0	0.0	0.0
Br	0.390577	1.500735	-2.419646
H	1.106116	0.0	0.0
C	-0.310193	-1.15949	-2.152186
N	-0.136716	-2.15926	-2.743272
N	-2.020268	0.386401	-1.42102
O	-2.747548	-0.599689	-1.331782
O	-2.383953	1.553503	-1.383086
N	-0.449816	-1.246216	0.575681
H	-1.235269	-1.079257	1.192487
H	0.322646	-1.64629	1.091709
N	-0.50626	1.149337	0.778868
H	0.159817	1.232221	1.544243
H	-0.379525	1.997899	0.233542
F	2.589652	0.0	0.0
