16

C	-0.515734	-0.023082	-1.440537
C	0.0	0.0	0.0
Br	0.369283	-1.409888	-2.489663
H	1.095773	0.0	0.0
C	-1.956908	-0.244634	-1.509386
N	-3.09928	-0.518026	-1.451119
N	-0.212893	1.29463	-2.15424
O	0.804935	1.880333	-1.829739
O	-1.007189	1.63762	-3.028183
N	-0.398207	-1.180351	0.740404
H	-1.247906	-1.61899	0.404466
H	0.368176	-1.838436	0.708345
N	-0.579669	1.223179	0.570291
H	-1.013371	0.955284	1.445543
H	0.202619	1.831438	0.790094
F	2.592925	0.0	0.0
