13

C	0.0	0.0	0.0
C	-0.500679	-0.201271	-1.42713
F	1.385377	0.0	0.0
H	-1.581579	-0.354069	-1.354082
H	-0.027077	-1.124265	-1.78446
C	-0.411783	1.295825	0.568602
N	-0.577931	2.360904	1.033295
C	-0.403062	-1.120488	0.872315
N	-0.531202	-2.08133	1.533922
N	-0.157066	0.9627	-2.226623
H	-0.992935	1.361013	-2.628796
H	0.499497	0.735092	-2.959273
Br	-3.64099	0.0	0.0
