13

C	0.0	0.0	0.0
C	-0.518858	-0.265395	-1.406718
F	1.385758	0.0	0.0
H	-1.610502	-0.306053	-1.315958
H	-0.14968	-1.259256	-1.694384
C	-0.407515	1.325087	0.502483
N	-0.613054	2.417238	0.882507
C	-0.402298	-1.068757	0.938432
N	-0.600593	-1.955344	1.681962
N	-0.082189	0.803443	-2.285892
H	-0.850565	1.115471	-2.860635
H	0.686384	0.516575	-2.873429
Br	-3.72368	0.0	0.0
