13

C	0.0	0.0	0.0
C	-0.503471	0.29555	-1.4059
F	1.383096	0.0	0.0
H	-0.155215	1.306286	-1.659297
H	-1.595965	0.303707	-1.34252
C	-0.409147	1.035893	0.968121
N	-0.588829	1.878373	1.76544
C	-0.404452	-1.341094	0.464115
N	-0.56652	-2.439224	0.84601
N	-0.02533	-0.743173	-2.301907
H	-0.755967	-1.010894	-2.944214
H	0.788011	-0.447434	-2.821408
Br	-3.668525	0.0	0.0
