13

C	0.0	0.0	0.0
C	-0.518613	-0.401494	-1.38647
F	1.38539	0.0	0.0
H	-1.428573	-0.988589	-1.246483
H	0.275153	-1.025314	-1.81168
C	-0.414352	1.346374	0.432478
N	-0.549139	2.455706	0.792949
C	-0.376375	-1.013653	1.010993
N	-0.478467	-1.873043	1.804484
N	-0.718697	0.787957	-2.2045
H	-1.630531	1.153936	-1.934483
H	-0.802885	0.498959	-3.171237
Br	-3.486263	0.0	0.0
