13

C	0.0	0.0	0.0
C	-0.499279	0.22193	-1.424715
F	1.385271	0.0	0.0
H	-0.042752	1.160717	-1.761477
H	-1.583283	0.348614	-1.358053
C	-0.413595	1.099705	0.892907
N	-0.529097	2.051434	1.572365
C	-0.407663	-1.309345	0.541147
N	-0.565973	-2.386773	0.978349
N	-0.125034	-0.919372	-2.242879
H	0.560232	-0.675013	-2.943213
H	-0.943728	-1.307542	-2.690069
Br	-3.641337	0.0	0.0
