13

C	0.0	0.0	0.0
C	-0.508471	-0.208112	-1.436484
F	1.381341	0.0	0.0
H	-1.358785	0.457259	-1.591979
H	0.329517	0.09906	-2.071093
C	-0.387581	1.333254	0.510709
N	-0.458078	2.443491	0.887651
C	-0.414078	-1.05247	0.946255
N	-0.537611	-1.899904	1.749493
N	-0.821421	-1.611394	-1.661088
H	-0.857824	-1.776577	-2.660492
H	-1.765857	-1.741451	-1.298665
Br	-3.449905	0.0	0.0
