14
Coordinates from ORCA-job run
  C   -0.62013289342740      1.30048570632460     -0.00359916646942
  C   0.00408587898940     -0.01296287824596      0.42287329094366
  F   -0.65402932181876      1.38606883192152     -1.39491974325966
  H   -0.00400322822302     -0.00741442414684      1.52170074025675
  H   -1.65130632188999      1.38562181451613      0.35222050984023
  H   -0.04012229862658      2.15394141226110      0.36023440147303
  C   1.45036275158382     -0.11011003257359     -0.05678141293047
  H   1.49096646442258     -0.08445431544655     -1.14768640250148
  H   2.05298313872613      0.71966864613653      0.32329518800324
  H   1.91080470138007     -1.04228526190415      0.27927221204596
  C   -0.82689387437435     -1.19603935938259     -0.06805948987979
  H   -1.85401481807567     -1.14341669157733      0.30395653019572
  H   -0.39510743424831     -2.14188327184613      0.26784130525147
  H   -0.86359274441791     -1.20722017603675     -1.15934796296924
