12
Coordinates from ORCA-job run
  C   0.81058599677074     -0.52231141564309     -0.18286595704679
  C   -0.43687151329734     -0.00897077515570     -0.14155482093026
  H   0.96323002222144     -1.49883055501712     -0.62368395631492
  N   1.93982060140423      0.19516499406023      0.19624612849228
  H   1.79297522816167      0.81639466386141      0.97976631165947
  H   2.75622188211021     -0.37868166151627      0.33265834678233
  N   -1.55590595611664     -0.86976583425365     -0.51148973998357
  O   -2.67658840158070     -0.44731099993336     -0.21997143250165
  O   -1.32703376507956     -1.95946086531914     -1.03382908059294
  N   -0.79617772377676      1.30147525710136      0.14533819609145
  H   -1.44973538997178      1.42755598557133      0.90222855414526
  H   -0.02152098084552      1.94474120624401      0.15715745019933
