12
Coordinates from ORCA-job run
  C   0.68658602992992     -0.57224070405326      0.55237328065930
  C   -0.34444854378732     -0.02060582838946     -0.12798046366421
  H   0.60990137096119     -1.58915730911632      0.91806934831152
  N   1.80772116731751      0.12865447234708      0.87475498181662
  H   2.64467511012828     -0.39492956446308      1.06226905476661
  H   1.92139118310785      0.99641597455972      0.37133325333686
  N   -1.53798438625636     -0.82152874954294     -0.36968160950823
  O   -1.59319878516086     -1.96796837682858      0.07483685349504
  O   -2.42943565236832     -0.28286728447810     -1.03357013391985
  N   -0.28427681517856      1.29961949616523     -0.61379607240703
  H   -0.93448371427412      1.89834401626899     -0.11682815893788
  H   -0.54744696441921      1.32726385753072     -1.59178033394873
