12
Coordinates from ORCA-job run
  C   0.99524603821455      0.28684499007064      0.21595761543078
  C   -0.32242374755475      0.32709273869132     -0.13075187553259
  H   1.47425054218020      1.25965377849528      0.26270540726770
  N   1.79279392956908     -0.77755306944631      0.44928999113003
  H   1.35583500402006     -1.67993298404215      0.54398102438737
  H   2.68238929971640     -0.61941327860371      0.88604900770416
  N   -1.10972748493946     -0.88482808784763     -0.21447965200966
  O   -0.55833915249145     -1.97306553809211      0.01506964246176
  O   -2.30197282246062     -0.76862952439097     -0.50905130717203
  N   -0.95230633231392      1.55828399677660     -0.39481201334455
  H   -1.30787391810724      1.58220541748556     -1.34330799716565
  H   -1.74687135583284      1.69134156090350      0.21935015684268
