12
Coordinates from ORCA-job run
  C   0.87078883006109      0.27944274226115      0.45831592855957
  C   -0.26481199279216      0.32007307301500     -0.26893291163078
  H   1.39844923430846      1.22653914281203      0.55777299574528
  N   1.37113949889385     -0.83861683718466      1.13395490784060
  H   2.16205482065655     -0.60266457802023      1.71190127745980
  H   1.57190402514789     -1.63106332700694      0.54359406589906
  N   -1.02972075450102     -0.90657697414444     -0.48818317375000
  O   -0.41554995710234     -1.97177246091144     -0.50393699226655
  O   -2.23896305627584     -0.77864983642282     -0.71163750574615
  N   -0.79115030617089      1.46600226205994     -0.88917763450054
  H   -0.96087752073517      2.19959772158442     -0.21242669093663
  H   -1.67326282149040      1.23868907195799     -1.33024426667367
