12
Coordinates from ORCA-job run
  C   0.80653086450917     -0.55070915651499     -0.09812767482206
  C   -0.43143074299176     -0.01633853251972     -0.15742147075381
  H   0.95689644581948     -1.56827515901122     -0.43466247245803
  N   1.93386253304623      0.18273927097654      0.25529449678363
  H   2.73362355215102     -0.38761719502249      0.47785384657907
  H   1.76916869777915      0.87808959033457      0.97000968543387
  N   -1.55202158151453     -0.89036996738341     -0.48729363724915
  O   -1.32559023281490     -2.02995759194105     -0.89061913744047
  O   -2.67427520187673     -0.42246663361325     -0.28456966606072
  N   -0.77427440719554      1.32226797149352     -0.01627443044401
  H   -1.45583406212500      1.53321445563534      0.69576132593545
  H   0.01434413521342      1.94842294756615     -0.03095086550377
