12
Coordinates from ORCA-job run
  C   0.72619486390351     -0.53228494875648      0.54172269499114
  C   -0.34373355054456     -0.04159719515258     -0.12524893373378
  H   0.71851388472877     -1.55593265311491      0.89646482673297
  N   1.80154017624063      0.23665244813553      0.86466175858833
  H   2.67234745493745     -0.23265260876319      1.04137348357484
  H   1.85454315939467      1.11505243027822      0.36962926486261
  N   -1.48363150174415     -0.91635031482423     -0.36922598874376
  O   -2.41145868441754     -0.43072471397150     -1.02416766765751
  O   -1.46208810019784     -2.06779120047270      0.06512466120730
  N   -0.37216407053947      1.28464644646260     -0.59726396464166
  H   -1.05570547610204      1.83556816755474     -0.08984544264270
  H   -0.64335815565942      1.30541414262450     -1.57322469253777
