12
Coordinates from ORCA-job run
  C   0.77535111400699     -0.50095992084434      0.46405234326355
  C   -0.35392762364216     -0.06389002399779     -0.13633286424900
  H   0.84595349148543     -1.52928876379580      0.79530038216790
  N   1.86056423845541      0.33036154090497      0.64952561516159
  H   1.60180145335139      1.30639457002845      0.69274487088697
  H   2.48325174955259      0.01570009272811      1.37475784169277
  N   -1.46552018337426     -0.98771072138039     -0.30259677446542
  O   -2.55551930944993     -0.48126089710157     -0.58638520239695
  O   -1.31492275848638     -2.17190267706046      0.00113863378275
  N   -0.44896397267963      1.23532071883076     -0.65942546135081
  H   -1.40928091160788      1.54157503977416     -0.72061526657477
  H   -0.01778728761155      1.30366104191389     -1.57116411791858
