12
Coordinates from ORCA-job run
  C   0.92809267213362      0.31220034428167      0.26541423659244
  C   -0.36663655066025      0.28150988289253     -0.15462609386516
  H   1.37696282847755      1.29933802860096      0.34633742190169
  N   1.72443639940870     -0.71646412953873      0.69076403346265
  H   2.71388167706392     -0.53942058985464      0.66791872152402
  H   1.42719960404804     -1.63979941630503      0.41791107434429
  N   -1.06625203221060     -0.95793482946303     -0.33153474080719
  O   -2.25250291825084     -0.89776132468810     -0.67695499249712
  O   -0.46165805554462     -2.02194802632223     -0.12396536693612
  N   -1.09155106447208      1.41575943626053     -0.57101396400514
  H   -2.08404074766490      1.23383641258995     -0.50627153729508
  H   -0.84693181232852      2.22868421154611     -0.02397879241927
