12
Coordinates from ORCA-job run
  C   0.89630075067794      0.26364478603979      0.49677477657405
  C   -0.28897596342905      0.33834376397541     -0.17238905552069
  H   1.37145927610374      1.22372263485200      0.67097008541546
  N   1.52497264359629     -0.81226536356559      1.01608074591866
  H   2.48060881791376     -0.71360947380770      1.30591607129293
  H   1.18157241387405     -1.72503699122943      0.76521462216209
  N   -1.03754881867937     -0.85543555714229     -0.50188452605672
  O   -2.08953016913168     -0.71127579559598     -1.12996756843074
  O   -0.59163168297249     -1.95809671925180     -0.14627961479757
  N   -0.80087643427560      1.58655018870607     -0.57593147668964
  H   -1.70510645830645      1.75639820754473     -0.15140898254832
  H   -0.94124437537113      1.60606031947480     -1.57909507731952
