12
Coordinates from ORCA-job run
  C   0.65842159200803     -0.43386317119867      0.69477923496982
  C   -0.35380233021743     -0.01610575580125     -0.09966050871810
  H   0.49329493205136     -1.23791050387479      1.40189306293305
  N   1.87717008070455      0.17143682810292      0.70435916171564
  H   2.04843754429026      0.78437429693802     -0.07948217728221
  H   2.66013457946442     -0.36418717985127      1.03571572376350
  N   -1.64973988958172     -0.67461191105258      0.00524146157456
  O   -1.80273705042613     -1.57314412832822      0.83237962561505
  O   -2.52395741394263     -0.28217839109883     -0.77409394207956
  N   -0.17903166238762      1.02955814587081     -1.02631359167208
  H   -0.71260064984466      1.84778653701838     -0.75436535054467
  H   -0.51458973211842      0.74984523327548     -1.94045270027499
