12
Coordinates from ORCA-job run
  C   0.84201146747578      0.33175670844311      0.41066908436252
  C   -0.31522759546098      0.24110527555153     -0.30043322362592
  H   1.23241575324858      1.33524955176264      0.56421427977842
  N   1.65910024648119     -0.67192036798360      0.86268831113051
  H   1.24649443412348     -1.59184898172769      0.87168957159084
  H   2.23878174495071     -0.43788223965047      1.65070843233018
  N   -0.99586653144849     -1.01432311461144     -0.47052255531957
  O   -2.14432857388011     -0.97094291982596     -0.92080430991682
  O   -0.42560084254112     -2.05889895154748     -0.11969221854428
  N   -0.93654745935290      1.30115127059170     -0.97893146957197
  H   -1.92564035888005      1.35429224250566     -0.77608453979526
  H   -0.47659228471609      2.18126152649198     -0.79650136241865
