12
Coordinates from ORCA-job run
  C   0.78160983148559     -0.56431943934553      0.41838761457759
  C   -0.36454103952371     -0.01462066465949     -0.04453777417991
  H   0.76610915962738     -1.55455665957265      0.85764612760058
  N   1.96336962456156      0.11055139687123      0.42962808965362
  H   2.80836683559284     -0.43252715441983      0.45656950766598
  H   1.97886966851898      0.94197061981345     -0.14294404819250
  N   -1.60080774572840     -0.78192208463510      0.04726223322108
  O   -2.60875442725725     -0.24752622234370     -0.42603422208536
  O   -1.57899351296077     -1.89830144665999      0.56496491375546
  N   -0.38655187870512      1.27081476491663     -0.61815859593964
  H   -0.86160481047014      1.24976414930838     -1.51279498875526
  H   -0.89507170514096      1.92167274072662     -0.02998885732162
