12
Coordinates from ORCA-job run
  C   0.68663547457767     -0.41737604865172      0.56539386114096
  C   -0.42817433065654     -0.02365681989227     -0.08172276623628
  H   0.65538604871049     -1.22835398360353      1.28289660847883
  N   1.89409996410320      0.25873374079792      0.26678454118153
  H   2.70108572017873     -0.26059978387845      0.57879237606374
  H   1.92193429583377      1.19095647523757      0.66301103234451
  N   -1.69495102822918     -0.69331701196987      0.19666706188208
  O   -1.76583130451344     -1.43820208114167      1.17067808535639
  O   -2.60746002064251     -0.49151783988842     -0.60936836811839
  N   -0.50460239221409      1.02801305300529     -0.97754881755808
  H   0.39891938365020      1.17161514447309     -1.41400478788656
  H   -1.25604181079831      0.90370515551207     -1.64157882664873
