12
Coordinates from ORCA-job run
  C   0.67324306390943     -0.29520309355176      0.75108915061786
  C   -0.35980500636808     -0.01514817353293     -0.07645881783146
  H   0.50518697015817     -0.88117538870622      1.64668470980361
  N   1.92541574176228      0.19726253933014      0.54797083412799
  H   2.69330911361921     -0.29521013877767      0.96930354237251
  H   2.08408031876211      0.57742523999356     -0.37379584542243
  N   -1.68555411054325     -0.52142588336871      0.25452110740867
  O   -1.84084314522223     -1.16972974976635      1.28925464983717
  O   -2.58231127354882     -0.27025972418627     -0.55692642457278
  N   -0.17965820387072      0.74847710072083     -1.24581808685128
  H   -0.59415495034094      0.27711485060462     -2.04110118933907
  H   -0.63890851831716      1.64887242124076     -1.16472363015079
