12
Coordinates from ORCA-job run
  C   1.02589401670177      0.25285170441545      0.01735537171460
  C   -0.33030079056604      0.33073441439689     -0.10441060375283
  H   1.54441214805210      1.18333173936136     -0.19062260455090
  N   1.79438429810800     -0.78584279430423      0.39861366537594
  H   1.36375575994067     -1.68995148853059      0.49994225323611
  H   2.79037580197036     -0.72295798530186      0.30013547128156
  N   -1.16561713261919     -0.82774004275785      0.12576291854985
  O   -0.62740358730053     -1.89465015392681      0.46334548927631
  O   -2.38488572382644     -0.68432151590487      0.00117579337984
  N   -0.94342752857544      1.54549917169152     -0.46555719730479
  H   -1.57487506342849      1.85942847919980      0.26184272112290
  H   -1.49431219845679      1.43161847166120     -1.30758327832860
