12
Coordinates from ORCA-job run
  C   0.89998101554437      0.32439610304913      0.31005242856888
  C   -0.37640554977525      0.29180655928119     -0.13492413825277
  H   1.38553160753974      1.29515067253026      0.35846416531100
  N   1.63685204811508     -0.72866280191355      0.85150706902016
  H   2.63123911756366     -0.58385439439728      0.76283227615283
  H   1.36959514499334     -1.62558962224720      0.47165825531272
  N   -1.12449673102124     -0.95368863158024     -0.13142704600643
  O   -0.48426753293295     -1.99935570891823     -0.29808170345624
  O   -2.33773083766270     -0.89497534149581      0.05453184396910
  N   -1.16984112967757      1.41279282933762     -0.42954057552921
  H   -1.82559037825316      1.24049926132937     -1.17889384678705
  H   -0.60186677443333      2.22148107502472     -0.63717872830301
