12
Coordinates from ORCA-job run
  C   0.88609779306998      0.33575732706481      0.46815813255942
  C   -0.27341241866836      0.30404571816218     -0.25040098988542
  H   1.36552759066923      1.30885917351038      0.50003317297040
  N   1.50364986378662     -0.65246099269386      1.14075710278448
  H   1.11715295809781     -1.58103885254871      1.11779539096738
  H   2.38322233739578     -0.48022864289599      1.58913248805702
  N   -1.03014665226363     -0.91882264211683     -0.39082419701780
  O   -0.60662129186559     -1.95085419752112      0.15537949585661
  O   -2.06940426578672     -0.87237280148271     -1.05452190851038
  N   -0.75551147883855      1.47172312670413     -0.87290455176743
  H   -1.68145566905301      1.70097850468552     -0.53135458727130
  H   -0.83909876654354      1.33441427913220     -1.87324954874299
