12
Coordinates from ORCA-job run
  C   0.66700779850672     -0.37791629999030      0.71826919868960
  C   -0.35995528938563     -0.00211108728319     -0.07813724289843
  H   0.48977690855885     -1.05684390926152      1.54374404149052
  N   1.92308341471961      0.12657649847020      0.57837936404426
  H   2.68550228817068     -0.41468312309895      0.94651570192296
  H   2.09022442177396      0.60432590130456     -0.29528289557371
  N   -1.68905165881866     -0.53915948751717      0.18583484030714
  O   -1.85349873633269     -1.29393786090911      1.14405220898402
  O   -2.57891273366310     -0.19963481392962     -0.60059829860830
  N   -0.16985595272518      0.88159892937091     -1.15759110251176
  H   -0.62578892441960      1.77042034485308     -0.98352658150149
  H   -0.58053153638495      0.50036490799111     -2.00165923434481
