12
Coordinates from ORCA-job run
  C   0.75532590292314     -0.50796058498132      0.36793734226319
  C   -0.44147531489419     -0.08629684114875     -0.09158818901985
  H   0.92496369926483     -1.56898578386130      0.49696656649480
  N   1.74690737296237      0.36107304007389      0.81043262562826
  H   2.65152771357277     -0.07190836953861      0.90337212338595
  H   1.80571110301424      1.22336165365736      0.28653165605873
  N   -1.38919893391829     -1.08190327767487     -0.58186302783917
  O   -1.15997754111965     -2.27442379261811     -0.38759791966197
  O   -2.35103053470371     -0.64063326198314     -1.21388654737192
  N   -0.93192418516303      1.21284143140735     -0.08458248952250
  H   -0.38620097773649      1.85297150955691      0.46891271292245
  H   -1.22462830420201      1.58186427711060     -0.97563485333797
