12
Coordinates from ORCA-job run
  C   0.67354202600190     -0.55894171542107      0.53939179616015
  C   -0.29649136803468     -0.01414363494775     -0.23116334812749
  H   0.51743029697100     -1.52782312684540      0.99780056785438
  N   1.81182534672855      0.11992049718768      0.89786251048521
  H   2.11389403243692      0.82618952160609      0.24547680116808
  H   2.55799500386252     -0.46191192776111      1.24274623188240
  N   -1.54663056615011     -0.78244172021699     -0.35026528872172
  O   -2.53740766310129     -0.15254555978222     -0.73214192643879
  O   -1.56091932093274     -1.96013844291523      0.00284124615404
  N   -0.28557960478821      1.32859473118578     -0.65313678215686
  H   -0.33249812217421      1.39505959246013     -1.66423272019533
  H   -1.11516006081964      1.78718178545009     -0.29417908806408
