12
Coordinates from ORCA-job run
  C   0.78920855324463     -0.34985410769835      0.59869810676859
  C   -0.36417533830460     -0.03854461216721     -0.03614029883441
  H   0.79043936254492     -1.10402374142400      1.37650456157415
  N   1.95680423274341      0.30597680454966      0.35670575861802
  H   2.81256825382128     -0.16862718823730      0.58504300958460
  H   1.96047623782905      0.86313083856417     -0.48526134323268
  N   -1.58465579344831     -0.74375085859472      0.33434315536274
  O   -2.59757481388676     -0.45325820164438     -0.31011625709331
  O   -1.54576101702133     -1.58083731240906      1.23586268409827
  N   -0.40776176334212      0.94021082732537     -1.04750828939681
  H   -0.93066404417496      1.75332491881420     -0.74153124020925
  H   -0.87990387000523      0.57825263292164     -1.86759984723992
