12
Coordinates from ORCA-job run
  C   0.79892836912012     -0.60362680011952      0.24069201656005
  C   -0.38229838351369     -0.03803161851429     -0.09823978070877
  H   0.89988813809956     -1.68177491527057      0.25326684980849
  N   1.91991564503422      0.13907948116407      0.48784865439973
  H   2.63304301491651     -0.29671775548612      1.04716861982178
  H   1.73163691289521      1.10997514400315      0.69424600430317
  N   -1.51618339245648     -0.92106262383232     -0.39925698905343
  O   -2.58817184649954     -0.36537411945728     -0.64791175861237
  O   -1.35140025609547     -2.14020310414632     -0.35826907474431
  N   -0.53424237555512      1.32843786382816     -0.25264843791130
  H   -1.33043168491209      1.75850371000389      0.18127423370855
  H   -0.28068414103324      1.71079473782717     -1.14717033757158
