12
Coordinates from ORCA-job run
  C   0.86841662734771     -0.49420273215055      0.32483586192823
  C   -0.33874033222891     -0.07773731195067     -0.12208261870226
  H   1.10338725806418     -1.55177851640770      0.33745315838707
  N   1.79096779182853      0.36107352165309      0.84371972369841
  H   2.75192231711065      0.06715342418362      0.83549070089152
  H   1.61642583060776      1.33650418137163      0.64991171649784
  N   -1.29522132388646     -1.06980656794026     -0.59650633966499
  O   -2.36327510680955     -0.63003036563529     -1.03385633074330
  O   -0.99626619330452     -2.26293183417442     -0.55202126713192
  N   -0.68215895457155      1.28752134663373     -0.15008285520859
  H   -1.41068218054518      1.49255658752816      0.52469317398802
  H   -1.04477573361264      1.54067826688865     -1.06155492394003
