12
Coordinates from ORCA-job run
  C   0.69853019496120     -0.45876563406895      0.63729237771768
  C   -0.34046188347766     -0.05442229109672     -0.12892401131425
  H   0.59577614807560     -1.33299766820438      1.26887349388574
  N   1.91735175533349      0.14535252666476      0.59287625408513
  H   1.92188806163841      1.04908153675035      0.14251514525073
  H   2.51764362456950      0.03922452618936      1.39177829292450
  N   -1.59123303062196     -0.80025204970643     -0.07054862277165
  O   -2.52145099476601     -0.35648086946912     -0.75127770006955
  O   -1.66280393103444     -1.79972620355830      0.64413571058926
  N   -0.24313923705098      1.07361804749850     -0.96591571904834
  H   -0.26096667529149      0.80294719895650     -1.94295509726574
  H   -1.03213403233565      1.69142088004442     -0.81685012398352
