12
Coordinates from ORCA-job run
  C   0.66261342319171     -0.40437856958230      0.70842784323934
  C   -0.35352092357748     -0.02312777493482     -0.09919912871840
  H   0.50807411967243     -1.19389258725352      1.43404394537630
  N   1.87109310708049      0.22160342158035      0.70756013773760
  H   2.03584007451268      0.81655331904466     -0.09142571722285
  H   2.66137728247936     -0.29383161971060      1.05340584800565
  N   -1.63767932841022     -0.70344360897362      0.01578511847737
  O   -2.51471805325211     -0.34710566021809     -0.77760058398116
  O   -1.77840277055282     -1.58364889369568      0.86449123309727
  N   -0.19308123889293      1.00074527979165     -1.05212368381978
  H   -0.52270383880319      0.69263308695762     -1.95923680244107
  H   -0.73889185344791      1.81789360699435     -0.80212820975028
