12
Coordinates from ORCA-job run
  C   0.86440638884712      0.28178064261397      0.35562503078528
  C   -0.32251525216279      0.25165620942382     -0.30497591603300
  H   1.34840958477130      1.24776387253583      0.47800646356132
  N   1.61950460185011     -0.75698216675794      0.82739215159075
  H   2.30041938506241     -0.53205049722824      1.53081064567453
  H   1.20075165299938     -1.66745072010682      0.90190320335527
  N   -1.10356604468175     -0.96389028800166     -0.36926417217663
  O   -2.26457764067275     -0.85042500462165     -0.76972297763794
  O   -0.58838028408965     -2.02524874276208      0.00669621911869
  N   -0.91759863106361      1.32489346941198     -0.97530175148938
  H   -1.83071098644616      1.56981426664562     -0.62384774842406
  H   -0.30614277441361      2.12113895884717     -1.05732114832482
