12
Coordinates from ORCA-job run
  C   0.87639427555577      0.30523274255968      0.41634350371378
  C   -0.30531021822516      0.27669421350048     -0.25943934137112
  H   1.36688252599247      1.27426582430991      0.46983531016652
  N   1.49443021676609     -0.69136201327828      1.12176819540840
  H   1.19474225661357     -1.62871758030371      0.90483172770780
  H   2.47826309907337     -0.56292691728458      1.28476870285892
  N   -1.03372904970081     -0.94557411783047     -0.44006012384044
  O   -2.11201412963070     -0.88293529800108     -1.04331722609528
  O   -0.55914786482963     -1.99837321934209      0.01507771505506
  N   -0.85126580237772      1.38328098324348     -0.93992327847041
  H   -0.71286725533256      2.23846941797992     -0.42098234705792
  H   -1.83637805390469      1.23094596444673     -1.10890283807531
