12
Coordinates from ORCA-job run
  C   0.87070072407815     -0.58831539436566     -0.02173941519828
  C   -0.35355027351817     -0.01798375827000     -0.09969496642038
  H   1.00818671500467     -1.61659692958854     -0.33399215782626
  N   1.97659327103565      0.10488992602636      0.36520691816421
  H   1.78084640266622      0.98630872115581      0.81747045667885
  H   2.74977632945508     -0.42341984529746      0.73008244823269
  N   -1.47109576979813     -0.81248794549597     -0.59387865259257
  O   -1.27177543404268     -1.97240474833438     -0.95408105821317
  O   -2.57305526544728     -0.25459969036181     -0.60320766468020
  N   -0.56993379908786      1.31750110488796      0.29047292261790
  H   -1.36512346197804      1.37703711801604      0.91542714620521
  H   -0.78156943836759      1.90007144162765     -0.51206597696799
