12
Coordinates from ORCA-job run
  C   1.03249858822502      0.17820259291256      0.14596566699790
  C   -0.26602784445433      0.30978895572980     -0.24832697764794
  H   1.67027357796238      1.01140945866717     -0.13126411627704
  N   1.63931511292308     -0.84777778598563      0.77776183146130
  H   1.06332860737607     -1.58443395393215      1.15088019449328
  H   2.56152759372800     -0.70948937594668      1.14770881805776
  N   -1.24697637775348     -0.70763125984574      0.06097986597397
  O   -2.40740325644607     -0.50938733032033     -0.30822764399277
  O   -0.88371944126927     -1.72013362159873      0.68105798770146
  N   -0.68245921379560      1.45407185608482     -0.95548568883337
  H   -1.42742900199162      1.92824944699831     -0.45885983710786
  H   -1.05292834450417      1.19813101723657     -1.86319010082668
