12
Coordinates from ORCA-job run
  C   0.73979115854550     -0.56872088686498      0.31760613025354
  C   -0.41722490312416     -0.02306612798177     -0.10898730077381
  H   0.82196628219407     -1.63784327365038      0.46535025317777
  N   1.83622228299685      0.28682877762616      0.53930582736048
  H   2.69280047743830     -0.22671675768104      0.68746488848596
  H   1.69186853076231      0.93969123546144      1.30060691546801
  N   -1.55885816051341     -0.90068015124391     -0.35329562754149
  O   -1.50537516964686     -2.06756935571705      0.02555418674443
  O   -2.48303885936128     -0.41489674801024     -1.01527018408531
  N   -0.64637758874261      1.33037046984062     -0.30616269002581
  H   0.21870243005150      1.78481561486891     -0.58064231983225
  H   -1.39047648060020      1.49678720335224     -0.97053007923151
