12
Coordinates from ORCA-job run
  C   0.74055130552027     -0.54058142788986      0.51350890370916
  C   -0.36031633429386     -0.01664026574182     -0.07302739788986
  H   0.68225073914510     -1.50298599043148      1.00760678549253
  N   1.92187906543459      0.13131022810088      0.58154505818787
  H   1.98964631148546      0.92761312701656     -0.03545604506079
  H   2.75845623158649     -0.41022150867874      0.71033900374243
  N   -1.60455254145364     -0.77464754913094     -0.04008849663724
  O   -2.56482203754764     -0.26997543539891     -0.63075583359636
  O   -1.63485320598590     -1.85619557194955      0.54667796191039
  N   -0.32529608313786      1.23300549673440     -0.72114534177727
  H   -0.87195612110327      1.91980038213316     -0.21346609126087
  H   -0.73098732964973      1.16051851523630     -1.64673850682000
