12
Coordinates from ORCA-job run
  C   0.73196418176377      0.27405392950040      0.61032463982035
  C   -0.28225507202853      0.28258769446562     -0.29708436029645
  H   1.00832960395526      1.24022445786662      1.02639354943246
  N   1.54328159184757     -0.76326910690015      0.99080014683132
  H   1.96420029017820     -0.67326311271860      1.89996983312046
  H   1.21140124200292     -1.68296732795821      0.74469737413686
  N   -0.82520712025859     -0.93944737690674     -0.82909777380200
  O   -0.23653808516800     -2.00692221401783     -0.59882985586663
  O   -1.88852387197009     -0.85490936660183     -1.44937619363835
  N   -0.86534612613619      1.43150042760350     -0.85346585159541
  H   -0.48575265392323      2.27583604471227     -0.45073841029276
  H   -1.87455398026310      1.41657595095495     -0.79359309784986
