12
Coordinates from ORCA-job run
  C   0.59456520508326     -0.32722193633216      0.71062534699309
  C   -0.44946984236759     -0.02783002986054     -0.09080010657594
  H   0.47750059247258     -1.09719749923742      1.46211500939963
  N   1.78184305086009      0.39650037065987      0.71092569908264
  H   2.06279297355752      0.73147324302053     -0.20028889629904
  H   2.54086061371167     -0.07165943061444      1.17904434461510
  N   -1.62678576675857     -0.88934408875326     -0.05204955509690
  O   -1.72447880975015     -1.73170571392175      0.83866814788812
  O   -2.43405118958519     -0.73513269909829     -0.97074345395592
  N   -0.57559802991189      1.07494418225536     -0.92450793147542
  H   -0.75727406544232      0.88288892544002     -1.89687912978729
  H   0.11109526813059      1.79328467644207     -0.76310947478805
