12
Coordinates from ORCA-job run
  C   0.82533229555570     -0.49999565217373      0.41576006573358
  C   -0.35146816614952     -0.06365380601527     -0.08914869871299
  H   0.89433495245066     -1.49339576817612      0.84257038784883
  N   1.96935023397209      0.23323572356584      0.34124745963922
  H   2.69650953139954      0.02879728093115      1.00397497470116
  H   1.83117874543860      1.20586763744600      0.10810846296757
  N   -1.51259694664477     -0.94243576002153     -0.03013369204471
  O   -1.38953468314967     -2.07094567360283      0.44555016403446
  O   -2.57116858191555     -0.47480537225739     -0.46194806375574
  N   -0.47907491958996      1.21856671183692     -0.65675348562737
  H   -0.63545433950216      1.15847958633555     -1.65681834895350
  H   -1.27840812186496      1.70028509213140     -0.26240922583051
