12
Coordinates from ORCA-job run
  C   0.77309394860067     -0.60289861916490      0.37812042597908
  C   -0.34690606872340     -0.02993375110415     -0.11956441896932
  H   0.82555517644690     -1.67930088334618      0.48917223558780
  N   1.83033381145345      0.12750565253267      0.82571989227541
  H   2.72729237513153     -0.32422275789567      0.85880306993276
  H   1.82298429551986      1.09695377224044      0.54396076782075
  N   -1.46086303220110     -0.88422039814996     -0.51157664780549
  O   -2.43833752669005     -0.31164000651667     -1.00375823083854
  O   -1.37138442422946     -2.10115917696521     -0.35061193190452
  N   -0.45415101213291      1.36554932607190     -0.27339950272375
  H   -1.13509140552315      1.75015190502923      0.37199152533247
  H   -0.77252613765236      1.59321493726851     -1.20785718468665
