12
Coordinates from ORCA-job run
  C   0.90513692588265     -0.53238992373296     -0.01567910782124
  C   -0.36360654360344     -0.06154478289580     -0.01688661771113
  H   1.08852876899017     -1.59063380741531     -0.15779492123581
  N   1.97882110186662      0.26307649453824      0.23510320796777
  H   2.87896317249579     -0.04509102447033     -0.08690267610056
  H   1.79299652906232      1.25417801045746      0.19010272417057
  N   -1.46140297398452     -0.99640978951676     -0.22440404077916
  O   -2.59591097874901     -0.50822158926689     -0.24018718642863
  O   -1.21203639110646     -2.19064552991898     -0.38811497987364
  N   -0.64105578038271      1.30512992040916      0.17787877827563
  H   -1.26996979016969      1.64394677803870     -0.54049008836592
  H   -1.10146404030174      1.45760524377346      1.06837490790212
