12
Coordinates from ORCA-job run
  C   0.68753639112759     -0.44943926164575      0.65502895434936
  C   -0.34097380557004     -0.05236670598407     -0.12915412492116
  H   0.56730761771058     -1.30262548659841      1.31182047156483
  N   1.91510683641400      0.13470132018134      0.60093963379651
  H   1.93912592614487      1.02316190347678      0.12206686265414
  H   2.51308607117112      0.03896279264017      1.40270016894310
  N   -1.60254985345106     -0.77834875806552     -0.05727608092527
  O   -1.69469112565389     -1.75200665934467      0.69003536067788
  O   -2.52017700716839     -0.34546831869589     -0.76173405910461
  N   -0.22192360239695      1.04896447725215     -0.99832902776876
  H   -0.24496782889719      0.75045883712300     -1.96710545544100
  H   -0.99887961943063      1.68600585966086     -0.86799270382502
