13
Coordinates from ORCA-job run
  C   -0.44963335525481     -0.22952954197608      0.40979127570310
  C   0.78095980759842      0.03788222403006     -0.45465164333997
  Br  0.00926781936153     -0.23806912849600      2.27387503035234
  H   1.51728104204489     -0.75160137474339     -0.30847130024796
  H   0.48139968807492      0.11357346776546     -1.50141491334734
  C   -1.56555739730977      0.67047324706762      0.16873754349420
  N   -2.50499289074035      1.35229793420842     -0.02075398987134
  N   -0.92374793708880     -1.64701557707230     -0.05327972402124
  O   -0.84721082721100     -2.58012250057994      0.72192078092627
  O   -1.30358287119584     -1.66043587491636     -1.21677479933617
  N   1.43938821525604      1.32626777175067     -0.08630174214890
  O   0.71478827897218      2.31388807046005     -0.02737950104353
  O   2.65164042749258      1.29139128250182      0.09470298288052
