13
Coordinates from ORCA-job run
  C   -0.58368838686491     -0.17557243950581      0.49706323676977
  C   0.78354272975414      0.47804804952819      0.51613712260301
  Br  -1.08308210514182     -0.53908086726051      2.34106214052984
  H   0.75613107298044      1.41677401756628      1.06883968359123
  H   1.51897878018004     -0.19497085725642      0.95513302417851
  C   -1.60681634230472      0.64660787282213     -0.12365172625426
  N   -2.41712749390701      1.36848644307521     -0.57622257588666
  N   -0.51631138149194     -1.54388890632217     -0.20598399361058
  O   -1.52295438952237     -1.90255161848533     -0.79240461719060
  O   0.52914728097471     -2.15719559753294     -0.06106709211673
  N   1.25743582016241      0.79473501439733     -0.87068531032663
  O   2.26177828563040      1.48933603236135     -0.93909057050227
  O   0.62296612955064      0.31927285661270     -1.80912932178464
