13
Coordinates from ORCA-job run
  C   -0.47677506380497     -0.22454668378244      0.30638943157368
  C   0.86204518644999     -0.01807058049166     -0.39122555047736
  Br  -0.23748016624588     -0.35115913217207      2.22535886163003
  H   0.70784101308845      0.05436003361440     -1.46937908555642
  H   1.54243344910661     -0.82698282653924     -0.14334960349343
  C   -1.47450481197041      0.78575381629551     -0.00024635468968
  N   -2.30128858448481      1.58005955478623     -0.26298317402002
  N   -1.05418957952235     -1.59015485971063     -0.15365793628275
  O   -2.24179779769329     -1.76588051807595      0.05587723438077
  O   -0.25825581993182     -2.37241543421913     -0.65415967897940
  N   1.48942378196996      1.26131315941663      0.05601922786430
  O   2.52168737354500      1.17151063056638      0.71349668659583
  O   0.92186101949352      2.29621284031198     -0.28314005854556
