13
Coordinates from ORCA-job run
  C   -0.53829183044247     -0.11038059893486      0.56296625126541
  C   0.75113582095524      0.65446911833648      0.34109222399952
  Br  -0.91199332357392     -0.08464681457644      2.47116287695890
  H   1.57339196446772      0.17170121784867      0.86770426059859
  H   0.64912535414323      1.68852755747005      0.66946712749799
  C   -1.67005789309482      0.44756728253557     -0.15539634729229
  N   -2.57097292619273      0.96882629354222     -0.70230357312282
  N   -0.35781262586921     -1.59122140361109      0.18196030307884
  O   -1.34499283582664     -2.16714917855422     -0.24167128621755
  O   0.75192660234433     -2.05493564163920      0.39093370007138
  N   1.12422329197782      0.68685389295951     -1.11081877948681
  O   2.04304898883792      1.43953229708080     -1.40243800924804
  O   0.50326941227353     -0.05014402245750     -1.87265874810312
