13
Coordinates from ORCA-job run
  C   -0.46034135062675     -0.23016459506330      0.39294873636787
  C   0.80085606559105      0.03879456165196     -0.42638398763039
  Br  -0.07590672703714     -0.20541691586706      2.27353321286841
  H   0.54172130004389      0.09510610305435     -1.48472038688930
  H   1.54015967479096     -0.73839933667306     -0.23644286009712
  C   -1.57414929409470      0.65545691807248      0.09474999771295
  N   -2.51094673809621      1.32704878804965     -0.13896856584512
  N   -0.90325873267162     -1.65898734051393     -0.06656733544932
  O   -0.86027131544642     -2.57741516823087      0.72853081057360
  O   -1.22668938999321     -1.69538546565084     -1.24655880582110
  N   1.42344642950431      1.34183068059888     -0.04857889932817
  O   2.61077416454067      1.31864308435469      0.25726230354481
  O   0.69560591349518      2.32788868621707     -0.10080422000710
