13
Coordinates from ORCA-job run
  C   -0.37914468142289     -0.30045213615408      0.37013048739287
  C   0.74227387957990      0.12750761392135     -0.56741174718435
  Br  0.30095128684364     -0.56315987251280      2.16619285527929
  H   0.34205174810522      0.29976995873503     -1.56879651184711
  H   1.52665757372757     -0.62268025890389     -0.58301078880027
  C   -1.51941425079699      0.59896544634461      0.39755140159845
  N   -2.46506383546431      1.29844113847162      0.39956671204899
  N   -0.90356831338222     -1.68308845725074     -0.10470745668470
  O   -0.16171896111114     -2.32091687631192     -0.83861842588743
  O   -1.99463643369656     -2.01618810927815      0.32448495726485
  N   1.35341031418103      1.41053937934921     -0.10611650262200
  O   0.61163844490723      2.38737317238647     -0.05957140259165
  O   2.54856322852952      1.38288900120328      0.17030642203304
