13
Coordinates from ORCA-job run
  C   -0.48757446098753     -0.09206224681404      0.52217740229126
  C   0.33366563431199      0.84209181984785     -0.35628456415035
  Br  0.24690838653764     -0.22585332012120      2.29302081776598
  H   -0.05569396755094      0.81411824482812     -1.37568820020874
  H   0.31258560164286      1.85598102371762      0.03885775830409
  C   -1.85171998141309      0.41191265551662      0.59385312568487
  N   -2.94474485994882      0.84447813987611      0.63326229254455
  N   -0.58927727045196     -1.49535000592814     -0.16156945780732
  O   -0.34937352756313     -2.48593354315762      0.49482750200255
  O   -0.95695214682505     -1.42385523229729     -1.32460985850782
  N   1.76480564507661      0.42083952314059     -0.42262784576485
  O   2.60022671642104      1.31678063388548     -0.42130896666290
  O   1.97814423075038     -0.78414769249410     -0.51391000549134
