13
Coordinates from ORCA-job run
  C   -0.43652431432802     -0.23621676642975      0.41862322976841
  C   0.76704663605393      0.04542333310572     -0.47873855594559
  Br  0.07946136316138     -0.27289109686561      2.26761077402699
  H   1.50773211185076     -0.74552697914811     -0.36689895211675
  H   0.43588818110381      0.13746215975291     -1.51456340873945
  C   -1.55928529358344      0.66716984122514      0.22647157630832
  N   -2.50408909919886      1.35156656003540      0.07808544471139
  N   -0.92501798033691     -1.64656754517524     -0.05092257138475
  O   -1.34192744936882     -1.64228974002614     -1.20173063821187
  O   -0.82341611194999     -2.59142722175679      0.70696403974410
  N   1.43495092219128      1.32858940821200     -0.10906183583113
  O   2.64991953496293      1.28983081374477      0.05185158729186
  O   0.71326149944196      2.31687723332571     -0.02769068962152
