13
Coordinates from ORCA-job run
  C   -0.51249329611288     -0.19301825826376      0.46792427496735
  C   0.38577444805800      0.88508627825741     -0.12327028695328
  Br  0.14124751362295     -0.80536306655982      2.16811827750654
  H   0.03814651334524      1.13380931482707     -1.12770327803565
  H   0.39440667212260      1.76772751509760      0.51349637358621
  C   -1.85419574666681      0.35011369408317      0.62571508354541
  N   -2.92726226179104      0.81735035927209      0.74243955573493
  N   -0.64975604346486     -1.37274778533394     -0.54999376800037
  O   -0.96593640663729     -0.99261486958391     -1.66735626359620
  O   -0.48143354414697     -2.50760187426167     -0.15824058870364
  N   1.79797062287632      0.41679802493649     -0.25222509126128
  O   1.96023964694044     -0.73694939822341     -0.63739331557731
  O   2.67229188185429      1.23741006575267     -0.00151097321272
