13
Coordinates from ORCA-job run
  C   -0.47129162260894     -0.22537538303904      0.31454179083570
  C   0.83934974443918      0.03207544631678     -0.41649822728762
  Br  -0.18800131288119     -0.22441561830307      2.23261851758127
  H   0.65991165866395      0.08270153937610     -1.49330888788600
  H   1.56074683702872     -0.74338977218450     -0.17905193326125
  C   -1.54762112367144      0.68634837242756     -0.03025019942065
  N   -2.44108947098628      1.39090258790881     -0.32842274999383
  N   -0.94781875134830     -1.65913366226530     -0.04955564996979
  O   -0.07849344249695     -2.44436536825431     -0.40013149200450
  O   -2.13958185850880     -1.87868249511925      0.08418256014138
  N   1.43488687973528      1.33981994616874     -0.00519873650055
  O   0.71704479391437      2.33006112630960     -0.09962545602194
  O   2.60195766872040      1.31345328065789      0.37170046378778
