13
Coordinates from ORCA-job run
  C   -0.49189428762256     -0.07484977167732      0.52062139856911
  C   0.33445642103144      0.82979136919475     -0.38343059893099
  Br  0.22558039489782     -0.14131198680395      2.30209943149800
  H   -0.04539373366234      0.76368679236199     -1.40468019802709
  H   0.30659544532516      1.85724008435910     -0.02543893097828
  C   -1.85831484874715      0.42680807192945      0.56136897529382
  N   -2.95313083922187      0.85635766519371      0.57637433152873
  N   -0.58313124211818     -1.50186240745488     -0.11248757880889
  O   -0.34689277662803     -2.46733734102428      0.58166977274889
  O   -0.93997774101969     -1.47392258138582     -1.28076917981772
  N   1.76753917030759      0.41123251106817     -0.42177530410761
  O   1.98567781248317     -0.79548606327410     -0.46631203981189
  O   2.59988622497464      1.30965365751320     -0.44724007915608
