13
Coordinates from ORCA-job run
  C   -0.37927064133502     -0.29579602848155      0.37739308066618
  C   0.74038497003906      0.09647169216274     -0.57896797791989
  Br  0.31840252319502     -0.62032823251723      2.15619857471049
  H   1.50167605681991     -0.67711053283036     -0.60179401458414
  H   0.32693057590761      0.27747244001900     -1.57307830472539
  C   -1.47104655340132      0.65985241360994      0.44349050446170
  N   -2.37188184010862      1.41494772210107      0.48510339996118
  N   -0.97282355823805     -1.64432679676120     -0.11030524033080
  O   -2.09681369303002     -1.90872918308082      0.28089939778521
  O   -0.24407329994542     -2.33113653720332     -0.81211112449728
  N   1.39015688791299      1.36378540947310     -0.12906200515099
  O   2.55214193317269      1.28256421831297      0.25739282861513
  O   0.70721663901117      2.38233341519567     -0.19515911899140
