13
Coordinates from ORCA-job run
  C   -0.40341596024523     -0.26635968323979      0.38918961201367
  C   0.77630907969255      0.08345860769110     -0.51283669234513
  Br  0.16625151897502     -0.39863589859360      2.22521767255826
  H   1.52658226582736     -0.70379893346393     -0.47359239501716
  H   0.43356273752022      0.24317288831866     -1.53485121619561
  C   -1.53919491809236      0.63607414402415      0.27658785075392
  N   -2.50314179676235      1.30133151277906      0.16585002642634
  N   -0.94206722269570     -1.65367669483352     -0.08942033088519
  O   -0.82500108359794     -1.84830519546073     -1.29256827155747
  O   -1.47208666530970     -2.37288196828902      0.73455309551949
  N   1.43252573327973      1.34665906981677     -0.06279849220267
  O   0.70107660776788      2.32071635402154      0.08423276718691
  O   2.64859970364053      1.31224579722929      0.09043637374465
