13
Coordinates from ORCA-job run
  C   -0.41191053163232     -0.25973715484654      0.38579460336224
  C   0.80092204912339      0.09126136235040     -0.47067051905679
  Br  0.04783412273312     -0.21750933130094      2.25633393435993
  H   1.59096051242021     -0.64262515020399     -0.32390056133468
  H   0.51590062701806      0.14937199583781     -1.52095755582793
  C   -1.58722379044811      0.55998201778549      0.13356693788490
  N   -2.57767303572478      1.15412824714184     -0.09034719638971
  N   -0.84101491796027     -1.71044594669331     -0.00852623956037
  O   -0.61744385926085     -2.00106269728049     -1.17691265892672
  O   -1.40178600168705     -2.38432613845024      0.83327824365819
  N   1.35622137324892      1.42368473336571     -0.08798803575375
  O   0.56045544645692      2.35615189219231     -0.03926939356684
  O   2.56475800571277      1.47912617010194      0.11159844115153
