13
Coordinates from ORCA-job run
  C   -0.56487629706934     -0.13668171502610      0.46331083910540
  C   0.41928517106416      0.83209381107820     -0.19041119517845
  Br  -0.15160928405100     -0.63893488100124      2.28553298194704
  H   0.44248837478463      1.75089616821655      0.39826534324817
  H   0.08036648929631      1.03928778038483     -1.20589888190320
  C   -1.87569635511257      0.49915797119229      0.44860218301714
  N   -2.89486611327827      1.08504942717584      0.41555019387011
  N   -0.66103726331156     -1.44147535834053     -0.34888063599349
  O   -1.73867128526289     -2.01401359638283     -0.33504026847428
  O   0.37019768821092     -1.79415698658042     -0.90312149260630
  N   1.83868215282448      0.36595107897542     -0.31197236841916
  O   2.31570329256097      0.38727258290159     -1.44014128318819
  O   2.41803342934415      0.06655371740639      0.72420458457521
