13
Coordinates from ORCA-job run
  C   -0.61161079861820     -0.11288442740122      0.48200539656876
  C   0.57390879209429      0.81877276927448      0.32979300242569
  Br  -1.32891932288310      0.14193469940588      2.27147689912166
  H   1.34556357556317      0.57294746361427      1.05820179490243
  H   0.26660943329664      1.85800234904736      0.44366537733550
  C   -1.66022080000998      0.12520969830062     -0.49356635221599
  N   -2.51025579367686      0.39271351203780     -1.26056750384704
  N   -0.15453781946368     -1.58156371015019      0.40894331623207
  O   0.95220921144881     -1.80967095874172      0.87081616963167
  O   -0.95486949838154     -2.37689190365832     -0.05225052492493
  N   1.20021789351661      0.68956780215462     -1.02675288267825
  O   0.84097501790186     -0.25132975286320     -1.73011852913138
  O   2.04093010921197      1.53419245897961     -1.30164616342019
