13
Coordinates from ORCA-job run
  C   -0.43870612390240     -0.27529034669073      0.32273403227973
  C   0.82760508025726      0.08944961765939     -0.44159008252470
  Br  -0.07896533443285     -0.38888166271757      2.22431451727856
  H   1.60137566835014     -0.64977784504373     -0.25925842605667
  H   0.60323066848137      0.17401326077885     -1.50716026368968
  C   -1.56195525037118      0.61386576291273      0.08457079472964
  N   -2.48663706840696      1.31006285196608     -0.12449516825482
  N   -0.87183294136260     -1.69826146221536     -0.12267958172369
  O   -2.04380724775937     -1.98317475200597      0.05446182282284
  O   0.01087405775074     -2.41296931828334     -0.57595016752016
  N   1.35010241235420      1.41445460113122      0.00921808540718
  O   2.46220322744688      1.42099262367808      0.52776565350750
  O   0.62751285159477      2.38651666883037     -0.19093121625573
