13
Coordinates from ORCA-job run
  C   -0.60908188442384     -0.07795638709332      0.49196318265907
  C   0.60576221659835      0.80737676116930      0.29950356976919
  Br  -1.29595353922449      0.25267638413453      2.28080146162288
  H   1.37705565161783      0.55602341938322      1.02639695667208
  H   0.33559077864765      1.85945403566669      0.38684900696769
  C   -1.66050370488566      0.16784533205969     -0.47871014898572
  N   -2.51008822044640      0.44327702658486     -1.24342755373703
  N   -0.20319085648558     -1.56306519247174      0.45665530725015
  O   -1.03608034275484     -2.34330671610973      0.02855207447935
  O   0.90118106612192     -1.81565157487714      0.91129922115383
  N   1.21046607583447      0.61783307346077     -1.05946805559253
  O   0.81026686728409     -0.32972686657973     -1.73105428647883
  O   2.07657589211650      1.42422070467258     -1.36836073578013
