13
Coordinates from ORCA-job run
  C   -0.29281688436376     -0.45530539653364      0.29259756461612
  C   0.50583857526652      0.38957153941371     -0.69302802633185
  Br  0.84852049345972     -1.74581272504558      1.18073355054507
  H   1.00759650757957     -0.25086756214376     -1.41165067233916
  H   -0.15953189434523      1.10071282482521     -1.18665948489371
  C   -1.02292095631635      0.31668782261120      1.28247797773483
  N   -1.62977324260751      0.93839529152394      2.07535960628978
  N   -1.32540455058500     -1.27607275784071     -0.52428067376925
  O   -2.34519179200951     -1.59949133291788      0.06076417534661
  O   -1.00023920571589     -1.55382423723933     -1.66977070083746
  N   1.54926816687125      1.18189654706295      0.02354786258042
  O   1.14754309881072      2.10345069829647      0.72895375811497
  O   2.71711168395546      0.85165928798743     -0.15904493705637
