13
Coordinates from ORCA-job run
  C   -0.51416954531547     -0.17118085975574      0.47288540976835
  C   0.38851530609157      0.87856376517900     -0.16103299344718
  Br  0.13259409038628     -0.71038200274516      2.20055205150514
  H   0.04584592766005      1.08270970284740     -1.17722788189708
  H   0.39547448351567      1.78847972020308      0.43617029758315
  C   -1.85557732716096      0.38023387401887      0.60284409122177
  N   -2.92844982999569      0.85305685059076      0.69627124325051
  N   -0.65077911483682     -1.39372313827227     -0.49321108023562
  O   -0.48615222242166     -2.51095445075492     -0.05235925427500
  O   -0.96298420225072     -1.06163490487412     -1.62681859950481
  N   1.80002107109890      0.40201261414752     -0.26144408852635
  O   2.67524715853295      1.22868611752285     -0.03476928965038
  O   1.96141420469592     -0.76586728810726     -0.60185990579249
