13
Coordinates from ORCA-job run
  C   -0.51355934212511     -0.16948947228507      0.47402782634192
  C   0.39081423500898      0.87712130001315     -0.16390292347668
  Br  0.14384957079609     -0.71624126874474      2.19491561677590
  H   0.40277686139621      1.78732412042372      0.43263779210337
  H   0.04621755063907      1.07992854636233     -1.17966647529725
  C   -1.85047532039676      0.38973917534002      0.61429508359780
  N   -2.91907899816501      0.87028682283261      0.71724002855772
  N   -0.66118114283211     -1.38864647773632     -0.49459509275950
  O   -0.47377700039680     -2.50640084415877     -0.06438567841902
  O   -0.99998341154495     -1.05319426343508     -1.61956868375723
  N   1.79940611427507      0.39292609137252     -0.26652226093517
  O   1.95232302192323     -0.76452486216424     -0.64481523114768
  O   2.68066786142209      1.20117113217988      0.00033999841582
