13
Coordinates from ORCA-job run
  C   -0.58671133253480     -0.11483121138331      0.51165356623823
  C   0.57317520933696      0.83478243725052      0.28829899757282
  Br  -1.22633575877773      0.16044147320386      2.32733584899989
  H   0.25236834326036      1.87039851174839      0.39789085964474
  H   1.38152012336437      0.61608388618680      0.98489085456831
  C   -1.68302520114383      0.08620623507567     -0.41879721622047
  N   -2.57229953878864      0.32491022124604     -1.14999583399028
  N   -0.10597990155998     -1.57605961801419      0.44395626041792
  O   1.02554448134270     -1.77556923288401      0.85627709902445
  O   -0.91208159598089     -2.39416430146012      0.03565262702543
  N   1.13840990297171      0.69132030078329     -1.09309959310057
  O   0.76404267907387     -0.26838833528851     -1.76232657781344
  O   1.95037258943591      1.54486963353559     -1.42173689236703
