13
Coordinates from ORCA-job run
  C   -0.36457996969831     -0.35940416197325      0.33945951215708
  C   0.68984882850398      0.24077810088836     -0.57946842623766
  Br  0.44633452693539     -0.96899884840370      1.99081659278604
  H   0.21981958151056      0.62419788512945     -1.48868648072118
  H   1.44402137119152     -0.50000012099874     -0.82636992649210
  C   -1.49137304091096      0.51271466449978      0.62163450054070
  N   -2.43572230129453      1.18817239928444      0.80977235428209
  N   -0.94252393128216     -1.62639055500127     -0.35159736779649
  O   -1.99088368065183     -2.04938408761954      0.10349421492757
  O   -0.28044125571600     -2.09713675378210     -1.26602223255214
  N   1.39348509048847      1.39073571521943      0.06851082158110
  O   0.70115511906340      2.21352064644198      0.65812212346466
  O   2.60985966186046      1.43019511631515     -0.08066568593968
