13
Coordinates from ORCA-job run
  C   -0.58643948943173     -0.13481991605966      0.50660932849455
  C   0.55499783368025      0.84118873243065      0.30382932755778
  Br  -1.24194823668994      0.10150440933116      2.32218880446041
  H   1.36480529480934      0.62774479108098      1.00034285283511
  H   0.21285182459495      1.86822024280073      0.42847904532811
  C   -1.68110582641999      0.05780780051832     -0.42750264768546
  N   -2.57039535183847      0.29166246075924     -1.16025867671367
  N   -0.07614652973335     -1.58518289158133      0.42134013008315
  O   1.05553132011225     -1.76831396722395      0.84067668212987
  O   -0.86251778782839     -2.41280675030926     -0.00583769928343
  N   1.12884697514589      0.73140143641597     -1.07704482245147
  O   1.92081462868597      1.60918201331404     -1.39031207046989
  O   0.78170534491322     -0.22858836147690     -1.76051025428506
