13
Coordinates from ORCA-job run
  C   -0.45001616875031     -0.27466588747076      0.30751982943579
  C   0.85124862071445      0.09953489269242     -0.39067077582104
  Br  -0.21743536562665     -0.26620105434186      2.23224609128301
  H   0.69741959783780      0.11672301891491     -1.47186572603088
  H   1.63726333361852     -0.59669034452206     -0.11560033618197
  C   -1.58738412015164      0.55199651291913     -0.05562440122193
  N   -2.52222406548178      1.19598558523664     -0.36353204559176
  N   -0.79608181230790     -1.73753345956646     -0.08117528269683
  O   0.14438257128584     -2.44097913283606     -0.42197072283834
  O   -1.96725403139900     -2.05899873863985      0.02517165611386
  N   1.29301589074016      1.46709933952396      0.01710290923148
  O   2.37228573139894      1.54788691702964      0.59524166085389
  O   0.54577981812158      2.39584235106033     -0.27584285653526
