13
Coordinates from ORCA-job run
  C   -0.50394840638460     -0.16601495648845      0.48635596446118
  C   0.38720476283887      0.87725680220313     -0.17393705027880
  Br  0.17914606631057     -0.69515813850571      2.20284186126691
  H   0.41094087583429      1.79035135803106      0.41793636092892
  H   0.02144663242002      1.07826031938180     -1.18265266425843
  C   -1.84146286321305      0.38872612569510      0.64043495286297
  N   -2.91356412926960      0.85977299476516      0.75018928527754
  N   -0.66436615753627     -1.39473363087985     -0.46820660604459
  O   -0.99546447012181     -1.06954629170237     -1.59850973609931
  O   -0.49787920699900     -2.50941933106556     -0.02165762030395
  N   1.79457365911161      0.39552936228530     -0.30571343975252
  O   2.67772076065827      1.22100521425260     -0.10775801914919
  O   1.94365247635068     -0.77602982797220     -0.63932328891072
