16

C	0.0	0.0	0.0
C	-0.444086	-0.201981	-1.492994
Br	1.903362	0.0	0.0
H	0.436975	0.116968	-2.054
N	-0.395463	1.424964	0.453499
O	-0.123876	2.269312	-0.392005
O	-0.855468	1.616804	1.560922
N	-0.384238	-1.028388	1.087411
O	-0.946809	-2.057313	0.762469
O	0.00793	-0.739565	2.210291
C	-1.489229	0.696863	-2.046454
N	-1.971887	1.345844	-2.906068
N	-0.644781	-1.60221	-1.809465
H	-0.724315	-1.659765	-2.81946
H	-1.536807	-1.878972	-1.408157
Br	-3.313131	0.0	0.0
