16

C	0.0	0.0	0.0
C	-0.440423	-0.191302	-1.495082
Br	1.902981	0.0	0.0
H	0.436347	0.148745	-2.051351
N	-0.392087	1.426372	0.458975
O	-0.127844	2.270867	-0.389329
O	-0.838748	1.621241	1.571525
N	-0.390775	-1.033601	1.077423
O	-0.01577	-0.746275	2.20638
O	-0.939515	-2.066794	0.741975
C	-1.497165	0.695609	-2.044969
N	-1.978137	1.358538	-2.895326
N	-0.616721	-1.591543	-1.825164
H	-0.687568	-1.644166	-2.835493
H	-1.504677	-1.88806	-1.431262
Br	-3.305339	0.0	0.0
