15
Coordinates from ORCA-job run
  C   0.29754184244581      0.43544105269831     -0.16724424567314
  C   -0.59788496859395     -0.52350114040997      0.15489784378609
  N   0.27232536223289      0.99981822537855     -1.48090972609498
  H   0.35720001919299      0.28726656732335     -2.19553649860477
  H   1.01681879186920      1.67105773809516     -1.60342415765177
  C   1.27086588723550      1.02043484518221      0.80579256680101
  H   2.30527935577526      0.75551666779002      0.55600380506773
  H   1.20517704899862      2.11531623716322      0.79533703569592
  H   1.05140943327574      0.66691014617872      1.81197407253700
  N   -1.69674863494087     -0.84221808852801     -0.67861433745522
  H   -1.66488845242482     -1.77693139657267     -1.06684670850857
  H   -1.81241424706924     -0.15189844302517     -1.40898646060595
  N   -0.55581179121225     -1.18901293178500      1.40976153365136
  H   0.04523614452916     -2.00229087439763      1.40082576047218
  H   -1.49410579131405     -1.46790860509109      1.66596951658312
