15
Coordinates from ORCA-job run
  C   0.38818176438906      0.40903086482617     -0.22361546660087
  C   -0.63899310197777     -0.43724100547983      0.02190795364239
  N   0.48258548101098      1.10728925531721     -1.44687982698698
  H   -0.21650719030897      0.75263020645597     -2.08800059672784
  H   1.40613188453603      1.04242219106059     -1.85538373811610
  C   1.40837941285624      0.81495499872473      0.79677227427819
  H   1.46900813791018      0.10990576142064      1.62704791955422
  H   1.19485495538993      1.81312963681017      1.19203503203391
  H   2.40170985666823      0.86177585918652      0.33799394875461
  N   -1.50519029351517     -0.80508298511293     -1.05628422404535
  H   -2.46446189711581     -0.76535082465839     -0.73177686515167
  H   -1.32066873202219     -1.75198194655063     -1.36863239881244
  N   -1.05617340392709     -0.86999186377789      1.30987188483032
  H   -0.56276551887511     -0.40574021835383      2.05868822628244
  H   -0.98609135501853     -1.87474992986850      1.42525587706517
