15
Coordinates from ORCA-job run
  C   0.45482290402551      0.19234160643505     -0.19853817646260
  C   -0.68592683987527     -0.48034030262121      0.08514460596434
  N   1.47802436629663     -0.53514797392621     -0.90701560409601
  H   1.65841251520421     -0.09856296752878     -1.80556056612641
  H   2.35127411423121     -0.50972233156254     -0.39089561048591
  C   0.67117203882067      1.63088979290692      0.16660667410860
  H   1.07272883356458      2.18696708437580     -0.68885286176982
  H   1.39156500789582      1.75084008723735      0.98677487625251
  H   -0.26640369613186      2.10498066002691      0.46483246345501
  N   -0.96683213565932     -1.74981373367483     -0.44198053740468
  H   -0.14963347130739     -2.07016918852525     -0.94932844304683
  H   -1.21641173374562     -2.41218172744809      0.28240193183420
  N   -1.73689433074990      0.08992695808837      0.82618341336520
  H   -2.57222167448721     -0.47390388359989      0.80979996528182
  H   -1.48467589808205      0.37289591981640      1.75942786913059
