15
Coordinates from ORCA-job run
  C   0.32502933249550      0.42099450154527     -0.17235639478238
  C   -0.60445615784173     -0.49752546165691      0.17146491480528
  N   0.27807084491006      1.04355807838467     -1.45282724828473
  H   0.09401908221507      0.37218607132344     -2.18805598242165
  H   1.14354655898954      1.52264205323686     -1.65802344877193
  C   1.36572276921862      0.93705094965188      0.76870095613392
  H   1.18054041982614      0.55804059385047      1.77201099827756
  H   2.37439951235828      0.63753616090727      0.45965832723927
  H   1.34299425431211      2.03286281412267      0.78985968685368
  N   -1.75742216578879     -0.74246166126079     -0.61839257464781
  H   -1.92172925353343     -0.00375520714199     -1.28871098948247
  H   -1.77348762441381     -1.64999139149705     -1.06754071018424
  N   -0.53949680370452     -1.18833080836312      1.41295998710110
  H   -1.48150888898495     -1.38502670204966      1.72685273939638
  H   -0.02822188005809     -2.05877999105302      1.34339973876800
