15
Coordinates from ORCA-job run
  C   0.22040326806893      0.41034443898810     -0.17534025266927
  C   -0.55445573205398     -0.68096835590534      0.04147606281486
  N   -0.07094047145838      1.17293652854286     -1.36412222424271
  H   -0.27408755085379      2.13774924373713     -1.12390585833622
  H   0.73245499514110      1.18665675648598     -1.98392863420235
  C   1.32880752728513      0.87312870724203      0.72672823150162
  H   1.05824262812022      1.77678287731655      1.28802403740602
  H   1.63581887230830      0.11608935007148      1.45336178961842
  H   2.21806571734145      1.12206210440880      0.13600093419209
  N   -0.57265429882500     -1.46150271306497      1.20619657183779
  H   0.11528723841101     -1.19070774457935      1.89043306034583
  H   -0.50586514559340     -2.44696337801215      0.98899912528923
  N   -1.45196556605968     -1.16756877115328     -0.91531854302791
  H   -2.35618886210053     -1.35458489152320     -0.50151432030696
  H   -1.51992261973135     -0.49345415255463     -1.66808998022044
