15
Coordinates from ORCA-job run
  C   0.50103650432172      0.25379957942115     -0.14276381390615
  C   -0.64823195760137     -0.42574873178128      0.07980155757954
  N   1.68621181904784     -0.36148720903662     -0.62237520485738
  H   2.07172726797468      0.11671206118679     -1.42698137149181
  H   1.56561801655665     -1.34227033912677     -0.82906309451703
  C   0.67018007391210      1.69499390337500      0.22475546187106
  H   -0.29799574444629      2.15335341926564      0.42061387849547
  H   1.30617950205646      1.80428352414718      1.10931699061805
  H   1.16372690516199      2.24087103925326     -0.58835604423303
  N   -0.94373123459062     -1.71075990067451     -0.45574983778736
  H   -0.40373617948767     -1.92666706828653     -1.28130768515597
  H   -0.87164932347264     -2.46396358900177      0.21814674652457
  N   -1.70178175647958      0.14981526396725      0.83634050758602
  H   -2.56942745296470     -0.32276536744034      0.62556691760614
  H   -1.53012643998856      0.13983341473154      1.83205499166789
