15
Coordinates from ORCA-job run
  C   0.35485621112108      0.42573226450255     -0.16970627598452
  C   -0.56106542436340     -0.52782886014059      0.12065617734894
  N   0.64533883392010      0.84544874500826     -1.49351532620750
  H   0.59813913514410      1.85097091647686     -1.59995391939811
  H   0.06405967766492      0.39702726730271     -2.18640794388583
  C   1.24422647357022      1.03281059821642      0.87004128321577
  H   2.26878190156185      0.65708240558106      0.78012217249725
  H   1.29433389326928      2.12084442033818      0.74223847102750
  H   0.86843263727720      0.81188730116609      1.86794861752446
  N   -1.58194434973787     -0.96487470647717     -0.76903194842597
  H   -1.79793872752584     -0.28574653656235     -1.48442909933255
  H   -1.40453606261340     -1.87094366095948     -1.18636926250928
  N   -0.60524384914161     -1.13085571459592      1.40396842188123
  H   -1.51298301853204     -1.54768287900557      1.55433548685030
  H   0.12454266838542     -1.81387156085104      1.55110314539830
