15
Coordinates from ORCA-job run
  C   0.31212144771441      0.38166027663298     -0.20040311356849
  C   -0.68183885523144     -0.47483141631475      0.13526961142370
  N   0.25715045404891      0.95356479104186     -1.52258795922631
  H   0.16686546182317      1.96291462072658     -1.46311406778777
  H   1.11945362068003      0.76767721040883     -2.02403724803274
  C   1.42026654336160      0.76007913802218      0.73680478991005
  H   1.56742882552683      1.84662418759193      0.73681438366018
  H   2.38130670866186      0.31183952056248      0.45130711790817
  H   1.19128307524491      0.45221979614929      1.75932606178729
  N   -1.82268623371838     -0.65946379091408     -0.66034842732725
  H   -1.69701357256742     -0.13772173025507     -1.52051030369309
  H   -1.98788016422281     -1.63842616028959     -0.86063380097295
  N   -0.71317067136611     -1.15227621966847      1.36782614207566
  H   0.07648104759836     -1.75528527539924      1.53352047539748
  H   -1.59176768755392     -1.61857494829494      1.53076633844607
