15
Coordinates from ORCA-job run
  C   0.42015459241857      0.19295201755916     -0.18429276638188
  C   -0.62923399270351     -0.59118392146537      0.16564017500407
  N   1.43496267351641     -0.42755658947704     -0.99961284002337
  H   2.34131408914549     -0.35996157123573     -0.54826053766615
  H   1.51412517633763      0.04799789557649     -1.89254775736786
  C   0.59634746126397      1.62860342859268      0.22110486453138
  H   1.38213652398745      1.75335374680839      0.97728218065757
  H   0.89163088059213      2.23258701137888     -0.64472127119367
  H   -0.31694621293363      2.07733242166096      0.62091668927274
  N   -1.63387432080383     -0.26225285182929      1.08719940216234
  H   -2.55360084620164     -0.44303458078034      0.70735241750550
  H   -1.56582859597620      0.67636535785889      1.44667105913217
  N   -0.83318738075449     -1.86217137201711     -0.38241859996205
  H   -1.03573858149608     -2.54020175050365      0.34076990856207
  H   -0.01226146639229     -2.12082924212692     -0.91608292423284
