15
Coordinates from ORCA-job run
  C   0.48481963131865      0.26936768709165     -0.16856243277909
  C   -0.57233920833012     -0.47897768443723      0.22496686694656
  N   1.48253618309580     -0.20428745432533     -1.05881740554959
  H   2.41859674173903     -0.06899376355197     -0.69811302918579
  H   1.35077696663866     -1.16930833263222     -1.32417374807028
  C   0.63194857739354      1.71386665496379      0.19517394710987
  H   -0.05456949982100      1.97542908755356      0.99884312811790
  H   0.43921242545784      2.35880265237091     -0.66835093175930
  H   1.65773032723406      1.92232018609643      0.52262863742757
  N   -0.64602610455174     -1.89548384325561      0.11203208268340
  H   -1.24891819894669     -2.21773799045220     -0.63581768970020
  H   0.26089301368017     -2.33439517866274      0.04505695422560
  N   -1.69240469289570      0.11819441254635      0.85969451496234
  H   -2.30936231163489      0.59372743389844      0.21598302019768
  H   -2.20189385037761     -0.58252386720381      1.37945608537332
