15
Coordinates from ORCA-job run
  C   0.34015049479644      0.50975008471442     -0.19943474045481
  C   -0.46737299796963     -0.54317888638438      0.06499019915248
  N   0.22436410616379      1.21835091929181     -1.40181368703727
  H   -0.27193679948042      0.66478713145624     -2.08978231908234
  H   1.11492775302318      1.54813580674847     -1.74709869739824
  C   1.32028942546515      1.07104451912034      0.78078697599155
  H   2.34293683813061      0.98646112151583      0.39496260842162
  H   1.25631544512433      0.53826938410584      1.72629738552802
  H   1.11982881224817      2.13471770738951      0.94013388400194
  N   -0.40449133964998     -1.22333018314856      1.32254627996321
  H   -1.32918007262076     -1.29957334444372      1.73152145652533
  H   -0.03991058625634     -2.16326708206162      1.21249536761030
  N   -1.40141498549560     -0.93598687838990     -0.95627011807367
  H   -2.32752521849574     -0.56128196662931     -0.77723021471331
  H   -1.47798087498320     -1.94489833328498     -1.00010438043480
