15
Coordinates from ORCA-job run
  C   0.37063969142505      0.40892145144784     -0.17606324513568
  C   -0.58446209377508     -0.49814976733370      0.13571174291441
  N   0.62112995292235      0.84807051833484     -1.50176576699942
  H   -0.01742871287137      0.45328377184745     -2.17665768753122
  H   0.62695508215281      1.85727625520913     -1.58018414390353
  C   1.34352354488339      0.93563165481718      0.83223679345910
  H   1.44693954196394      2.02276860528311      0.73079743045867
  H   1.00638571451400      0.70656164991353      1.84199867330552
  H   2.33999660096577      0.50863319238538      0.67885998924399
  N   -1.67082775905599     -0.85138492504958     -0.71270329603090
  H   -1.56706843713723     -1.75481576560614     -1.15955986426851
  H   -1.87971506571033     -0.14226539239981     -1.40059425428698
  N   -0.60198294739309     -1.13257220363530      1.40486967943291
  H   0.09014089298426     -1.86306366552944      1.49587650991123
  H   -1.52522600586848     -1.49889537968450      1.58917743943039
