15
Coordinates from ORCA-job run
  C   0.42042826051748      0.17669978077491     -0.20018818391301
  C   -0.62975536662246     -0.57461585490272      0.21408122205152
  N   1.42503075489132     -0.50647008722625     -0.97724516607722
  H   2.33556354276561     -0.41193682511169     -0.53924495241198
  H   1.49912085992347     -0.09610684210307     -1.90246832152782
  C   0.60281393609034      1.63847616622521      0.09352077776155
  H   1.39655995031141      1.81888995455469      0.82990612379920
  H   -0.30602514019604      2.11732655633049      0.46778086629956
  H   0.88974806196924      2.17514075199612     -0.81835816862659
  N   -0.84214959208562     -1.88225132599337     -0.23557211036551
  H   -0.02772996324115     -2.18195306732985     -0.75761734872564
  H   -1.03845955979318     -2.50413486605493      0.53805521458389
  N   -1.62420900376119     -0.17463978231968      1.11785139977804
  H   -1.55153185778105      0.78743379657554      1.40745389590655
  H   -2.54840488298818     -0.38285835541541      0.76404475146747
