15
Coordinates from ORCA-job run
  C   0.44961157830393      0.25969893783963     -0.26163534772541
  C   -0.46559166667603     -0.59539890812714      0.24865481928691
  N   1.40132784928105     -0.19896011348421     -1.20524531739860
  H   1.49389758003625     -1.20633918113803     -1.12011547142339
  H   2.30064159999536      0.24482737323550     -1.06154055962169
  C   0.48354805964014      1.73361726167318     -0.00289784464539
  H   0.58347467289724      2.26878914977818     -0.95202154929564
  H   -0.42465662325470      2.08702546539073      0.48619391367795
  H   1.33843304852279      2.01690022058078      0.62306322104376
  N   -0.45218439407498     -1.94853018477103     -0.19186054998224
  H   -0.88674339734790     -2.54112947243866      0.50200621397563
  H   -0.90414719511035     -2.07365563084351     -1.08900347027724
  N   -1.39788061914515     -0.31279192612255      1.28167271320417
  H   -1.16760446647270      0.52391014379358      1.79688115359338
  H   -2.35312602659497     -0.25696313536643      0.94584807558780
