15
Coordinates from ORCA-job run
  C   0.26512432146112      0.37053390140633     -0.19922937583499
  C   -0.61024939658453     -0.62960327756571      0.06839425077698
  N   0.11890925942941      1.01931527203981     -1.47898220605779
  H   -0.02153345573593      2.01676444185667     -1.35561208746856
  H   0.96162857221143      0.90673836912299     -2.03297080626262
  C   1.34227293673054      0.84635331997864      0.73332181981862
  H   2.28732713199720      0.96418718747717      0.19057361755315
  H   1.53601776945031      0.15217511610548      1.55547484288870
  H   1.10714079851280      1.82304646100590      1.17564307550912
  N   -0.77182042312754     -1.27580604728027      1.30242005311429
  H   -0.76956434904072     -2.28131399456480      1.19410953088682
  H   -0.11209405182711     -0.98270875747755      2.00506318229423
  N   -1.47649767665572     -1.14926707274537     -0.89968791888148
  H   -2.41895369303698     -1.22452589349829     -0.53928015387287
  H   -1.43770774378429     -0.55688902586099     -1.72023782446361
