15
Coordinates from ORCA-job run
  C   0.40311309919930      0.19583674843490     -0.21668445215580
  C   -0.60925731369565     -0.59604273895850      0.21519918629936
  N   1.35705886170856     -0.41837812486313     -1.10670623080791
  H   1.36491277781818      0.05701604364806     -2.00318932084544
  H   2.29474882064876     -0.34476011263058     -0.72577077486833
  C   0.59633193189322      1.63453775428183      0.16964360760160
  H   -0.28806663419927      2.07588987414720      0.63695525644265
  H   0.81832131114952      2.23826358486443     -0.71800900218085
  H   1.43660483675667      1.76971827426522      0.86283851459318
  N   -1.54154014383081     -0.27300216804815      1.21161817478472
  H   -1.45348776627313      0.66667509742766      1.56381868326167
  H   -2.48674077489326     -0.46310982944503      0.90628451670188
  N   -0.84411571610350     -1.87026925230417     -0.31239819601032
  H   -0.98307816827383     -2.54847051800584      0.42545776441051
  H   -0.06580512190477     -2.12290463281391     -0.90905772722693
