15
Coordinates from ORCA-job run
  C   0.30177308293477      0.33133935979499     -0.21774668476595
  C   -0.69482230774696     -0.52511780251618      0.11689668601681
  N   0.16288310252278      1.00633072299615     -1.48450243170521
  H   0.96778208823626      0.82135259839894     -2.07427836396518
  H   0.12119545555629      2.01125587561911     -1.34957364227507
  C   1.51561342246521      0.61044916248971      0.62218042227935
  H   1.69744330508608      1.69001413610153      0.67793621030996
  H   1.41634105862944      0.25460486477832      1.65123825497590
  H   2.42368393159923      0.15728570729743      0.20387771374779
  N   -1.88566632515193     -0.61401830863822     -0.61172449873668
  H   -2.12167399338230     -1.57854234649794     -0.80602397336501
  H   -1.78583567751627     -0.07599119151561     -1.46389005908070
  N   -0.68867890475051     -1.41408592811598      1.20138441658022
  H   -1.54638529916028     -1.34998732235472      1.73345872949764
  H   0.11834706067819     -1.32488952783753      1.79776722048613
