15
Coordinates from ORCA-job run
  C   0.44572589042929      0.20440905996817     -0.20716170351184
  C   -0.55261927681673     -0.56720866418163      0.28538860322886
  N   1.32458390502098     -0.40892536150670     -1.17132227049302
  H   2.27507417375071     -0.42778174862899     -0.81537952892950
  H   1.34548573299172      0.13586432334647     -2.02713352736551
  C   0.67380890174063      1.62317665383945      0.22242425473461
  H   0.40052236471174      2.34594025308855     -0.55790107518279
  H   1.73378365755568      1.78975685472068      0.44826631524644
  H   0.09847902128946      1.85758417235253      1.12063334665342
  N   -1.51810476594567     -0.07520631760409      1.18216612514139
  H   -2.07060372578183      0.68809612519508      0.82640769440398
  H   -2.08528051167045     -0.80689292654339      1.58055719926474
  N   -0.63246024082164     -1.94705647067381      0.04351039389120
  H   0.09852745218736     -2.19649450313517     -0.61318833453747
  H   -1.53992257864126     -2.21426145023714     -0.31826749254452
