15
Coordinates from ORCA-job run
  C   0.36374010560922      0.38539569620926     -0.24062890326402
  C   -0.59722371186826     -0.52296498756711      0.04265824434353
  N   0.32350138146138      1.10441135308163     -1.46065068190475
  H   1.25573979690045      1.24413873688563     -1.83193511758469
  H   -0.24196085923060      0.59040382272015     -2.12903813623350
  C   1.44593838377279      0.81001656546854      0.70215042752926
  H   2.43064331595558      0.44973273674224      0.38058072238918
  H   1.27142794119837      0.45282309944807      1.71748649272040
  H   1.49368127813311      1.90267729798374      0.73513554371876
  N   -1.64084029229629     -0.72757332510344     -0.90244417274634
  H   -2.36215903067840     -0.01935462291507     -0.85032940909073
  H   -2.04438767380144     -1.64579458738972     -0.77872973808774
  N   -0.62380961398803     -1.39941769986344      1.15939325879010
  H   -1.34426575170154     -1.15841559118596      1.83115759085701
  H   0.26897473053367     -1.46607849451450      1.62519387856352
