15
Coordinates from ORCA-job run
  C   0.37189858780219      0.37623872577651     -0.19717128032229
  C   -0.59932126639554     -0.52187750186350      0.09706171013767
  N   0.50342643026334      0.96797467331150     -1.49501907711429
  H   0.14436795561698      1.91439894431232     -1.54409904752489
  H   0.07147916803245      0.40705715150941     -2.21623677323363
  C   1.46544060796638      0.76430130120151      0.75477595701638
  H   1.66118831673954      1.83816510436934      0.67368426547771
  H   1.20532686708522      0.56077554113218      1.79633247394342
  H   2.40752333280821      0.25597206524789      0.52115597488053
  N   -1.76725094911139     -0.72059336767596     -0.66329697828019
  H   -1.86477844786809     -0.06390354944237     -1.42133442198742
  H   -1.86729928167255     -1.67610038933281     -0.97928244748198
  N   -0.57305718604703     -1.41874250083625      1.18138421073675
  H   -1.41369506380926     -1.35129326944098      1.74049797386295
  H   0.25475092858954     -1.33437292826879      1.75054745988927
