15
Coordinates from ORCA-job run
  C   0.45714563755589      0.25951980267447     -0.25051100549018
  C   -0.55658762992613     -0.55384987484976      0.12383555721765
  N   1.45249735596039     -0.21006191840095     -1.14241153645376
  H   1.08495239332893     -1.00144772408740     -1.66131851055001
  H   1.74237008271933      0.51977873123523     -1.78249446912446
  C   0.70639604373832      1.62812770330711      0.30211533035744
  H   0.09855440540571      1.83354250787440      1.18380328176599
  H   0.50323270137432      2.41006556861873     -0.43960350559325
  H   1.75785361034514      1.71887846118051      0.59099711323453
  N   -1.68106398793724     -0.18962293484345      0.91032547509889
  H   -1.80103493345264      0.80990184279008      0.98155578743995
  H   -1.66279202318412     -0.60008432420074      1.83745229470739
  N   -0.58959958765453     -1.88042881807923     -0.39074471726736
  H   -1.53663759976714     -2.23326982819862     -0.37235817219954
  H   0.02471353149377     -2.51004919502038      0.11035707685673
