15
Coordinates from ORCA-job run
  C   0.55037981424840      0.27530295081616     -0.19210179830277
  C   -0.53884274066110     -0.45572175047168      0.13955241967182
  N   1.61803508308666     -0.30429236072963     -0.88889186252204
  H   2.05357987645333      0.33674864755623     -1.53733623848992
  H   1.32001357143990     -1.16117069616101     -1.33938829970680
  C   0.76142039684277      1.69187057162402      0.23833405748200
  H   1.70935929330075      1.78036816283078      0.77738305301480
  H   -0.05652405901934      2.01862218047887      0.87559143994930
  H   0.81903817831533      2.35481654131874     -0.63287728540408
  N   -0.57690375788047     -1.82534475404168     -0.29948808025943
  H   -1.51433629390060     -2.08172393295120     -0.58435863387887
  H   -0.29183488878342     -2.46057943568881      0.43899592400331
  N   -1.59737902565676      0.10922788304823      0.91912918128703
  H   -2.44508643941413      0.20591096491366      0.37109687013235
  H   -1.81091900837132     -0.48503497254268      1.71235925302330
