15
Coordinates from ORCA-job run
  C   0.32725499255037      0.43211617186344     -0.21240742452298
  C   -0.54762532278042     -0.57636186971478      0.00371393218237
  N   0.22368723064324      1.22441056645156     -1.38227691553989
  H   -0.29588036742671      0.70895642710155     -2.08587355809600
  H   1.14003953699075      1.46869796995858     -1.73882193039678
  C   1.36786150741883      0.88769831587081      0.76243952198095
  H   1.22419835440958      0.45320201696366      1.75218762917519
  H   2.38023742302508      0.63483418733854      0.42479014765652
  H   1.32073599953821      1.97610053961124      0.86415757784447
  N   -0.49678163135670     -1.52233614400879      1.06148737813566
  H   0.39794401699557     -1.53821043750151      1.52821783874355
  H   -1.23641123923182     -1.39057943647040      1.74269721590872
  N   -1.56827820648957     -0.81049137788123     -0.96014400376772
  H   -1.88262673394088     -1.76939312502833     -0.90228088963807
  H   -2.35435556034552     -0.18064380455435     -0.85888651966598
