15
Coordinates from ORCA-job run
  C   0.31484410756855      0.33683354788676     -0.20390177202993
  C   -0.59752728486619     -0.61688113043116      0.09275360281006
  N   0.38847136109561      0.80340755788961     -1.56166389370382
  H   -0.47225343575977      1.26017170994281     -1.83884206245597
  H   1.14933865956770      1.45557768376526     -1.68412237919880
  C   1.32680561831245      0.88877975220738      0.75267116790232
  H   2.32091678352568      0.88194403007119      0.28897400714827
  H   1.40529816399375      0.28990155233022      1.66188613078746
  H   1.11324766633941      1.92449177209794      1.04338945694583
  N   -1.31245708173660     -1.31828281837577     -0.89368138673497
  H   -2.31336335590339     -1.19252549810911     -0.82465574012357
  H   -0.96444680272041     -1.10488149782191     -1.81746153140606
  N   -0.98788163726899     -1.02216007498172      1.38748618519870
  H   -0.46723738996735     -0.55646160893976      2.11643919335962
  H   -0.90575537218043     -2.02791497753176      1.47972902150085
