15
Coordinates from ORCA-job run
  C   0.48058970717592      0.17301106289603     -0.15112315301913
  C   -0.61162057797416     -0.52352678539022      0.24404778915611
  N   1.47910103448407     -0.55297782391862     -0.89534968174160
  H   2.35796835973032     -0.55820316475040     -0.38730513539143
  H   1.65937529340766     -0.09609399029073     -1.78326320171489
  C   0.68994963831449      1.62211898013482      0.17396475394086
  H   0.57024677030028      2.27014052110350     -0.70457232881875
  H   -0.01153690285112      1.95660268042495      0.94130715010008
  H   1.70605267195479      1.78769838816090      0.55125607957411
  N   -0.70336691772737     -1.91847548666549      0.12545390700990
  H   0.11317010149415     -2.24913814282930     -0.37622067454584
  H   -1.55057746963683     -2.20202665734009     -0.35161144461389
  N   -1.68927513780973      0.07652283410485      0.92042790135262
  H   -2.14778889932948      0.81207119182618      0.40726087359685
  H   -2.34128767153301     -0.59972360746639      1.28572716511500
