15
Coordinates from ORCA-job run
  C   0.31470829667389      0.44093510707333     -0.15192787683137
  C   -0.50488007100259     -0.62347767123968      0.02507498412967
  N   0.45514742724627      1.10314267074666     -1.41299177777127
  H   0.15724353894466      0.52501144184353     -2.18633892278916
  H   -0.02485604701490      1.99480895414857     -1.45329404772179
  C   1.23727103156603      0.96879259644910      0.90745105878998
  H   0.92984863673037      0.67554675648380      1.91397568729610
  H   2.27118026768153      0.64445196855496      0.74567103034226
  H   1.24512678635668      2.06316410859917      0.87776731268545
  N   -0.41178380844117     -1.55171364654697      1.07891710716097
  H   0.34002465981420     -1.35624699866072      1.72137398329549
  H   -1.29444213212990     -1.65675990263943      1.56220430653821
  N   -1.55238789803190     -0.98608991742033     -0.84349518529119
  H   -1.71129266061123     -0.31520029208126     -1.57837323640870
  H   -1.45090802778192     -1.92436517531072     -1.20701442342465
