15
Coordinates from ORCA-job run
  C   0.51060719181410      0.24144749069959     -0.12962096647277
  C   -0.61620775287095     -0.44840559226652      0.16478541808305
  N   1.49466181388701     -0.23080495236004     -1.03577949827864
  H   2.42629989421463     -0.21231008203607     -0.64051267332526
  H   1.29065620334926     -1.15074912283382     -1.39782046639061
  C   0.76084372853833      1.62984517384646      0.37055194026338
  H   0.08022501209639      1.86842710860507      1.18647074991021
  H   0.63644900569115      2.36630793960003     -0.43005481968477
  H   1.79248157822229      1.72541384499834      0.73024663683312
  N   -0.80003446333193     -1.83774555930196     -0.08092850424090
  H   -1.39914168339655     -2.04047591173866     -0.87247681014604
  H   0.07087660162030     -2.34228293308224     -0.16213370839336
  N   -1.70425368287985      0.17924681508776      0.82459542701821
  H   -2.29196110609550     -0.52114686358576      1.25416197524123
  H   -2.25150234085869      0.77323264436783      0.21751529958314
