15
Coordinates from ORCA-job run
  C   0.30336882313180      0.46109079978956     -0.17559353696233
  C   -0.50728306085981     -0.57417431280762      0.14538338233343
  N   0.39168712200112      1.00037582587862     -1.48464379875835
  H   -0.25180821566587      0.57123634880263     -2.13332715498751
  H   0.27676227203130      2.00596072747739     -1.49719906518076
  C   1.28374340084858      1.04825339510741      0.79114908898689
  H   1.24821459078608      2.14370873660506      0.75365936434174
  H   1.05844609727332      0.72283351874680      1.80560031141653
  H   2.30842149164353      0.75664758975013      0.53846037591302
  N   -0.34712297053262     -1.27431553548162      1.36953665509057
  H   -1.20297868497548     -1.76128735257659      1.59551040438405
  H   0.43064395096175     -1.91941134817497      1.36099954240954
  N   -1.60679672468885     -1.01416152271265     -0.64398059615660
  H   -1.42724886510982     -1.86750253998534     -1.16000083927680
  H   -1.95804922684505     -0.29825433041879     -1.26355413355342
