15
Coordinates from ORCA-job run
  C   0.29039253194624      0.47251770378207     -0.17490295827056
  C   -0.55636830915405     -0.56872011889545     -0.00694370801017
  N   0.29227627515543      1.19681996427522     -1.39233796965705
  H   -0.59539367298036      1.05458663012224     -1.86397213200277
  H   0.44307585182631      2.18512691593468     -1.22837388211834
  C   1.35439865632054      0.87785831797901      0.79671202002450
  H   2.30391806976412      1.00388899486191      0.26771917963774
  H   1.50378031641750      0.13343457721267      1.57927796185165
  H   1.12035129259937      1.83460910708915      1.27917769981184
  N   -0.75619994514500     -1.30654133344298      1.18980363214854
  H   -0.38645938598425     -0.83769519067398      2.00347331207132
  H   -0.38439577951933     -2.24865234804874      1.13852265398129
  N   -1.42747802068310     -0.91681258574840     -1.07704113449615
  H   -0.96960094462078     -1.46894373382407     -1.79138437458526
  H   -2.23329693594263     -1.41047690062333     -0.71873030038658
