17

C	-0.295026	-0.066763	-1.503373
C	0.0	0.0	0.0
Cl	-2.058777	-0.450499	-1.815403
H	1.099096	0.0	0.0
C	-0.098668	1.254475	-2.129534
N	0.098654	2.246021	-2.729049
N	0.509066	-1.102853	-2.086422
H	0.505003	-1.035432	-3.096904
H	1.467044	-0.989337	-1.746609
C	-0.456516	-1.253281	0.731456
H	-1.543245	-1.258148	0.863335
H	-0.168468	-2.151367	0.183528
H	0.02055	-1.275176	1.714443
N	-0.492814	1.244356	0.56208
H	-1.327197	1.082597	1.112081
H	0.219107	1.64763	1.157468
Br	3.516971	0.0	0.0
