17

C	-0.546235	-0.02086	-1.436231
C	0.0	0.0	0.0
Cl	0.276543	1.351093	-2.368574
H	1.097728	0.0	0.0
C	-0.183799	-1.243507	-2.159698
N	0.036088	-2.239035	-2.743008
N	-1.959896	0.120647	-1.411705
H	-2.331262	0.297039	-2.33606
H	-2.157586	0.895699	-0.783716
C	-0.487541	-1.21339	0.776236
H	-0.010779	-1.210978	1.760553
H	-0.193276	-2.13903	0.278702
H	-1.573836	-1.200059	0.89302
N	-0.516763	1.233613	0.622454
H	-0.503545	1.099655	1.627095
H	0.153068	1.971451	0.427931
Br	3.587609	0.0	0.0
