17

C	-0.549824	-0.007026	-1.436139
C	0.0	0.0	0.0
Cl	0.284585	1.362216	-2.365692
H	1.097678	0.0	0.0
C	-0.198897	-1.228915	-2.167307
N	0.076086	-2.210086	-2.750644
N	-1.960856	0.150798	-1.405736
H	-2.147057	0.923058	-0.771169
H	-2.333516	0.338593	-2.326964
C	-0.490705	-1.217859	0.767403
H	-1.576883	-1.202682	0.881767
H	-0.016825	-1.221643	1.752795
H	-0.19606	-2.140961	0.266158
N	-0.51144	1.230137	0.632335
H	-0.500158	1.085999	1.635056
H	0.162898	1.965368	0.443941
Br	3.586492	0.0	0.0
