17

C	-0.35029	0.040922	-1.492462
C	0.0	0.0	0.0
Cl	0.019295	-1.605993	-2.257321
H	1.105009	0.0	0.0
C	-1.789053	0.23485	-1.724356
N	-2.93735	0.362087	-1.935873
N	0.408021	1.085714	-2.084003
H	0.288243	1.118748	-3.08784
H	1.392466	0.949524	-1.850968
C	-0.561647	-1.18442	0.75599
H	-0.297832	-1.082375	1.812606
H	-0.137173	-2.121694	0.400405
H	-1.652552	-1.214414	0.675023
N	-0.547345	1.240163	0.570456
H	-0.250961	1.274294	1.540839
H	-0.090076	2.017696	0.105114
Br	3.579719	0.0	0.0
