17

C	-0.521272	0.019624	-1.444015
C	0.0	0.0	0.0
Cl	0.042621	1.482172	-2.297165
H	1.095603	0.0	0.0
C	-0.012369	-1.136135	-2.209523
N	0.274405	-2.111558	-2.799675
N	-1.982063	0.045511	-1.452293
H	-2.30054	0.196375	-2.403884
H	-2.314383	-0.869761	-1.164023
C	-0.444779	-1.280617	0.711056
H	0.056113	-1.317501	1.680317
H	-0.161135	-2.183172	0.163304
H	-1.526869	-1.29005	0.88995
N	-0.426313	1.216651	0.668532
H	-1.302379	1.082135	1.156249
H	0.292544	1.49395	1.323523
Br	3.567828	0.0	0.0
