17

C	-0.290403	-0.068055	-1.510089
C	0.0	0.0	0.0
Cl	-2.036294	-0.502939	-1.799014
H	1.098349	0.0	0.0
C	-0.098639	1.260577	-2.11481
N	0.065419	2.296965	-2.641412
N	0.533596	-1.014785	-2.237106
H	0.35639	-1.941574	-1.862277
H	1.504796	-0.782696	-2.009575
C	-0.438911	-1.24605	0.756568
H	-1.52632	-1.281574	0.869957
H	-0.114096	-2.167736	0.268292
H	0.022863	-1.224092	1.746044
N	-0.50472	1.235393	0.572489
H	-1.318681	1.064566	1.149687
H	0.216322	1.663645	1.137733
Br	3.518635	0.0	0.0
