15
Coordinates from ORCA-job run
  C   -0.48905683955058      0.07700809639365     -0.67276389303122
  C   0.93422826914107     -0.22064733813671     -0.14669740398997
  F   -0.65217709478862     -0.66725798573436     -1.83251543846258
  H   1.61315737137579     -0.08298066147251     -1.00142784671271
  C   -0.52389499864822      1.50486006128277     -1.03878943799107
  N   -0.50932049635335      2.64836218035135     -1.30576547685004
  C   -1.58740926947364     -0.26798081994272      0.30669461417871
  H   -1.43297870598286      0.27162235523899      1.24027010048869
  H   -1.56951508107157     -1.34216273463339      0.49808361016583
  H   -2.55485422155918     -0.00067508141240     -0.11992055362399
  C   1.01354415498412     -1.62810899341688      0.25373000198670
  N   1.08634520495847     -2.74942162195573      0.59255239547460
  N   1.21199468459389      0.64328085206832      0.99489039445312
  H   1.95555615220264      0.25798061739309      1.56296366790057
  H   1.50438087017205      1.55712107397652      0.66869526601336
