15
Coordinates from ORCA-job run
  C   -0.52421872419036      0.07778972880569     -0.64515403069051
  C   0.92495052236988     -0.22334983815061     -0.19812741765257
  F   -0.75275593072425     -0.66672704994784     -1.79374028550466
  H   1.55660243195562     -0.08880458399648     -1.08879476031495
  C   -0.57840821052709      1.50538590887888     -1.00914938388800
  N   -0.58338616742785      2.64914003480932     -1.27559786685235
  C   -1.56764162725334     -0.26405926907916      0.39385280940246
  H   -1.35880177635883      0.27410150558471      1.31769952837783
  H   -1.54370452195597     -1.33849593294386      0.58297385721300
  H   -2.55632478429012      0.00811988300726      0.02251691028992
  C   1.02140799466389     -1.63055476602885      0.19944439928091
  N   1.10887257662750     -2.75163414645003      0.53539163327621
  N   1.26793025921466      0.64087312944855      0.92540140619942
  H   1.54483890280715      1.55339017511184      0.58229357496975
  H   2.04063905508909      0.25382522095058      1.45198962589353
