15
Coordinates from ORCA-job run
  C   -0.51760223430036      0.24557687917941     -0.52774852354174
  C   0.80991223419234     -0.42690546329524     -0.12043973245644
  F   -0.51277469096850      0.32741676070160     -1.90853788885739
  H   0.85008406210316     -1.35623734796412     -0.69880903306174
  C   -0.54340690280999      1.61570954340909      0.01500540778321
  N   -0.54426996336241      2.69209958742141      0.48423819958765
  C   -1.74271273101442     -0.53935698409924     -0.10148239536450
  H   -1.67073880297042     -1.55638324192488     -0.49378774539453
  H   -1.83636513219092     -0.57552670811385      0.98405510462880
  H   -2.63047604428311     -0.06454989297626     -0.52097817789167
  C   0.77174926503545     -0.77281465622406      1.31464894005573
  N   0.78612719083838     -1.01349261609201      2.46473257293624
  N   1.93375481584323      0.40129081656927     -0.50831297427167
  H   2.78636491670879     -0.14333182230153     -0.52591016410241
  H   2.05935401717877      1.16750514571041      0.14332640995044
