15
Coordinates from ORCA-job run
  C   -0.52981883807970      0.09586418930486     -0.65310777369913
  C   0.93933007083331     -0.15481007754346     -0.25537223905822
  F   -0.80357196010762     -0.73582502555142     -1.73132914951696
  H   1.54644089294377      0.09744759679349     -1.13032343658596
  C   -0.65075142922686      1.48967420548121     -1.11182338983477
  N   -0.76544819122773      2.59268611812488     -1.49671289543241
  C   -1.51540327141813     -0.20336760922543      0.45609404585220
  H   -2.52961665254992     -0.06084484704800      0.08118367479646
  H   -1.35809673109092      0.46914275945679      1.30013729990138
  H   -1.40165682239319     -1.24143253197431      0.77518614199623
  C   1.12772985699122     -1.58957770719892      0.02817889393130
  N   1.28319181501076     -2.71435319133866      0.32915210182361
  N   1.29951119443609      0.72636788484294      0.84062963817861
  H   1.06602982854254      0.30967465823419      1.73310777238710
  H   2.29213023733638      0.91935357764184      0.83499931526056
