14

C	-0.292925	0.033067	-1.491949
C	0.0	0.0	0.0
Br	-0.319876	-1.857617	-2.235239
H	1.0944	0.0	0.0
H	-0.315809	0.962422	0.412524
N	-1.70564	0.511721	-1.820496
O	-2.536197	0.479374	-0.919511
O	-1.900784	0.899119	-2.967395
N	0.608662	0.889315	-2.106323
H	0.524616	0.908812	-3.112327
H	1.564978	0.722327	-1.786285
C	-0.587835	-1.079482	0.768665
N	-1.038376	-1.941387	1.425494
Cl	3.287795	0.0	0.0
