14

C	-0.531274	-0.002851	-1.420979
C	0.0	0.0	0.0
Br	-0.123457	-1.742672	-2.273637
H	1.091942	0.0	0.0
H	-0.345957	-0.890144	0.523896
N	-2.10363	-0.038711	-1.362075
O	-2.701314	0.618312	-2.209922
O	-2.624209	-0.725154	-0.493416
N	-0.074183	1.053999	-2.188999
H	0.199531	1.859482	-1.64857
H	-0.68289	1.280278	-2.96049
C	-0.502159	1.189549	0.682344
N	-0.91614	2.163957	1.191037
Cl	3.263739	0.0	0.0
