14

C	-0.292317	-0.093185	-1.497453
C	0.0	0.0	0.0
Br	-2.21467	-0.292436	-1.866275
H	1.097075	0.0	0.0
H	-0.396672	0.911509	0.445734
N	0.093034	1.276114	-2.097745
O	0.802264	1.281361	-3.092242
O	-0.354503	2.259826	-1.519717
N	0.418178	-1.102598	-2.195808
H	0.130717	-2.009205	-1.844999
H	1.413129	-0.980004	-1.992881
C	-0.478255	-1.18476	0.691839
N	-0.86328	-2.152887	1.234459
Cl	3.255962	0.0	0.0
