14

C	-0.458609	-0.002174	-1.440626
C	0.0	0.0	0.0
Br	-2.523982	0.397483	-1.452254
H	1.094005	0.0	0.0
H	-0.345561	0.902396	0.50214
N	0.05075	1.230351	-2.180151
O	0.264577	2.231521	-1.514511
O	0.163627	1.121405	-3.395918
N	-0.108818	-1.120103	-2.143343
H	-0.290545	-1.99473	-1.67492
H	-0.338526	-1.103551	-3.124276
C	-0.504371	-1.1867	0.673203
N	-0.897958	-2.171234	1.178385
Cl	3.266538	0.0	0.0
