14

C	-0.28075	-0.02759	-1.494183
C	0.0	0.0	0.0
Br	-0.133889	-1.985949	-2.092789
H	1.093778	0.0	0.0
H	-0.398993	-0.86829	0.517828
N	-1.732419	0.266997	-1.854803
O	-2.581834	-0.01676	-1.019371
O	-1.940146	0.741771	-2.966282
N	0.551352	0.850283	-2.154362
H	0.450376	0.847153	-3.158488
H	1.518172	0.762442	-1.837463
C	-0.490703	1.236444	0.59789
N	-0.895604	2.220437	1.094368
Cl	3.279634	0.0	0.0
