14

C	-0.571344	0.00593	-1.4047
C	0.0	0.0	0.0
Br	0.28039	1.533288	-2.375934
H	1.089304	0.0	0.0
H	-0.298042	0.943449	0.471245
N	-0.158839	-1.231914	-2.196843
O	0.656565	-1.986617	-1.689858
O	-0.713438	-1.371527	-3.284016
N	-1.97817	0.022261	-1.438714
H	-2.344482	0.800688	-0.908059
H	-2.317382	0.045629	-2.392065
C	-0.541483	-1.104653	0.786598
N	-1.000226	-1.961646	1.444457
Cl	3.319965	0.0	0.0
