14

C	-0.455653	0.007178	-1.440679
C	0.0	0.0	0.0
Br	-2.530401	0.339189	-1.449479
H	1.093961	0.0	0.0
H	-0.35049	0.895798	0.510229
N	0.011462	1.26782	-2.161279
O	0.125717	1.181292	-3.37866
O	0.192527	2.266924	-1.48173
N	-0.068338	-1.089168	-2.158946
H	-0.203726	-1.976274	-1.695601
H	-0.309633	-1.073016	-3.137234
C	-0.49624	-1.196401	0.663128
N	-0.883513	-2.187433	1.160378
Cl	3.267999	0.0	0.0
