14

C	-0.310718	-0.085368	-1.482311
C	0.0	0.0	0.0
Br	-2.240288	-0.334816	-1.836625
H	1.093113	0.0	0.0
H	-0.302056	-0.962978	0.42095
N	-0.014895	1.263972	-2.210833
O	-0.118274	2.301372	-1.574757
O	0.278436	1.171215	-3.397913
N	0.428358	-1.143162	-2.030273
H	0.411863	-1.104043	-3.04168
H	1.391091	-1.081866	-1.689887
C	-0.614014	1.058424	0.778937
N	-1.126751	1.8369	1.492769
Cl	3.25796	0.0	0.0
