16

C	0.0	0.0	0.0
C	-0.388204	0.214143	-1.46956
F	1.393001	0.0	0.0
H	0.038033	1.185015	-1.755978
H	-0.318468	-0.996295	0.323609
C	-0.542589	1.0592	0.923939
H	-0.274004	2.056225	0.564283
H	-1.630818	0.976606	0.984092
H	-0.124351	0.923982	1.923983
C	-1.891585	0.201826	-1.741599
H	-2.363934	-0.715253	-1.39372
H	-2.076597	0.305854	-2.81318
H	-2.407315	1.005959	-1.221829
C	0.291106	-0.795482	-2.291573
N	0.80608	-1.603471	-2.970122
Cl	-4.735696	0.0	0.0
