16

C	0.0	0.0	0.0
C	-0.373559	-0.134721	-1.484985
F	1.395944	0.0	0.0
H	0.211491	0.639783	-1.999344
H	-0.321691	-0.888856	0.551072
C	-0.537565	1.249967	0.645341
H	-0.126511	1.345139	1.653222
H	-1.627081	1.192876	0.715331
H	-0.25617	2.135087	0.067973
C	-1.857714	0.038835	-1.805876
H	-2.038493	-0.176705	-2.861498
H	-2.504987	-0.596379	-1.202334
H	-2.173015	1.062631	-1.606508
C	0.134273	-1.422149	-1.971239
N	0.546838	-2.468715	-2.307933
Cl	-4.712932	0.0	0.0
