16

C	0.0	0.0	0.0
C	-0.377093	0.182878	-1.477782
F	1.392897	0.0	0.0
H	0.098062	1.12189	-1.791233
H	-0.320594	-0.988482	0.344037
C	-0.550689	1.07887	0.894763
H	-0.274367	2.068188	0.520055
H	-0.147793	0.962331	1.903297
H	-1.640071	0.997005	0.93908
C	-1.878398	0.237317	-1.753139
H	-2.062492	0.250353	-2.829173
H	-2.41151	-0.604835	-1.316721
H	-2.332743	1.124103	-1.315954
C	0.257124	-0.884285	-2.261877
N	0.735019	-1.739197	-2.90969
Cl	-4.704006	0.0	0.0
