14

C	-0.4945	-0.006391	-1.436593
C	0.0	0.0	0.0
Br	0.546833	-1.096212	-2.615201
H	1.093159	0.0	0.0
H	-0.430453	1.013198	-1.823667
N	-1.983226	-0.349371	-1.521106
O	-2.41968	-0.820797	-2.559554
O	-2.644285	-0.035235	-0.536929
N	-0.401283	-1.240553	0.746368
O	-0.733525	-2.21485	0.078736
O	-0.309756	-1.193874	1.96616
C	-0.454532	1.177552	0.725595
N	-0.781667	2.17172	1.258579
Cl	3.117311	0.0	0.0
