19

C	-0.271263	0.015383	-1.504719
C	0.0	0.0	0.0
F	-0.241929	1.305064	-1.960101
H	1.099543	0.0	0.0
N	0.60199	-0.763202	-2.308038
H	1.547665	-0.646781	-1.942381
H	0.340606	-1.737944	-2.255938
N	-1.704647	-0.463813	-1.769276
O	-2.601676	0.362708	-1.640343
O	-1.871928	-1.657927	-2.012097
C	-0.442515	-1.31321	0.638459
H	-0.032653	-1.365723	1.649557
H	-0.067193	-2.180091	0.090732
H	-1.533491	-1.391577	0.704374
C	-0.550254	1.205878	0.743903
H	-1.642506	1.245129	0.694111
H	-0.149975	2.133119	0.335453
H	-0.251674	1.144102	1.793647
Cl	3.425683	0.0	0.0
