19

C	-0.320533	0.117358	-1.486381
C	0.0	0.0	0.0
F	-1.576586	0.637533	-1.723958
H	1.096472	0.0	0.0
N	0.646842	0.885907	-2.138974
H	0.618709	0.784934	-3.143922
H	1.579864	0.686319	-1.780686
N	-0.446217	-1.316288	-2.097753
O	0.591523	-1.819286	-2.519125
O	-1.545703	-1.862328	-2.075902
C	-0.533959	-1.252839	0.676466
H	-0.271846	-1.216399	1.736655
H	-1.621444	-1.330254	0.586924
H	-0.082836	-2.157021	0.262881
C	-0.46969	1.269113	0.706736
H	-0.051022	1.288022	1.716055
H	-0.120866	2.157782	0.178988
H	-1.560859	1.306269	0.776
Cl	3.440784	0.0	0.0
