19

C	-0.342177	0.094873	-1.486886
C	0.0	0.0	0.0
F	-1.582833	0.64325	-1.677256
H	1.099245	0.0	0.0
N	0.590339	0.803755	-2.305814
H	1.527874	0.482179	-2.06045
H	0.538724	1.781253	-2.040529
N	-0.42777	-1.318992	-2.060831
O	-1.539037	-1.821893	-2.18792
O	0.642902	-1.864459	-2.296764
C	-0.555419	-1.231597	0.700466
H	-1.645615	-1.285826	0.615721
H	-0.125023	-2.149371	0.29445
H	-0.289992	-1.191558	1.759868
C	-0.441901	1.282458	0.703263
H	-1.53006	1.341998	0.789346
H	-0.086781	2.17463	0.181387
H	-0.004488	1.303311	1.70367
Cl	3.444945	0.0	0.0
