19

C	-0.507584	0.063647	-1.428645
C	0.0	0.0	0.0
F	-0.230648	-1.084975	-2.104636
H	1.097554	0.0	0.0
N	-1.91139	0.287923	-1.534341
H	-2.180203	0.238403	-2.511166
H	-2.122854	1.214904	-1.18936
N	0.259381	1.161723	-2.220063
O	-0.12034	2.315891	-2.007695
O	1.138477	0.827118	-2.996838
C	-0.459371	-1.316075	0.62704
H	-1.550425	-1.392511	0.642189
H	-0.083322	-1.364779	1.651772
H	-0.049673	-2.168492	0.085168
C	-0.460884	1.186908	0.844033
H	-0.172241	2.140615	0.401788
H	-1.545081	1.175709	1.005981
H	0.02452	1.118275	1.819958
Cl	3.477823	0.0	0.0
