19

C	-0.524687	0.031489	-1.430121
C	0.0	0.0	0.0
F	-0.089413	-1.075927	-2.08742
H	1.096037	0.0	0.0
N	-1.942761	0.121195	-1.636558
H	-2.254825	1.042452	-1.363088
H	-2.395859	-0.570493	-1.05352
N	0.049444	1.22895	-2.192389
O	0.978558	1.033191	-2.957444
O	-0.497719	2.312458	-1.969822
C	-0.433558	-1.307635	0.666481
H	-1.516341	-1.352767	0.843436
H	0.063751	-1.381781	1.636032
H	-0.13099	-2.17186	0.075073
C	-0.455936	1.196526	0.829947
H	-0.09845	2.13981	0.417819
H	-1.547475	1.243518	0.920895
H	-0.037369	1.097242	1.833778
Cl	3.457999	0.0	0.0
