19

C	-0.499692	0.032687	-1.426386
C	0.0	0.0	0.0
F	0.101363	-0.995148	-2.149419
H	1.092913	0.0	0.0
N	-1.90855	-0.005159	-1.546257
H	-2.262807	-0.82396	-1.070866
H	-2.159406	-0.035734	-2.52686
N	-0.066957	1.27443	-2.215707
O	0.728029	2.055563	-1.717271
O	-0.560755	1.371359	-3.339916
C	-0.40833	-1.336102	0.634613
H	-1.476332	-1.375571	0.883892
H	-0.153857	-2.17774	-0.011484
H	0.152605	-1.457528	1.563409
C	-0.518488	1.16003	0.84343
H	-0.15387	1.03619	1.866307
H	-0.147705	2.116011	0.478225
H	-1.612071	1.182143	0.861485
Cl	3.521442	0.0	0.0
