19

C	-0.340256	-0.063697	-1.487472
C	0.0	0.0	0.0
F	-1.586391	0.446825	-1.741652
H	1.093319	0.0	0.0
N	0.586737	0.567288	-2.371944
H	0.421636	1.566508	-2.328112
H	1.532963	0.386792	-2.033829
N	-0.410707	-1.534936	-1.906208
O	-1.517187	-2.063176	-1.966784
O	0.666303	-2.086963	-2.089907
C	-0.555463	-1.148147	0.828919
H	-0.126902	-2.103969	0.522907
H	-0.286909	-0.99452	1.876334
H	-1.64584	-1.210358	0.754012
C	-0.439102	1.352947	0.556746
H	-1.528312	1.438056	0.604855
H	-0.0506	2.178354	-0.044449
H	-0.030692	1.470637	1.562934
Cl	3.437127	0.0	0.0
