15

C	0.0	0.0	0.0
C	-0.521541	0.12908	-1.459656
Cl	1.757237	0.0	0.0
H	0.357896	0.179414	-2.109022
H	-0.355273	0.831183	0.594811
N	-0.397116	-1.224184	0.790768
O	-0.815782	-1.009495	1.92468
O	-0.183603	-2.328424	0.30678
N	-1.172436	1.445239	-1.48034
H	-2.025745	1.240062	-0.926079
H	-1.459244	1.619439	-2.440012
N	-1.312369	-1.015726	-1.872606
H	-2.145206	-0.927084	-1.262864
H	-1.598556	-0.836262	-2.830503
F	-2.786684	0.0	0.0
