15

C	0.0	0.0	0.0
C	-0.517894	0.201206	-1.45213
Cl	1.757024	0.0	0.0
H	0.363244	0.281367	-2.097046
H	-0.356834	0.79977	0.635561
N	-0.394014	-1.264688	0.726012
O	-0.170188	-2.342012	0.188883
O	-0.826229	-1.110558	1.864714
N	-1.173122	1.51397	-1.410697
H	-2.028724	1.274833	-0.874365
H	-1.450763	1.740258	-2.361758
N	-1.304464	-0.923833	-1.922364
H	-1.588041	-0.699972	-2.87066
H	-2.137247	-0.874005	-1.311324
F	-2.782345	0.0	0.0
