15

C	0.0	0.0	0.0
C	-0.46769	0.038865	-1.509951
Cl	1.760052	0.0	0.0
H	0.44745	-0.010707	-2.10909
H	-0.369987	0.849312	0.557025
N	-0.400666	-1.203868	0.799534
O	-0.300791	-2.30925	0.270825
O	-0.709728	-1.007539	1.969857
N	-1.050667	1.368471	-1.637952
H	-1.89702	1.254052	-1.059445
H	-1.363824	1.435384	-2.601625
N	-1.366355	-0.983711	-1.993197
H	-0.938753	-1.893807	-1.874651
H	-2.159974	-0.899213	-1.336558
F	-2.649978	0.0	0.0
