11

C	0.0	0.0	0.0
C	-0.503548	0.038107	-1.443227
Br	1.947976	0.0	0.0
H	-0.200864	-0.864179	-1.978567
H	-0.347941	0.884699	0.532916
H	-1.616733	0.048612	-1.252476
C	-0.463127	-1.198563	0.703276
N	-0.562099	-2.210374	1.297055
C	-0.06681	1.221249	-2.159366
N	0.236357	2.189373	-2.75363
H	-2.678837	0.0	0.0
