11

C	0.0	0.0	0.0
C	-0.300608	-0.034262	-1.518302
Br	1.952617	0.0	0.0
H	0.110475	-0.967842	-1.920085
H	-0.298218	0.948514	0.438579
H	0.248311	0.7861	-1.99453
C	-0.620034	-1.096944	0.727986
N	-0.654793	-2.092864	1.376171
C	-1.722032	0.071138	-1.896647
N	-2.579434	0.174768	-2.712919
H	-2.092878	0.0	0.0
