11

C	0.0	0.0	0.0
C	-0.198169	0.05868	-1.536952
Br	1.949519	0.0	0.0
H	0.2914	-0.810477	-1.966208
H	-0.342363	0.873183	0.560483
H	0.374497	0.926591	-1.873715
C	-0.544295	-1.217841	0.62745
N	-0.729354	-2.209789	1.248082
C	-1.531122	0.208694	-2.095249
N	-2.520118	0.290446	-2.738333
H	-2.005402	0.0	0.0
