11

C	0.0	0.0	0.0
C	-0.516565	-0.022731	-1.438661
Br	1.949716	0.0	0.0
H	-0.227798	-0.95187	-1.937337
H	-0.347555	0.903376	0.500829
H	-1.632695	-0.002551	-1.224393
C	-0.457317	-1.172262	0.750839
N	-0.552618	-2.16867	1.370838
C	-0.087702	1.124705	-2.212201
N	0.215003	2.06419	-2.851602
H	-2.69195	0.0	0.0
