11

C	0.0	0.0	0.0
C	-0.372404	-0.061699	-1.498166
Br	1.946203	0.0	0.0
H	-1.466598	-0.164192	-1.494328
H	-0.333016	0.9404	0.432971
H	0.109536	-0.927558	-1.961995
C	-0.587445	-1.111474	0.751469
N	-0.596435	-2.09716	1.409761
C	-0.00266	1.148222	-2.219353
N	0.251339	2.112502	-2.842956
H	-2.383341	0.0	0.0
