11

C	0.0	0.0	0.0
C	-0.462515	-0.042723	-1.458761
Br	1.945465	0.0	0.0
H	-0.125801	0.860768	-1.973299
H	-0.360969	0.923421	0.449493
H	-1.572333	-0.028681	-1.322527
C	-0.469743	-1.134434	0.796434
N	-0.554358	-2.085824	1.485948
C	-0.013125	-1.2176	-2.177422
N	0.312891	-2.167301	-2.789287
H	-2.630411	0.0	0.0
