11

C	0.0	0.0	0.0
C	-0.389599	-0.091994	-1.491054
Br	1.950445	0.0	0.0
H	0.126167	0.69675	-2.046401
H	-0.366243	0.950118	0.384203
H	-1.481676	0.068723	-1.466446
C	-0.567376	-1.070346	0.815667
N	-0.754051	-1.989146	1.542353
C	-0.087254	-1.389881	-2.071202
N	0.097501	-2.455375	-2.516297
H	-2.519065	0.0	0.0
