16

C	0.0	0.0	0.0
C	-0.463888	-0.01298	-1.468961
Cl	1.75169	0.0	0.0
H	0.413318	0.235382	-2.082716
H	-0.35582	0.891316	0.491328
N	-0.420288	-1.133232	0.890845
O	-0.384809	-2.27745	0.44998
O	-0.616398	-0.835154	2.062659
N	-1.329208	1.206251	-1.703705
O	-2.162811	1.154414	-2.598946
O	-1.005653	2.238676	-1.121443
C	-1.109929	-1.258277	-2.029874
H	-2.006638	-1.436086	-1.4453
H	-1.361801	-1.077619	-3.075641
H	-0.420836	-2.098185	-1.963298
F	-2.361668	0.0	0.0
