16

C	0.0	0.0	0.0
C	-0.251538	0.048747	-1.541509
Cl	1.756708	0.0	0.0
H	0.482887	-0.625633	-1.981264
H	-0.426922	0.820639	0.552961
N	-0.46194	-1.276844	0.607402
O	-0.594082	-1.283667	1.823836
O	-0.519245	-2.261207	-0.124773
N	0.22011	1.407709	-1.995492
O	-0.036046	2.385718	-1.296586
O	0.786694	1.461575	-3.088351
C	-1.568524	-0.198152	-2.255109
H	-1.945357	-1.174467	-1.971126
H	-1.345335	-0.169133	-3.329991
H	-2.311459	0.524808	-1.945157
F	-2.374545	0.0	0.0
