16

C	0.0	0.0	0.0
C	-0.455072	-0.121403	-1.46618
Cl	1.760453	0.0	0.0
H	0.424312	0.092522	-2.08921
H	-0.346881	0.930694	0.419897
N	-0.423193	-1.056366	0.976241
O	-0.419643	-2.230547	0.622978
O	-0.596444	-0.666329	2.124314
N	-1.327368	1.069269	-1.794157
O	-0.997446	2.146491	-1.30402
O	-2.169017	0.942396	-2.674152
C	-1.077913	-1.412976	-1.943301
H	-0.371055	-2.232587	-1.817835
H	-1.975288	-1.57352	-1.354092
H	-1.324115	-1.308631	-3.000579
F	-2.351569	0.0	0.0
