16

C	0.0	0.0	0.0
C	-0.52058	-0.159568	-1.438156
Cl	1.777066	0.0	0.0
H	-1.388409	-0.809958	-1.376488
H	-0.364787	0.913838	0.447602
N	-0.42773	-1.098002	0.930914
O	-0.589254	-2.218624	0.474089
O	-0.46824	-0.787286	2.115629
N	0.483283	-0.813223	-2.35142
O	0.510249	-2.043356	-2.370435
O	1.198927	-0.096261	-3.05296
C	-0.924136	1.192905	-1.983096
H	-1.226388	1.115669	-3.030702
H	-0.111567	1.919889	-1.913154
H	-1.780503	1.46026	-1.365591
F	-2.466663	0.0	0.0
