16

C	0.0	0.0	0.0
C	-0.44379	-0.012097	-1.470259
Cl	1.775275	0.0	0.0
H	0.432336	0.282526	-2.066002
H	-0.339959	0.899498	0.487189
N	-0.418566	-1.122583	0.902518
O	-0.546403	-0.81703	2.080434
O	-0.460289	-2.265207	0.46469
N	-1.353817	1.171896	-1.70497
O	-1.054084	2.216753	-1.133046
O	-2.189607	1.08515	-2.595712
C	-1.025297	-1.279233	-2.055613
H	-1.931973	-1.501531	-1.503068
H	-0.303077	-2.088541	-1.967167
H	-1.248332	-1.10926	-3.109001
F	-2.34913	0.0	0.0
