16

C	0.0	0.0	0.0
C	-0.453916	-0.06261	-1.469785
Cl	1.761915	0.0	0.0
H	0.425171	0.179817	-2.082975
H	-0.348087	0.911548	0.458629
N	-0.419272	-1.100169	0.929189
O	-0.610845	-0.761626	2.089818
O	-0.393384	-2.257598	0.525917
N	-1.328051	1.139002	-1.74977
O	-0.99592	2.195258	-1.21755
O	-2.169193	1.047749	-2.634668
C	-1.072883	-1.335527	-2.00023
H	-1.32541	-1.183857	-3.049687
H	-1.96623	-1.528345	-1.414773
H	-0.361567	-2.15669	-1.915778
F	-2.347729	0.0	0.0
