21

C	-0.304959	-0.060634	-1.504172
C	0.0	0.0	0.0
F	-0.151714	1.254411	-2.022325
H	1.098192	0.0	0.0
C	0.764639	-0.896214	-2.192153
H	1.729837	-0.623222	-1.743837
H	0.591972	-1.962207	-2.02067
H	0.746267	-0.711287	-3.271502
C	-1.721342	-0.462857	-1.881005
H	-1.858439	-0.362908	-2.961559
H	-1.920838	-1.498148	-1.602118
H	-2.450838	0.179854	-1.383206
C	-0.458052	-1.266576	0.716277
H	-0.03619	-1.276104	1.725277
H	-1.550643	-1.337663	0.80521
H	-0.09339	-2.167201	0.214994
C	-0.554572	1.241783	0.678431
H	-0.140073	2.141946	0.223031
H	-0.265995	1.238399	1.735829
H	-1.652665	1.299006	0.631204
F	2.781346	0.0	0.0
