21

C	-0.307463	0.104491	-1.501563
C	0.0	0.0	0.0
F	-0.171608	-1.198271	-2.056468
H	1.098192	0.0	0.0
C	-1.721408	0.52947	-1.862801
H	-1.918571	1.555977	-1.547488
H	-1.856611	0.466571	-2.947225
H	-2.453899	-0.128471	-1.386457
C	0.770057	0.947225	-2.169596
H	0.611417	2.01052	-1.966397
H	0.745367	0.794498	-3.253951
H	1.734481	0.652159	-1.732906
C	-0.556081	-1.260515	0.641654
H	-0.142618	-2.147698	0.162094
H	-1.65352	-1.31592	0.59076
H	-0.269904	-1.287113	1.698651
C	-0.453374	1.245643	0.755371
H	-0.031749	1.221618	1.764853
H	-1.546037	1.318888	0.846204
H	-0.083901	2.160051	0.282192
F	2.781702	0.0	0.0
