21

C	-0.155507	-5e-05	-1.518243
C	0.0	0.0	0.0
F	-1.526986	0.000242	-1.920459
H	1.098716	0.0	0.0
C	0.515559	1.234967	-2.096735
H	-0.028261	2.143963	-1.833628
H	1.522031	1.256709	-1.666824
H	0.567572	1.170617	-3.187534
C	0.515369	-1.235161	-2.096788
H	0.570654	-1.17026	-3.188909
H	1.521982	-1.257649	-1.663188
H	-0.03044	-2.143875	-1.834907
C	-0.560521	-1.253518	0.6603
H	-0.46393	-1.174573	1.748211
H	-0.012495	-2.148761	0.360204
H	-1.623147	-1.398207	0.424839
C	-0.560498	1.253508	0.660327
H	-0.012515	2.148754	0.360205
H	-1.62313	1.398186	0.424994
H	-0.463825	1.174511	1.748215
F	2.772009	0.0	0.0
