15
Coordinates from ORCA-job run
  C   -0.43733711035958      0.09168472594790     -0.20300768851860
  C   0.83207282662154     -0.69727529188698      0.02806386836940
  F   -0.64291932988182      0.22913585532149     -1.54009868208014
  H   0.69482560651671     -1.73153830927976     -0.28282885059943
  H   1.13103244669092     -0.64373700469169      1.07432417675842
  N   -0.29458626570104      1.49070748232032      0.38832116873986
  O   0.07603057964220      1.51596246439019      1.55714040708148
  O   -0.61911529341215      2.43803843641072     -0.30657295074738
  C   -1.64810406230573     -0.54076935455046      0.44015226034575
  H   -1.50598382166632     -0.64353612271149      1.51554518957828
  H   -2.51813211368251      0.09010471236545      0.24929859086208
  H   -1.82295733012831     -1.52085736984529     -0.00586298581658
  N   1.96623850555808     -0.15858338116362     -0.78169721992546
  O   2.70486690567891     -0.98117999269852     -1.31191902939882
  O   2.08506845642909      1.06184315007173     -0.82185825464887
