15
Coordinates from ORCA-job run
  C   -0.39737323099956      0.28014366056946     -0.23516746944243
  C   1.11549513586718      0.15542636900097     -0.13769748122767
  F   -0.76022791287799      0.17105260529788     -1.54025595547272
  H   1.44744534637487      0.26640300626344      0.89135063354178
  H   1.58712647986553      0.88244436910896     -0.79798498319367
  N   -0.71021389925656      1.71124779328323      0.20252061462241
  O   -1.32884724762560      2.42364846190136     -0.57309867059266
  O   -0.31864069242234      2.00558121849439      1.32832957176595
  C   -1.22326706030360     -0.65337860492668      0.61056568029643
  H   -1.06624728057508     -1.67980739900115      0.28278850442113
  H   -0.94843754303806     -0.56557911139069      1.66049521322225
  H   -2.27632304749802     -0.39550357894017      0.48279988940946
  N   1.52933912057490     -1.19608288856396     -0.60970873842382
  O   1.40358522857374     -2.11785272831931      0.19524401611436
  O   1.94658660334058     -1.28774317277775     -1.76018082504082
