15
Coordinates from ORCA-job run
  C   -0.42954303480601      0.06868049703603     -0.22482406577007
  C   0.85629265112790     -0.66267992238760      0.09060738640910
  F   -0.57354151066287      0.16068976846407     -1.57392291090301
  H   1.10337102163784     -0.56365684186439      1.14704319789901
  H   0.77313863544644     -1.71085231960892     -0.19149367530334
  N   -0.36887992843159      1.48826242742915      0.33057182589735
  O   -0.06230286202534      1.56033726929354      1.51585628639845
  O   -0.68872678218135      2.40299419318553     -0.40878866304424
  C   -1.64585060911245     -0.59271100755845      0.37727618964101
  H   -1.55303882354843     -0.66015762584016      1.46081820480934
  H   -1.76125412854349     -1.59075940123834     -0.04774196061534
  H   -2.52862893961589     -0.00190546495948      0.12622236860404
  N   2.00473236913337     -0.10438513668943     -0.68475990448721
  O   2.78831354986321     -0.91222469018002     -1.17133385460344
  O   2.08691839171865      1.11836825491848     -0.74353042493167
