15
Coordinates from ORCA-job run
  C   -0.45156563680744      0.21191502139578     -0.20407243564110
  C   1.06406709870240      0.20772553089379     -0.33548275598284
  F   -0.99335857187529     -0.12546693543666     -1.40391529075236
  H   1.36284719093385      0.85740189868590     -1.15747079672187
  H   1.53459666496523      0.49578706404827      0.60100415843509
  N   -0.82660218486120      1.66885992864272      0.06775035693461
  O   -0.29580746412861      2.16335885895619      1.05822653897204
  O   -1.61975428570895      2.20554331450634     -0.69023826791560
  C   -1.05199041789203     -0.63215959145796      0.88944963950744
  H   -2.13159976886356     -0.47043724639403      0.89770452680985
  H   -0.85149427464213     -1.68412026744290      0.69212998341200
  H   -0.63270292417308     -0.36251253127624      1.85752885061658
  N   1.52286452149842     -1.16804614348268     -0.67631704693769
  O   1.59923886416957     -1.96536503485528      0.25754250285510
  O   1.77126118868285     -1.40348386678324     -1.85483996359123
