15

C	-0.537406	-0.078734	-1.393872
C	0.0	0.0	0.0
Br	-2.501467	-0.157657	-1.472146
H	1.092205	0.0	0.0
H	-0.240901	0.778693	-1.987369
N	0.041163	-1.285599	-2.078983
O	-0.500952	-2.376323	-1.95962
O	1.083901	-1.053007	-2.690504
N	-0.35155	-1.091812	0.830794
H	0.403985	-1.227338	1.494752
H	-1.212425	-0.922012	1.333641
N	-0.324158	1.329355	0.547011
O	-0.535645	1.414104	1.765066
O	-0.231686	2.30467	-0.212441
H	2.454111	0.0	0.0
