15

C	-0.651005	-0.004714	-1.364859
C	0.0	0.0	0.0
Br	-0.097848	-1.571962	-2.375788
H	1.094416	0.0	0.0
H	-1.737625	-0.032682	-1.311211
N	-0.31833	1.174202	-2.238491
O	-1.250394	1.623137	-2.902957
O	0.841666	1.557973	-2.26728
N	-0.299645	-1.234664	0.70396
H	0.612756	-1.666079	0.863515
H	-0.649445	-0.972019	1.619435
N	-0.430847	1.149673	0.736966
O	-0.830967	2.152325	0.103168
O	-0.272789	1.139794	1.975783
H	2.384593	0.0	0.0
