15

C	-0.435861	-0.058548	-1.432419
C	0.0	0.0	0.0
Br	-2.386227	-0.258614	-1.672841
H	1.092063	0.0	0.0
H	-0.154872	0.831032	-1.981935
N	0.229801	-1.211729	-2.124422
O	1.034932	-0.909188	-3.002457
O	-0.037368	-2.351208	-1.758294
N	-0.391539	-1.053466	0.856179
H	-1.155856	-1.602491	0.491514
H	0.415914	-1.640887	1.030957
N	-0.372515	1.343031	0.529138
O	-0.631309	1.461357	1.724542
O	-0.267034	2.29573	-0.258412
H	2.497225	0.0	0.0
