15

C	-0.610562	-0.068187	-1.380962
C	0.0	0.0	0.0
Br	-0.001938	-1.663982	-2.322318
H	1.091819	0.0	0.0
H	-1.699497	-0.102348	-1.387547
N	-0.262192	1.099052	-2.272347
O	0.807509	1.659856	-2.088647
O	-1.085533	1.362855	-3.146511
N	-0.294491	-1.128177	0.836633
H	-1.024047	-1.723879	0.472486
H	0.567712	-1.657184	0.942101
N	-0.48252	1.232925	0.648681
O	-1.196372	2.012771	-0.012885
O	-0.096712	1.450738	1.795581
H	2.518319	0.0	0.0
