15

C	-0.608784	-0.071154	-1.380257
C	0.0	0.0	0.0
Br	0.060673	-1.634527	-2.333242
H	1.087933	0.0	0.0
H	-1.695384	-0.150672	-1.385004
N	-0.30998	1.121119	-2.254057
O	-1.135062	1.355458	-3.134639
O	0.727915	1.733315	-2.049899
N	-0.294548	-1.134579	0.830214
H	0.572722	-1.655624	0.939404
H	-1.015318	-1.734484	0.453279
N	-0.50385	1.22224	0.65868
O	-0.088867	1.456535	1.792574
O	-1.279016	1.965992	0.024954
H	2.536941	0.0	0.0
