15

C	-0.396139	-0.017136	-1.469197
C	0.0	0.0	0.0
Br	0.166884	1.542097	-2.449773
H	1.08997	0.0	0.0
H	0.091776	-0.882687	-1.916592
N	-1.876216	-0.236037	-1.642898
O	-2.229073	-1.416782	-1.561153
O	-2.628402	0.7179	-1.779077
N	-0.355838	-1.169541	0.733584
H	-1.169473	-1.65902	0.38978
H	0.459757	-1.773368	0.760761
N	-0.601219	1.205054	0.656186
O	0.080128	2.223582	0.737564
O	-1.758503	1.093251	1.06492
H	2.638713	0.0	0.0
