15

C	-0.361263	-0.047663	-1.470042
C	0.0	0.0	0.0
Br	0.313553	1.47029	-2.447401
H	1.092676	0.0	0.0
H	0.154869	-0.921633	-1.8719
N	-1.827153	-0.285514	-1.77952
O	-2.238048	-1.383195	-1.385148
O	-2.503578	0.542589	-2.367461
N	-0.310579	-1.156353	0.782306
H	0.541979	-1.698484	0.884847
H	-1.06646	-1.706623	0.402622
N	-0.558387	1.199119	0.66641
O	-1.534867	1.760719	0.152999
O	-0.021625	1.548773	1.712448
H	2.571507	0.0	0.0
