15

C	-0.438197	-0.039665	-1.426531
C	0.0	0.0	0.0
Br	-2.372679	-0.37438	-1.677714
H	1.094261	0.0	0.0
H	-0.227127	0.885777	-1.946745
N	0.309354	-1.116795	-2.156667
O	0.131158	-2.283648	-1.825256
O	1.086721	-0.725646	-3.023668
N	-0.37326	-1.080144	0.836619
H	-1.072407	-1.676299	0.418004
H	0.462641	-1.615637	1.046359
N	-0.370986	1.323873	0.567523
O	-0.558323	1.410845	1.779948
O	-0.327433	2.296389	-0.202326
H	2.476362	0.0	0.0
