17

C	-0.540638	0.158758	-1.437535
C	0.0	0.0	0.0
Cl	0.055592	1.710313	-2.124024
H	1.108698	0.0	0.0
C	-0.043606	-0.915982	-2.302694
N	0.243217	-1.787759	-3.035936
C	-2.067498	0.160416	-1.502551
H	-2.452037	-0.76227	-1.060299
H	-2.397605	0.221188	-2.54073
H	-2.464101	1.017816	-0.958183
C	-0.406862	-1.319784	0.486721
N	-0.737	-2.376716	0.880999
C	-0.469195	1.084455	0.970727
H	0.06072	0.945245	1.914422
H	-0.205204	2.068758	0.584342
H	-1.5439	1.041065	1.163876
Br	3.424411	0.0	0.0
