17

C	-0.506538	-0.312292	-1.425906
C	0.0	0.0	0.0
Cl	0.220015	0.865351	-2.574628
H	1.103807	0.0	0.0
C	-0.070069	-1.648993	-1.841593
N	0.179633	-2.738583	-2.203717
C	-2.025675	-0.23055	-1.557106
H	-2.360553	0.786636	-1.35258
H	-2.328039	-0.50094	-2.569957
H	-2.4933	-0.9184	-0.848159
C	-0.477709	-1.052907	0.893644
N	-0.916696	-1.870267	1.615957
C	-0.440007	1.367636	0.531498
H	-1.515738	1.426467	0.71291
H	0.084172	1.546552	1.471747
H	-0.139956	2.148957	-0.167211
Br	3.434899	0.0	0.0
