17

C	-0.375378	-0.183736	-1.480004
C	0.0	0.0	0.0
Cl	-2.177091	-0.329006	-1.669306
H	1.10805	0.0	0.0
C	0.015794	1.008683	-2.236268
N	0.311588	1.962417	-2.855053
C	0.287064	-1.424023	-2.062551
H	1.366609	-1.333215	-1.910224
H	0.058089	-1.516468	-3.125684
H	-0.078984	-2.30841	-1.538229
C	-0.468949	-1.148246	0.768847
N	-0.882847	-2.046402	1.404128
C	-0.48035	1.307614	0.624326
H	-1.569897	1.384391	0.618577
H	-0.050733	2.150979	0.080404
H	-0.123657	1.359804	1.654403
Br	3.431111	0.0	0.0
