17

C	-0.414601	-0.024566	-1.493661
C	0.0	0.0	0.0
Cl	0.278677	1.419599	-2.311525
H	1.10637	0.0	0.0
C	0.174069	-1.204323	-2.136047
N	0.577113	-2.168866	-2.672819
C	-1.922196	-0.018033	-1.722854
H	-2.354281	0.892122	-1.305112
H	-2.134926	-0.044753	-2.792758
H	-2.375052	-0.89006	-1.245461
C	-0.536949	-1.196482	0.638719
N	-1.061342	-2.112951	1.155997
C	-0.448615	1.245281	0.767887
H	-1.535863	1.33602	0.83346
H	-0.042556	1.182925	1.779098
H	-0.029935	2.135588	0.299359
Br	3.484978	0.0	0.0
