16

C	0.0	0.0	0.0
C	-0.442629	0.1086	-1.478539
Cl	1.790729	0.0	0.0
H	0.392928	0.566032	-2.018076
H	-0.244103	0.965761	0.453274
N	-0.571727	-1.129607	0.67618
H	-1.589859	-1.013463	0.545864
H	-0.403834	-1.024624	1.671927
N	-1.559403	1.046801	-1.556221
H	-1.88551	1.064313	-2.519994
H	-2.351685	0.673733	-0.987151
C	-0.694673	-1.269097	-2.096334
H	-0.85589	-1.150748	-3.174818
H	-1.592019	-1.716919	-1.666562
H	0.150871	-1.94612	-1.941074
H	-3.462337	0.0	0.0
