16

C	0.0	0.0	0.0
C	-0.496958	0.115397	-1.44605
Cl	1.792554	0.0	0.0
H	-1.589789	0.13517	-1.307679
H	-0.266066	0.921754	0.532496
N	-0.560858	-1.188799	0.575524
H	-0.358695	-1.198203	1.571519
H	-1.588346	-0.998797	0.485688
N	-0.160072	-1.035348	-2.279621
H	0.852035	-1.14231	-2.273092
H	-0.525871	-1.853944	-1.801906
C	-0.062197	1.400456	-2.125443
H	1.019392	1.427966	-2.293587
H	-0.339757	2.26963	-1.521232
H	-0.562274	1.475242	-3.093551
H	-3.103027	0.0	0.0
