16

C	0.0	0.0	0.0
C	-0.484108	-0.098184	-1.462511
Cl	1.84672	0.0	0.0
H	0.230625	0.484887	-2.057205
H	-0.252076	0.986434	0.388515
N	-0.547074	-0.982898	0.835512
H	-0.461995	-0.78241	1.820357
H	-0.228937	-1.915783	0.620428
N	-1.802177	0.4537	-1.676847
H	-2.540437	0.087026	-1.033548
H	-1.790872	1.453361	-1.500178
C	-0.46073	-1.541237	-1.949201
H	0.506876	-2.023125	-1.773192
H	-1.25252	-2.101995	-1.447553
H	-0.674146	-1.553834	-3.018824
H	-4.022631	0.0	0.0
