16

C	0.0	0.0	0.0
C	-0.398657	0.080177	-1.506839
Cl	1.79163	0.0	0.0
H	0.383274	0.687971	-1.977301
H	-0.245535	0.970011	0.451849
N	-0.587322	-1.120225	0.672091
H	-0.438414	-1.015421	1.672009
H	-1.603829	-0.999939	0.52174
N	-1.663331	0.732598	-1.793241
H	-1.592033	1.706841	-1.511942
H	-2.420867	0.352215	-1.186869
C	-0.369392	-1.301273	-2.147998
H	0.587206	-1.803332	-1.97664
H	-1.164042	-1.927198	-1.739143
H	-0.535724	-1.185733	-3.221567
H	-3.462176	0.0	0.0
