16

C	0.0	0.0	0.0
C	-0.513511	-0.081897	-1.434426
Cl	1.796265	0.0	0.0
H	-1.603831	-0.040451	-1.257456
H	-0.293475	0.966732	0.413842
N	-0.520097	-1.032447	0.845774
H	-1.531464	-0.808615	0.873472
H	-0.450992	-1.887446	0.296662
N	-0.198863	-1.396508	-1.996323
H	-0.915753	-1.655107	-2.659965
H	0.688273	-1.366423	-2.481404
C	-0.094139	1.087397	-2.313126
H	0.98177	1.068589	-2.518336
H	-0.629922	1.05056	-3.266982
H	-0.333699	2.040902	-1.830887
H	-3.18249	0.0	0.0
