16

C	0.0	0.0	0.0
C	-0.241986	0.041206	-1.539494
Cl	1.797417	0.0	0.0
H	0.425299	-0.741801	-1.933201
H	-0.275286	0.972191	0.419278
N	-0.604123	-1.140943	0.61
H	-0.445293	-1.09264	1.611785
H	-1.622405	-0.955624	0.484948
N	0.157799	1.3783	-2.012526
H	1.166558	1.437597	-2.072505
H	-0.213943	1.509726	-2.94438
C	-1.625424	-0.260041	-2.081717
H	-1.973728	-1.239355	-1.760975
H	-1.549656	-0.257318	-3.178038
H	-2.371518	0.445061	-1.726679
H	-3.412046	0.0	0.0
