15

C	-0.404068	0.008831	-1.481651
C	0.0	0.0	0.0
Cl	0.200937	1.522133	-2.248721
H	1.095383	0.0	0.0
H	0.150931	-0.795956	-1.968844
C	-1.892059	-0.106408	-1.762876
H	-2.437993	0.726831	-1.312329
H	-2.274098	-1.041173	-1.344782
H	-2.090706	-0.091417	-2.836888
C	-0.500651	-1.244395	0.576844
N	-0.922658	-2.253559	1.010624
N	-0.42132	1.13841	0.806666
H	-1.277378	1.556939	0.464333
H	0.324752	1.820262	0.740539
F	2.565242	0.0	0.0
