15

C	-0.411842	0.169184	-1.467101
C	0.0	0.0	0.0
Cl	-0.341937	-1.411668	-2.333631
H	1.100219	0.0	0.0
H	-1.450458	0.50258	-1.544492
C	0.560584	1.142214	-2.111227
H	1.571986	0.838774	-1.82617
H	0.374263	2.13492	-1.697177
H	0.436933	1.178438	-3.196344
C	-0.584187	-1.159595	0.650258
N	-1.087538	-2.04411	1.241418
N	-0.3572	1.254639	0.703262
H	-1.03987	1.08243	1.431949
H	0.502118	1.571887	1.142145
F	2.616967	0.0	0.0
