15

C	-0.32131	0.150692	-1.494477
C	0.0	0.0	0.0
Cl	-0.125137	-1.427728	-2.344581
H	1.096158	0.0	0.0
H	-1.372147	0.428076	-1.653399
C	0.650448	1.15512	-2.099427
H	1.649509	0.895404	-1.72959
H	0.398275	2.162356	-1.754256
H	0.611802	1.146007	-3.190491
C	-0.634388	-1.162004	0.60809
N	-1.162456	-2.089837	1.100454
N	-0.354053	1.213068	0.749149
H	0.4784	1.785551	0.772601
H	-1.104237	1.733241	0.307389
F	2.620514	0.0	0.0
