15

C	-0.536316	-0.097066	-1.425623
C	0.0	0.0	0.0
Cl	0.214199	1.188608	-2.429908
H	1.100806	0.0	0.0
H	-0.185474	-1.037552	-1.857389
C	-2.044413	0.032382	-1.524795
H	-2.345709	0.988435	-1.093336
H	-2.380087	-0.007508	-2.563374
H	-2.522855	-0.780473	-0.970219
C	-0.464803	-1.165402	0.740241
N	-0.869226	-2.092691	1.343011
N	-0.40512	1.257692	0.647429
H	0.4461	1.659238	1.025813
H	-1.049294	1.097869	1.411415
F	2.564718	0.0	0.0
