16

C	0.0	0.0	0.0
C	-0.557918	-0.19172	-1.401366
Cl	1.773885	0.0	0.0
H	-1.650761	-0.276184	-1.303526
H	-0.26865	0.628998	-2.047411
N	-0.379364	1.43361	0.42746
O	-0.454757	1.645238	1.629249
O	-0.501798	2.273441	-0.456359
C	-0.509275	-0.976651	1.027886
H	-0.113241	-0.715605	2.007299
H	-0.187048	-1.979439	0.753994
H	-1.601178	-0.925494	1.02989
N	-0.024565	-1.425388	-2.035421
O	-0.341029	-2.513006	-1.556185
O	0.694737	-1.277855	-3.025432
Cl	-3.668663	0.0	0.0
