16

C	0.0	0.0	0.0
C	-0.569811	-0.036611	-1.408525
Cl	1.762386	0.0	0.0
H	-1.658918	-0.16631	-1.310474
H	-0.321008	0.868899	-1.949734
N	-0.374344	1.382263	0.586006
O	-0.443528	1.456111	1.804075
O	-0.498388	2.317558	-0.196495
C	-0.512249	-1.075434	0.924552
H	-0.228261	-2.045247	0.522649
H	-1.601474	-0.993609	0.959977
H	-0.085732	-0.941603	1.916373
N	-0.01281	-1.156721	-2.212193
O	0.540382	-0.855742	-3.27096
O	-0.153195	-2.306756	-1.802391
Cl	-3.671329	0.0	0.0
