16

C	0.0	0.0	0.0
C	-0.63403	0.046274	-1.365718
Cl	1.761161	0.0	0.0
H	-0.537587	-0.949892	-1.830257
H	-1.714578	0.301467	-1.257376
N	-0.232782	1.420055	0.856259
O	-1.178349	2.127956	0.563461
O	0.513801	1.582692	1.805574
C	-0.564059	-1.078935	0.90858
H	-0.292485	-2.065639	0.519909
H	-0.128575	-0.973755	1.916677
H	-1.662056	-0.981241	0.916998
N	0.050147	0.990128	-2.285803
O	0.357209	2.11923	-1.847045
O	0.301529	0.586517	-3.434103
Cl	-3.62275	0.0	0.0
