18

C	0.0	0.0	0.0
C	-0.374396	0.117859	-1.495585
Br	2.036464	0.0	0.0
H	0.129013	-0.706995	-2.016535
C	-0.471	1.168517	0.839791
H	-1.563632	1.146587	0.870963
H	-0.083143	1.081705	1.857206
H	-0.12823	2.114688	0.420995
N	-0.50653	-1.20925	0.503693
H	-0.136646	-2.026105	0.036633
H	-0.411966	-1.295448	1.50575
C	0.153368	1.359398	-2.066875
N	0.518609	2.367597	-2.546186
C	-1.887417	0.021957	-1.734133
H	-2.452382	0.776306	-1.189805
H	-2.081211	0.151429	-2.802749
H	-2.276852	-0.937316	-1.402362
Br	-4.952138	0.0	0.0
