18

C	0.0	0.0	0.0
C	-0.295537	0.235119	-1.516521
Br	1.967704	0.0	0.0
H	0.298148	-0.52143	-2.040911
C	-0.505901	1.119834	0.892785
H	-0.210345	0.929234	1.927828
H	-0.118038	2.094525	0.590429
H	-1.601042	1.124347	0.839165
N	-0.486422	-1.315301	0.345245
H	-0.231753	-1.514851	1.307729
H	-1.507817	-1.266629	0.317133
C	0.207905	1.546697	-1.937898
N	0.567858	2.601901	-2.307887
C	-1.749909	0.094033	-1.962371
H	-2.424015	0.7843	-1.46192
H	-2.124559	-0.908041	-1.763426
H	-1.797689	0.268775	-3.041028
Br	-4.487505	0.0	0.0
