18

C	0.0	0.0	0.0
C	-0.502103	0.22928	-1.446715
Br	1.972455	0.0	0.0
H	-1.597172	0.139285	-1.338576
C	-0.446678	1.126271	0.918004
H	0.00133	2.079633	0.637192
H	-0.144051	0.878078	1.936252
H	-1.537915	1.191715	0.870533
N	-0.445918	-1.250348	0.557061
H	-0.245656	-2.009246	-0.087562
H	-1.46306	-1.176558	0.648622
C	-0.055415	-0.858376	-2.316937
N	0.304192	-1.723393	-3.026583
C	-0.177403	1.585588	-2.073146
H	-0.546026	1.616368	-3.1012
H	0.898787	1.770112	-2.080646
H	-0.678832	2.37765	-1.515962
Br	-3.821835	0.0	0.0
