18

C	0.0	0.0	0.0
C	-0.5163	-0.14726	-1.439868
Br	2.038015	0.0	0.0
H	-1.611173	-0.202776	-1.286744
C	-0.4533	1.299156	0.630703
H	-0.149062	1.325653	1.680276
H	-0.019983	2.16495	0.131695
H	-1.547611	1.311281	0.57052
N	-0.45803	-1.089617	0.756248
H	-0.257845	-1.003812	1.741472
H	-0.1695	-1.990448	0.400979
C	-0.079391	-1.421325	-2.010383
N	0.271739	-2.442737	-2.473591
C	-0.185907	1.007814	-2.38221
H	-0.672761	1.919581	-2.03356
H	0.892224	1.170154	-2.447468
H	-0.571371	0.786955	-3.379876
Br	-3.941316	0.0	0.0
