18

C	0.0	0.0	0.0
C	-0.372414	-0.141152	-1.544924
Br	1.97814	0.0	0.0
H	0.561557	-0.114935	-2.115312
C	-0.421911	1.341309	0.580085
H	-0.006679	2.17156	0.008263
H	-1.514159	1.393519	0.556777
H	-0.074348	1.399119	1.611953
N	-0.481	-1.031809	0.866861
H	-1.49628	-0.90146	0.934336
H	-0.308927	-1.947334	0.469792
C	-1.107713	1.022679	-2.056255
N	-1.530822	1.982304	-2.589762
C	-1.084686	-1.450517	-1.898453
H	-1.287251	-1.470537	-2.97299
H	-0.443887	-2.306266	-1.665192
H	-2.034091	-1.522507	-1.366049
Br	-3.804381	0.0	0.0
