17

C	0.0	0.0	0.0
C	-0.705101	0.27521	-1.336934
F	1.380735	0.0	0.0
H	-1.581419	0.865735	-1.048945
N	-0.189674	1.241539	0.923962
O	-0.159995	2.349879	0.391008
O	-0.232315	1.041005	2.131073
N	-0.532103	-1.097501	0.613815
H	-0.099622	-1.392143	1.470131
H	-0.859078	-1.793353	-0.03883
N	-1.184	-0.970214	-1.912699
H	-0.818248	-1.065149	-2.849535
H	-2.20014	-0.96408	-1.89161
N	0.197412	0.952243	-2.265798
H	0.71045	1.659478	-1.751758
H	-0.387136	1.454916	-2.925391
Br	-4.068507	0.0	0.0
