17

C	0.0	0.0	0.0
C	-0.347118	-0.069416	-1.513956
F	1.385435	0.0	0.0
H	-0.170182	-1.135576	-1.730757
N	-0.280847	1.390567	0.63371
O	-0.859798	2.260854	-0.004117
O	0.120448	1.506846	1.792649
N	-0.570131	-1.022038	0.757979
H	-1.579124	-1.016348	0.58948
H	-0.412532	-0.852008	1.744291
N	0.57682	0.819704	-2.218948
H	0.204664	0.893392	-3.157098
H	1.503632	0.418016	-2.258976
N	-1.662908	0.258526	-1.975308
H	-1.909121	1.179826	-1.637033
H	-2.382361	-0.352019	-1.603576
Br	-4.245089	0.0	0.0
