17

C	0.0	0.0	0.0
C	-0.467918	0.106243	-1.459097
F	1.391587	0.0	0.0
H	0.291056	0.708326	-1.974122
N	-0.277911	1.367599	0.663053
O	0.341305	2.314161	0.196471
O	-1.056497	1.41154	1.607361
N	-0.559739	-1.033354	0.735306
H	-1.131679	-0.679018	1.49168
H	-1.093912	-1.63015	0.11377
N	-1.701944	0.820404	-1.4786
H	-2.008741	1.035178	-2.416513
H	-2.476182	0.375245	-0.973557
N	-0.54024	-1.269464	-1.986159
H	0.365869	-1.56891	-2.328798
H	-1.200999	-1.282967	-2.751945
Br	-4.613063	0.0	0.0
