17

C	0.0	0.0	0.0
C	-0.35101	-0.25558	-1.5029
F	1.368497	0.0	0.0
H	0.404967	0.340558	-2.022001
N	-0.263125	1.495852	0.368437
O	-0.126607	2.331557	-0.520931
O	-0.498952	1.746779	1.54766
N	-0.562308	-0.873555	0.921719
H	-0.424443	-0.524373	1.863567
H	-1.570025	-0.909666	0.751965
N	-1.63042	0.142057	-1.999403
H	-1.694102	1.149984	-2.015035
H	-2.410416	-0.172515	-1.425002
N	-0.114597	-1.65949	-1.823053
H	-0.903305	-2.198943	-1.482623
H	0.705884	-1.98284	-1.320802
Br	-4.223682	0.0	0.0
