14

C	-0.332351	-0.086628	-1.490931
C	0.0	0.0	0.0
Cl	-0.132295	1.628766	-2.240857
H	1.102739	0.0	0.0
H	-1.384038	-0.290526	-1.700591
N	0.535472	-1.040914	-2.043214
H	1.494038	-0.86394	-1.728353
H	0.479667	-1.090836	-3.049228
C	-0.473235	-1.228089	0.629586
N	-0.861016	-2.188175	1.185667
N	-0.606271	1.15233	0.679993
H	-0.391752	1.045467	1.667301
H	-0.073295	1.961192	0.37525
H	2.81568	0.0	0.0
