14

C	-0.551473	0.090943	-1.408231
C	0.0	0.0	0.0
Cl	0.097553	-1.311856	-2.401244
H	1.093306	0.0	0.0
H	-0.125105	0.982166	-1.86531
N	-1.978212	0.150488	-1.427073
H	-2.356245	-0.723549	-1.077459
H	-2.314129	0.279921	-2.374042
C	-0.50866	-1.196951	0.674223
N	-0.935215	-2.127379	1.255441
N	-0.331958	1.240948	0.697306
H	-1.228174	1.18759	1.161908
H	0.404453	1.40601	1.376514
H	2.726958	0.0	0.0
