14

C	-0.389161	-0.018988	-1.490953
C	0.0	0.0	0.0
Cl	-0.109531	1.604318	-2.199859
H	1.096504	0.0	0.0
H	-1.455428	-0.218358	-1.636392
N	0.391824	-0.992087	-2.216809
H	0.07334	-1.918825	-1.954897
H	1.358906	-0.895323	-1.898885
C	-0.434548	-1.279984	0.560755
N	-0.840397	-2.284897	1.020457
N	-0.469734	1.133125	0.781684
H	0.310109	1.4517	1.348078
H	-1.231022	0.87605	1.394795
H	2.761766	0.0	0.0
