14

C	-0.31446	0.134412	-1.514734
C	0.0	0.0	0.0
Cl	-0.227736	1.886732	-1.984563
H	1.094759	0.0	0.0
H	-1.340591	-0.159498	-1.754764
N	0.607208	-0.622675	-2.30849
H	1.531997	-0.552974	-1.87191
H	0.320261	-1.593891	-2.314377
C	-0.464262	-1.336003	0.375851
N	-0.842653	-2.423276	0.617483
N	-0.475093	0.993291	0.942395
H	0.227828	1.722076	0.975319
H	-1.342898	1.409245	0.627831
H	2.773203	0.0	0.0
