14

C	-0.503411	0.015165	-1.443884
C	0.0	0.0	0.0
F	-1.851307	0.352254	-1.465145
H	1.088585	0.0	0.0
H	-0.385098	0.862921	0.547086
C	0.203113	1.092421	-2.1768
N	0.704793	1.941052	-2.813882
N	-0.353441	-1.202506	-2.191464
H	-0.819656	-1.948273	-1.688747
H	0.633848	-1.421622	-2.283659
N	-0.474953	-1.214794	0.722973
O	0.266493	-1.685157	1.579806
O	-1.594103	-1.659096	0.440001
Cl	3.329217	0.0	0.0
