14

C	-0.358645	0.048996	-1.481757
C	0.0	0.0	0.0
F	-0.244399	-1.267181	-1.981059
H	1.08907	0.0	0.0
H	-0.384053	0.879725	0.516224
C	-1.752698	0.45261	-1.784684
N	-2.840736	0.796363	-2.061361
N	0.539724	0.95463	-2.078729
H	0.448769	0.971794	-3.085356
H	1.501158	0.762875	-1.791376
N	-0.588037	-1.189185	0.657551
O	0.152651	-1.944327	1.275713
O	-1.810306	-1.315908	0.554219
Cl	3.342406	0.0	0.0
