14

C	-0.365665	0.128663	-1.475775
C	0.0	0.0	0.0
F	-0.280569	-1.164135	-2.041084
H	1.089602	0.0	0.0
H	-0.391219	0.845045	0.565122
C	-1.757124	0.5647	-1.7385
N	-2.840121	0.946992	-1.980709
N	0.537403	1.047942	-2.037254
H	0.439117	1.117287	-3.040786
H	1.497842	0.833105	-1.765019
N	-0.59331	-1.229321	0.572497
O	0.15012	-2.138268	0.923215
O	-1.824882	-1.242963	0.651653
Cl	3.344466	0.0	0.0
