16

C	0.0	0.0	0.0
C	-0.344561	-0.154029	-1.544004
Br	1.941586	0.0	0.0
H	0.38863	-0.853129	-1.951039
N	-0.588161	1.039777	0.732405
H	-0.458122	1.921756	0.250412
H	-1.59034	0.849462	0.835375
N	-0.382851	-1.335838	0.663105
O	-0.844721	-1.303569	1.79227
O	-0.160395	-2.344205	-0.001077
C	-0.074243	1.16792	-2.136181
N	0.1392	2.239485	-2.567216
N	-1.645413	-0.608644	-1.928305
H	-2.411589	-0.147658	-1.428535
H	-1.725958	-1.595555	-1.720067
Cl	-3.987683	0.0	0.0
