16

C	0.0	0.0	0.0
C	-0.427368	0.100763	-1.499599
Br	1.972921	0.0	0.0
H	0.236663	-0.565141	-2.05544
N	-0.638371	0.914021	0.793259
H	-0.617255	1.877482	0.50593
H	-0.67265	0.733223	1.781944
N	-0.334663	-1.398935	0.520631
O	-0.289906	-2.317508	-0.287742
O	-0.568316	-1.498108	1.717991
C	-0.117921	1.484583	-1.908064
N	0.102187	2.603883	-2.183595
N	-1.783265	-0.218876	-1.817758
H	-1.917362	-1.220222	-1.790786
H	-2.491521	0.183435	-1.191152
Cl	-4.37135	0.0	0.0
