16

C	0.0	0.0	0.0
C	-0.570473	-0.135598	-1.426659
Br	1.914903	0.0	0.0
H	-1.597643	-0.492379	-1.262863
N	-0.562621	1.108499	0.643663
H	-0.258471	1.144048	1.608799
H	-1.587408	0.970323	0.615231
N	-0.325387	-1.331146	0.766998
O	-0.416632	-1.232378	1.984787
O	-0.406989	-2.361962	0.112233
C	0.148158	-1.099277	-2.266853
N	0.661574	-1.833372	-3.024608
N	-0.520926	1.171855	-2.088769
H	-0.795213	1.860843	-1.395949
H	-1.243585	1.165097	-2.799745
Cl	-3.50543	0.0	0.0
