16

C	0.0	0.0	0.0
C	-0.594311	-0.047666	-1.419114
Br	1.992995	0.0	0.0
H	-1.613307	-0.425565	-1.240454
N	-0.505812	1.048629	0.745796
H	-1.509675	1.122947	0.55094
H	-0.364107	0.859775	1.730895
N	-0.265076	-1.393953	0.672654
O	-0.308878	-1.399582	1.896611
O	-0.381721	-2.369773	-0.056799
C	0.108489	-0.959992	-2.328591
N	0.645015	-1.589107	-3.164361
N	-0.720012	1.289022	-1.968016
H	-1.607273	1.369829	-2.44489
H	0.039565	1.506594	-2.597726
Cl	-3.527416	0.0	0.0
