16

C	0.0	0.0	0.0
C	-0.289222	0.174241	-1.527423
Br	1.972276	0.0	0.0
H	0.418824	0.972722	-1.769862
N	-0.511584	1.074377	0.729842
H	-1.540891	1.005701	0.639712
H	-0.258851	0.970837	1.706449
N	-0.384107	-1.373577	0.607869
O	-0.266913	-1.435668	1.826753
O	-0.768196	-2.275584	-0.121723
C	-1.564215	0.762098	-2.004216
N	-2.233458	1.31872	-2.798496
N	0.111863	-0.982339	-2.317782
H	0.152723	-0.686679	-3.285596
H	-0.604034	-1.693527	-2.237366
Cl	-3.378486	0.0	0.0
