16

C	0.0	0.0	0.0
C	-0.286007	-0.146755	-1.53927
Br	1.951671	0.0	0.0
H	0.39993	0.608942	-1.940086
N	-0.501975	1.166499	0.608383
H	-1.529584	1.061717	0.617632
H	-0.249599	1.973508	0.049329
N	-0.439438	-1.193414	0.855734
O	-0.389953	-1.032623	2.065011
O	-0.754675	-2.226804	0.27956
C	-1.579641	0.315579	-2.103798
N	-2.243766	0.712519	-2.995023
N	0.142425	-1.413461	-2.116616
H	0.121688	-1.311309	-3.124933
H	-0.524621	-2.126927	-1.853863
Cl	-3.370387	0.0	0.0
