19

C	0.0	0.0	0.0
C	-0.45204	-0.310063	-1.443187
Cl	1.780532	0.0	0.0
H	0.240882	0.230666	-2.094635
N	-0.386598	1.472177	0.262816
O	-1.197062	1.695628	1.151502
O	0.112286	2.302935	-0.487198
N	-0.520262	-0.766461	1.071384
H	-1.501878	-0.534927	1.208031
H	-0.429074	-1.751822	0.863632
C	-1.869476	0.175016	-1.723357
H	-2.174162	-0.171631	-2.714704
H	-2.619428	-0.187988	-1.016281
H	-1.931517	1.26437	-1.727045
C	-0.328644	-1.807533	-1.713549
H	-1.118088	-2.358298	-1.195028
H	0.646177	-2.207024	-1.419667
H	-0.457584	-1.994021	-2.782116
Br	-4.99031	0.0	0.0
