14

C	0.0	0.0	0.0
C	-0.501909	-0.139116	-1.425712
F	1.389747	0.0	0.0
H	-0.163125	0.695386	-2.036794
H	-0.338845	0.980306	0.34856
H	-1.594152	-0.213959	-1.399487
C	-0.4746	-1.077109	0.945855
H	-0.11046	-0.852616	1.950983
H	-1.565929	-1.095982	0.947722
H	-0.090073	-2.050074	0.638353
N	0.051468	-1.359562	-2.06779
O	-0.459393	-2.439578	-1.7805
O	1.00091	-1.218474	-2.838066
Br	-3.885617	0.0	0.0
