13

C	-0.451992	-0.12204	-1.442842
C	0.0	0.0	0.0
F	-0.286795	1.165375	-2.01827
H	1.092677	0.0	0.0
H	-0.347452	-0.862564	0.573168
H	-0.384702	0.920673	0.440955
N	0.327134	-1.101686	-2.105255
H	1.312576	-0.959117	-1.904405
H	0.158364	-1.044412	-3.100975
N	-1.849317	-0.42523	-1.68901
H	-2.03246	-1.344744	-1.306192
H	-2.418651	0.248191	-1.189328
Br	3.736473	0.0	0.0
