14
Coordinates from ORCA-job run
  C   -0.85946509301147      0.13973903286202     -0.23851891949499
  C   0.43180181117528     -0.04058171697692      0.08616555355774
  C   -1.27003156565529      0.86665570803008     -1.38969354652233
  N   -1.57957195181306      1.48695856352163     -2.34114230899250
  N   -1.96127191617678     -0.42676744435687      0.56957995786294
  O   -1.84217851567087     -0.37067780914692      1.78697987039602
  O   -2.89890372935591     -0.88995190924804     -0.06933242686651
  N   0.76818069531899     -0.84168753488707      1.27370382129941
  O   1.40700369211606     -0.25432194523917      2.13966850301908
  O   0.43014713761737     -2.02028479744791      1.26471773598272
  C   1.61272573405472      0.49143343330788     -0.64181883122815
  H   2.16281273385500      1.16835743647074      0.01636899229104
  H   1.31453453507391      1.02324164150015     -1.54455429121019
  H   2.28121643247204     -0.33111265838961     -0.91212411009428
