14
Coordinates from ORCA-job run
  C   -0.83787917323121      0.13591080328183     -0.25199162464060
  C   0.44940963288254     -0.04086611349076      0.08950531134190
  C   -1.25122978219587      0.85102615210060     -1.40814531684627
  N   -1.62040699236933      1.43303143882158     -2.36456082216896
  N   -1.95657623487626     -0.37892197384833      0.56892091443161
  O   -2.72227129369971     -1.14457436678399      0.00025199528263
  O   -2.02308666042937      0.04847855931854      1.71743260496554
  N   0.73817718172159     -0.83754254274493      1.29039282942851
  O   1.60441007598028     -0.37831792522985      2.03274493049655
  O   0.13333032260898     -1.89846666732931      1.42919712913439
  C   1.64116705909857      0.46294927097249     -0.64192387097875
  H   2.31257925675201     -0.37308978606299     -0.86551138400703
  H   1.34648400413923      0.94055600713242     -1.57524675519859
  H   2.18489260361853      1.17882714386269     -0.02206594124094
