14
Coordinates from ORCA-job run
  C   -0.85411903732625      0.18444075943161     -0.22062681370009
  C   0.43283692102140     -0.06091747556029      0.07679409794185
  C   -1.25509624486276      0.88203829481279     -1.39309822608055
  N   -1.55836801498544      1.47751206654618     -2.36239942810715
  N   -1.96414305626662     -0.27217989964951      0.64323032419569
  O   -2.93018927196223     -0.74158206135233      0.05327823940530
  O   -1.82231858300045     -0.12972462256527      1.85095843341767
  N   0.75096043807262     -0.83079080252751      1.29065022160774
  O   0.30068157093520     -1.96917159962946      1.36411255155127
  O   1.48653754037190     -0.26663682471869      2.09367088368421
  C   1.62170234382708      0.35736747295779     -0.70946361868139
  H   2.25133405568691      0.99945684266995     -0.08898648123021
  H   2.20840582205771     -0.52329004652465     -0.98643515892724
  H   1.33177551643094      0.89347789610939     -1.61268502507709
