14
Coordinates from ORCA-job run
  C   -0.85819043802809      0.30409247995124      0.03753335980666
  C   0.42775663134305     -0.06776197638948      0.16070722234731
  C   -1.56163433569071      1.08868140077797      0.99558723351300
  N   -2.12885342325121      1.75963263903113      1.77779484865004
  N   -1.65409320508860     -0.08970648580300     -1.14490384473479
  O   -1.05590932977906     -0.19798658685740     -2.20941632794233
  O   -2.85300711444943     -0.25454730240989     -0.95102626003794
  N   1.11406668828668      0.40681095945222      1.37197755542217
  O   1.35476582298595      1.60885681014488      1.43899172551056
  O   1.41526777686957     -0.45963345628746      2.18726114820567
  C   1.28206491669774     -0.88123771923564     -0.74316052185431
  H   1.76538013814505     -0.21715691700348     -1.46723163703207
  H   2.05103257718469     -1.38673849277391     -0.15542393142470
  H   0.69935329477437     -1.61430535259719     -1.29869057042927
