14
Coordinates from ORCA-job run
  C   -0.85515386599790      0.09977774407813     -0.28733536251346
  C   0.41635267463511      0.00760244813738      0.13663592976916
  C   -1.24011338952533      0.91359579823029     -1.39167946076980
  N   -1.52817771046397      1.61678405929948     -2.29009202394756
  N   -1.94647853649776     -0.69870829956202      0.30913332958680
  O   -2.80275935093630     -1.08577415644296     -0.47738121734629
  O   -1.89498432154168     -0.90344126109862      1.51527257138191
  N   0.74655686697447     -0.90387903065037      1.24633742548689
  O   1.13302151109613     -0.35759925622473      2.27378278016333
  O   0.67974588677912     -2.10617701739034      1.01590588975455
  C   1.59282563754114      0.72208779384861     -0.41644181156707
  H   2.05033268809473      1.32012369153866      0.37524029237346
  H   1.31318807566146      1.37452005350344     -1.24330164943669
  H   2.33664383418078      0.00008743273304     -0.76607669293523
