14
Coordinates from ORCA-job run
  C   -0.86156204350555      0.15521033924674     -0.21540728309621
  C   0.43414229419715     -0.05545620201123      0.06935748519143
  C   -1.29908039809377      0.77929584896341     -1.41561094485636
  N   -1.63983917024885      1.32349906178127     -2.40272458620653
  N   -1.94652848471374     -0.25526227684917      0.70347973453794
  O   -2.94147678330252     -0.72778230990616      0.16641910814566
  O   -1.75702690205338     -0.07725416558362      1.90003286175266
  N   0.79411826074424     -0.73359236234823      1.32457974671514
  O   1.49332732187540     -0.08185741311673      2.09224163155780
  O   0.41616017908011     -1.89250959801160      1.45899257001054
  C   1.59955431182130      0.32333655820393     -0.77062269613329
  H   2.20567026467571     -0.56267156802031     -0.98097223063845
  H   2.22089759851943      1.03342933456927     -0.21921423743223
  H   1.28164355100446      0.77161475308243     -1.71155115954810
