14
Coordinates from ORCA-job run
  C   -0.88092823263612      0.23487815998761      0.04809207116919
  C   0.42881568199734     -0.04757540657254      0.17748217999619
  C   -1.68856319358680      0.87098947516202      1.03174219864359
  N   -2.36675383490203      1.42559316979597      1.81831994860652
  N   -1.61250032841614     -0.14598432678290     -1.17790172162770
  O   -1.01679100343909     -0.04710425061845     -2.24576235979176
  O   -2.76104473469286     -0.54274183246412     -1.00810707538759
  N   1.06799335803161      0.40431907470968      1.42547189749114
  O   2.03294070430808      1.14652699167599      1.26323022252264
  O   0.61481930278728     -0.00220977174172      2.49039005918762
  C   1.36090562026229     -0.70499793399778     -0.77714351366834
  H   2.12212431087448     -1.25245541422111     -0.21881464676313
  H   1.86344385821944      0.04846348658494     -1.38672847522515
  H   0.83653849119252     -1.38770142151756     -1.44027078515322
