14
Coordinates from ORCA-job run
  C   -0.87792178046079      0.23645888433834      0.02916978386172
  C   0.42849410100644     -0.04037680205291      0.20630473550625
  C   -1.73797575070843      0.90324274559164      0.94429953197298
  N   -2.49024896178666      1.47946326340028      1.64330807614044
  N   -1.55686285570381     -0.19100349293730     -1.21565747770835
  O   -2.66661709202936     -0.69040689460794     -1.06722379885253
  O   -0.96095538880374     -0.01163616521158     -2.27259452645408
  N   1.04254001115645      0.44180569931961      1.45894214606012
  O   2.14500339619750      0.96675777078787      1.32313116855149
  O   0.42794209255428      0.28079032421850      2.50983695359652
  C   1.37341567044977     -0.72237753333535     -0.71768657564595
  H   2.07598719624902     -1.32290893893127     -0.13731497210250
  H   0.85080327857269     -1.35410766925353     -1.43201636481266
  H   1.94739608330665      0.02329880867365     -1.27249868011345
