14
Coordinates from ORCA-job run
  C   -0.88180678181032      0.02032324415310     -0.24432869692483
  C   0.41403196542972     -0.19748194345055      0.04450424442900
  C   -1.67112200506724     -0.78117193585378     -1.11570674563326
  N   -2.34901122780828     -1.42780910840857     -1.82904565426872
  N   -1.58487847674200      1.20985122617468      0.28390961957397
  O   -2.29018935549170      1.80338659010190     -0.52514652754081
  O   -1.41152085118864      1.49716625340523      1.46281821188318
  N   1.02583117445811     -1.38857839334012     -0.57724882981030
  O   0.51032682385200     -2.47590323879183     -0.32738521945987
  O   2.02627035213251     -1.18164079698029     -1.25798557525512
  C   1.36291393812104      0.59521952314368      0.86668863407139
  H   0.89292805716262      1.46943534876394      1.30643655905585
  H   2.20558723707754      0.89377723870540      0.24021701755724
  H   1.75063914987464     -0.03557400762279      1.67227296232229
