14
Coordinates from ORCA-job run
  C   -0.85649951328132      0.19698097618067     -0.21460689298581
  C   0.42824821111177     -0.08993328115630      0.05437707414915
  C   -1.24647623413884      1.07349977321211     -1.26351677175188
  N   -1.53837445936510      1.79639430251895     -2.14591332029144
  N   -1.96889978479729     -0.34606233014481      0.59365905079756
  O   -1.89792677642530     -1.52602012832282      0.91217123179071
  O   -2.86389878778112      0.44787444085289      0.85844924860591
  N   0.74434907556038     -0.95166280251754      1.20662141557041
  O   1.39034903686936     -1.96198460419654      0.94863968746147
  O   0.38961707589535     -0.55502237480659      2.31194688521941
  C   1.62252224265989      0.39431634882719     -0.68475047084121
  H   1.34215736525481      1.05929617732943     -1.50090516457178
  H   2.28660461063283      0.92715506927259      0.00238584549246
  H   2.16922793780459     -0.46483156704922     -1.08055781864495
