14
Coordinates from ORCA-job run
  C   -0.83233897820869      0.36305025610125      0.10219983264353
  C   0.44279819327827     -0.06408818989841      0.09287573345700
  C   -1.39336146993124      1.19176947505464      1.11406263021518
  N   -1.85032926125247      1.88927075004627      1.94510566373625
  N   -1.78950416959727     -0.06920338724765     -0.93804339056650
  O   -2.92548706992865     -0.31073771650123     -0.54511570230547
  O   -1.37545064584091     -0.14342328052793     -2.09026697147185
  N   1.27788685811190      0.41518502152154      1.21077476157976
  O   1.59489838243108     -0.43282322809452      2.03845625622716
  O   1.59897654272917      1.59994996082487      1.19444839628241
  C   1.16421627405264     -0.95078308441480     -0.85492732800126
  H   1.87154645864898     -0.35271828682830     -1.43826506438877
  H   0.48896974294044     -1.44402303921236     -1.54827812037168
  H   1.72617914256676     -1.69242525082336     -0.28302669703575
