14
Coordinates from ORCA-job run
  C   -0.83158758207736      0.09717919323678     -0.32493088490262
  C   0.42720262318816     -0.01981098717348      0.12973821067386
  C   -1.16166929257919      0.81014965863740     -1.51000587933036
  N   -1.41050042218327      1.41922010977742     -2.48646866259439
  N   -1.98227156901459     -0.52100825886428      0.36842721197925
  O   -2.77465911548967     -1.11195114259079     -0.35588199796475
  O   -2.04240036623932     -0.37234152106785      1.58201315956415
  N   0.67250845283581     -0.81641209214324      1.34340773539884
  O   0.28991721146160     -1.98200632541392      1.33658140959359
  O   1.28224059128137     -0.23964448348186      2.23804702510516
  C   1.64659187064534      0.57582608158005     -0.47434878923735
  H   1.40601702066388      1.12343400527873     -1.38538389626801
  H   2.36688950667990     -0.21289104065336     -0.71013071480681
  H   2.11272107082734      1.24925680287839      0.24793607278944
