14
Coordinates from ORCA-job run
  C   -0.87211305486436      0.13587227899495     -0.23262482466552
  C   0.41572166808288     -0.05936631961463      0.10445790935737
  C   -1.23130301368151      0.83152778761456     -1.42341279925891
  N   -1.46775325332312      1.41261533091114     -2.41931833475282
  N   -2.01518144432025     -0.34434920931957      0.57579350355168
  O   -3.12613460394278     -0.14188139655673      0.09773531731392
  O   -1.75954108886148     -0.89525935415104      1.63808406876012
  N   0.78659818741197     -0.78550307436505      1.32896879115048
  O   0.92486662621262     -1.99596684646540      1.21088681204129
  O   1.00880171321185     -0.09130973628171      2.31202840789938
  C   1.60225679231022      0.40192257048354     -0.66375030961275
  H   1.31579433753891      0.92578055559850     -1.57462256542185
  H   2.19831722452817      1.06790274356678     -0.03300599598705
  H   2.22066990969690     -0.46298533041534     -0.92121998037534
