14
Coordinates from ORCA-job run
  C   -0.87142881119436      0.12533488055726     -0.21894837440056
  C   0.42695336347238     -0.02972315400858      0.09163759512425
  C   -1.29452585921084      0.83210006898058     -1.37993617979298
  N   -1.60646908231983      1.42883727143935     -2.34531946002293
  N   -1.96240117325293     -0.44405399455080      0.59916427981528
  O   -2.98282996306137     -0.74143816507696     -0.01225591805229
  O   -1.75732483771573     -0.56023354186542      1.80068018313689
  N   0.81359142132877     -0.80895147199224      1.27912114652282
  O   0.65859813604111     -2.02276070805485      1.21547432489681
  O   1.31936858945059     -0.16230587776335      2.18849681506260
  C   1.58728021727078      0.50160603311729     -0.66982751996993
  H   2.16687504238141      1.16271491723682     -0.02007096259113
  H   1.26793272773015      1.04848682531047     -1.55637957063646
  H   2.23338022907986     -0.32861308332958     -0.97083635909237
