14
Coordinates from ORCA-job run
  C   -0.85294301467962      0.18589774016026     -0.21079283656554
  C   0.43861634495067     -0.06755997246256      0.05916819674393
  C   -1.28343992047927      0.89762371298222     -1.36501854743622
  N   -1.63129451231388      1.52957436425278     -2.29652430607319
  N   -1.94464520922693     -0.29985840768005      0.65984152738909
  O   -1.81100449383884     -0.13450367885465      1.86455522778531
  O   -2.89520417236255     -0.80655907619645      0.07515291034988
  N   0.77020603680626     -0.84545341736985      1.26733594733619
  O   0.28318429744545     -1.96520072242410      1.36709499879888
  O   1.52867138454493     -0.28893825243827      2.05321827417921
  C   1.61830955686666      0.36904392700216     -0.72880199143469
  H   1.31602399561019      0.87579899287031     -1.64488513198183
  H   2.22398812244061      1.04579268992911     -0.12120758978229
  H   2.23953158423632     -0.49565789977092     -0.97813667930872
