14
Coordinates from ORCA-job run
  C   -0.85675256578087      0.13940991173197     -0.25066405861313
  C   0.42828653844465     -0.01613808125189      0.10642544049539
  C   -1.25150315403193      0.85018640280140     -1.41746200798461
  N   -1.56730441770090      1.42035650106398     -2.39670666321058
  N   -1.96306220534953     -0.46374052527559      0.52146591520246
  O   -1.88558877663761     -0.39808883122502      1.74237956457081
  O   -2.86177479027323     -0.96106534132775     -0.14469474957103
  N   0.75234358059445     -0.83127347103502      1.28782816468415
  O   1.34058414515684     -0.24467901149705      2.18891083899056
  O   0.46782489532762     -2.02290078492106      1.23655638981861
  C   1.61780207708979      0.53537886249154     -0.59334198885470
  H   2.19014996481637      1.15412953033550      0.10152476162748
  H   1.33161088664860      1.12889379307623     -1.46149787935796
  H   2.25838382169575     -0.28946895496725     -0.92172372779746
