14
Coordinates from ORCA-job run
  C   -0.85661209184609      0.13972629370085     -0.25065858550334
  C   0.42938410338090     -0.03781083231255      0.09557465352456
  C   -1.24442599336186      0.83316655961325     -1.43022758050745
  N   -1.52980510442169      1.43050191548302     -2.40363190810809
  N   -1.97459739020607     -0.39775845128186      0.55496174609520
  O   -1.86190788506826     -0.34036809240665      1.77258684431935
  O   -2.91809176045381     -0.84292339646413     -0.08877775947501
  N   0.74849784243839     -0.80412923936546      1.31183502248782
  O   1.36679303103049     -0.18943261366548      2.17370255757521
  O   0.42221475066256     -1.98593623712131      1.32596481186497
  C   1.62299029115149      0.45950386442599     -0.63638091400284
  H   1.33995070028777      0.99247310075783     -1.54369021839770
  H   2.18921584957308      1.12662704140237      0.01854320370693
  H   2.26839365683311     -0.38363991276588     -0.89980187357962
