15

C	0.0	0.0	0.0
C	-0.475491	0.028775	-1.480007
Br	1.953101	0.0	0.0
H	0.378289	-0.211395	-2.120975
H	-0.268693	-0.995883	0.352371
C	-0.594366	1.052775	0.901727
H	-0.292975	0.880419	1.938419
H	-1.684885	0.917419	0.786375
H	-0.290214	2.058603	0.602667
C	-0.869508	1.405471	-1.867279
N	-1.163799	2.491645	-2.208848
N	-1.498916	-0.983075	-1.67489
H	-2.303413	-0.690155	-1.035232
H	-1.815622	-0.925948	-2.638414
F	-3.126678	0.0	0.0
