15

C	0.0	0.0	0.0
C	-0.614706	-0.010088	-1.384518
Br	1.958479	0.0	0.0
H	-1.718488	-0.017832	-1.067297
H	-0.282941	-0.931576	0.490348
C	-0.494994	1.179607	0.814713
H	-0.11715	1.123252	1.839034
H	-0.176809	2.117248	0.358334
H	-1.588247	1.073911	0.783668
C	-0.297522	-1.245094	-2.111907
N	-0.075329	-2.216493	-2.738325
N	-0.28669	1.196016	-2.138855
H	-0.941264	1.291451	-2.905366
H	0.646836	1.116702	-2.528938
F	-2.909772	0.0	0.0
