15

C	0.0	0.0	0.0
C	-0.447633	-0.023624	-1.458879
Br	1.96103	0.0	0.0
H	0.001338	0.867238	-1.9327
H	-0.316585	-0.913959	0.49602
C	-0.409357	1.252915	0.756714
H	-1.497381	1.224799	0.802005
H	0.027612	1.25673	1.758633
H	-0.05843	2.144389	0.227734
C	-1.918182	0.082764	-1.737432
N	-2.635729	0.167302	-2.68289
N	0.005039	-1.268131	-2.106461
H	0.992498	-1.183374	-2.319596
H	-0.500537	-1.336805	-2.982152
F	-2.651888	0.0	0.0
