15

C	0.0	0.0	0.0
C	-0.378414	-0.105111	-1.519213
Br	1.95407	0.0	0.0
H	0.379787	-0.749982	-1.978245
H	-0.281177	-0.953874	0.451178
C	-0.64962	1.138987	0.736853
H	-0.361653	2.103862	0.312859
H	-1.735693	0.958935	0.618942
H	-0.383662	1.122057	1.796981
C	-0.192569	1.218785	-2.147597
N	-0.039068	2.271942	-2.644611
N	-1.680313	-0.630913	-1.850822
H	-1.638528	-1.633055	-1.696821
H	-2.420856	-0.276208	-1.159654
F	-3.277755	0.0	0.0
