15

C	0.0	0.0	0.0
C	-0.486045	-0.328746	-1.439132
Br	1.949386	0.0	0.0
H	0.370245	-0.677272	-2.025426
H	-0.272217	-0.874684	0.590046
C	-0.576781	1.250583	0.617675
H	-0.265766	2.146701	0.075527
H	-1.668539	1.103451	0.549352
H	-0.26284	1.338532	1.661184
C	-0.942665	0.902764	-2.130535
N	-1.270072	1.833696	-2.769433
N	-1.474404	-1.392486	-1.378361
H	-1.793703	-1.574481	-2.325947
H	-2.280932	-0.964282	-0.828024
F	-3.084214	0.0	0.0
