15

C	0.0	0.0	0.0
C	-0.63658	-0.063138	-1.384425
Br	1.958284	0.0	0.0
H	-1.722424	-0.194812	-1.052666
H	-0.26964	-0.920647	0.519402
C	-0.502	1.188513	0.797695
H	-0.138065	1.139766	1.826612
H	-1.596944	1.088628	0.756287
H	-0.162509	2.130267	0.358869
C	-0.176434	-1.227791	-2.136859
N	0.180837	-2.178917	-2.728493
N	-0.544083	1.140926	-2.199006
H	0.380969	1.55115	-2.116016
H	-1.222739	1.797725	-1.834049
F	-2.915559	0.0	0.0
