18

C	0.0	0.0	0.0
C	-0.332604	-0.020836	-1.545043
Cl	1.871496	0.0	0.0
H	0.573212	0.296959	-2.068173
N	-0.410142	1.197354	0.681466
H	-0.230635	1.988812	0.069218
H	-1.432162	1.080301	0.69479
N	-0.500372	-1.158554	0.669632
H	-0.322198	-1.001628	1.657778
H	-1.521801	-1.039964	0.528863
N	-1.351902	0.984015	-1.856746
H	-1.549839	0.911656	-2.849629
H	-2.190221	0.701764	-1.319142
C	-0.680034	-1.427212	-2.03021
H	0.089082	-2.155489	-1.760787
H	-0.783036	-1.408725	-3.123339
H	-1.632676	-1.734607	-1.597726
F	-2.905158	0.0	0.0
