18

C	0.0	0.0	0.0
C	-0.439441	0.206765	-1.477343
Cl	1.798181	0.0	0.0
H	-1.530819	0.190494	-1.385356
N	-0.489525	1.114593	0.780013
H	-1.515064	0.977086	0.656901
H	-0.276662	0.926066	1.756883
N	-0.485102	-1.308757	0.397094
H	-1.511238	-1.131357	0.357555
H	-0.232817	-1.456421	1.371109
N	-0.03399	-0.878304	-2.368884
H	-0.323075	-1.739984	-1.916816
H	0.982432	-0.904433	-2.378831
C	0.01199	1.535848	-2.055464
H	1.095684	1.551866	-2.212916
H	-0.249038	2.355068	-1.386524
H	-0.473301	1.679809	-3.024392
F	-2.850737	0.0	0.0
