18

C	0.0	0.0	0.0
C	-0.499093	0.08359	-1.441525
Cl	1.8494	0.0	0.0
H	-1.58358	-0.051719	-1.261296
N	-0.570988	1.062216	0.751111
H	-1.602777	0.813078	0.591314
H	-0.381473	0.881061	1.7337
N	-0.339675	-1.310277	0.508356
H	-0.115167	-1.982859	-0.216915
H	0.21676	-1.509318	1.331078
N	0.014728	-1.051061	-2.218183
H	-0.609745	-1.210153	-2.999353
H	0.927466	-0.813946	-2.594551
C	-0.224992	1.439067	-2.074432
H	-0.674538	1.47652	-3.07321
H	0.853172	1.614173	-2.172513
H	-0.649749	2.235899	-1.464472
F	-2.908038	0.0	0.0
