18

C	0.0	0.0	0.0
C	-0.209402	-0.230301	-1.566381
Cl	1.872849	0.0	0.0
H	0.192204	0.69434	-1.99871
N	-0.487515	1.300253	0.372381
H	-1.511109	1.160249	0.299778
H	-0.284452	1.439453	1.360227
N	-0.506433	-1.12778	0.734866
H	-1.528277	-0.997799	0.606073
H	-0.312797	-0.982426	1.722811
N	-1.568816	-0.420563	-2.052301
H	-1.776134	-1.410921	-1.95509
H	-2.246276	0.000782	-1.398268
C	0.582716	-1.431936	-2.099689
H	0.166465	-1.683946	-3.078579
H	1.648439	-1.251539	-2.218308
H	0.446411	-2.278199	-1.420335
F	-3.003244	0.0	0.0
