18

C	0.0	0.0	0.0
C	-0.159153	0.068679	-1.5578
Cl	1.902407	0.0	0.0
H	0.500945	-0.72161	-1.932147
N	-0.391467	1.216295	0.58993
H	-0.316409	1.203269	1.595906
H	0.076575	1.998878	0.156403
N	-0.637532	-1.145177	0.524705
H	-1.666261	-0.844107	0.38661
H	-0.469671	-1.181616	1.527491
N	0.317802	1.395407	-1.998579
H	1.275	1.333611	-2.318133
H	-0.260096	1.712785	-2.765451
C	-1.544315	-0.193958	-2.122089
H	-1.488936	-0.048566	-3.210888
H	-2.30583	0.408827	-1.62381
H	-1.8406	-1.224022	-1.928513
F	-3.042845	0.0	0.0
