14

C	-0.387912	-0.006163	-1.491904
C	0.0	0.0	0.0
Br	-0.161288	1.800995	-2.239039
H	1.093287	0.0	0.0
H	-1.447522	-0.225224	-1.65004
N	0.425454	-0.930841	-2.23585
H	0.106612	-1.874386	-2.044864
H	1.384422	-0.84161	-1.892791
C	-0.423513	-1.29526	0.53387
N	-0.802376	-2.320181	0.972148
N	-0.477331	1.113925	0.80315
H	-1.204779	0.831623	1.445731
H	0.314575	1.459316	1.335406
H	2.756355	0.0	0.0
