14

C	-0.553364	0.058554	-1.40744
C	0.0	0.0	0.0
Br	0.160063	-1.519543	-2.459521
H	1.092253	0.0	0.0
H	-0.109762	0.919381	-1.904229
N	-1.972733	0.119272	-1.439707
H	-2.363762	-0.730975	-1.050322
H	-2.307697	0.219257	-2.389921
C	-0.524558	-1.164924	0.714711
N	-0.998014	-2.056225	1.32044
N	-0.321968	1.268678	0.655158
H	0.42035	1.452738	1.32494
H	-1.218616	1.236306	1.123723
H	2.713444	0.0	0.0
