14

C	-0.449453	-0.041912	-1.409875
C	0.0	0.0	0.0
Br	-2.765586	-0.118264	-1.360593
H	1.102821	0.0	0.0
H	-0.358581	-0.99487	-1.920416
N	-0.052225	1.041034	-2.115532
H	-0.388677	1.119454	-3.060505
H	-0.089132	1.885531	-1.55804
C	-0.440631	-1.146928	0.780697
N	-0.73779	-2.054011	1.468161
N	-0.296077	1.300163	0.589265
H	0.448732	1.514148	1.246063
H	-1.191811	1.29303	1.061225
H	2.556119	0.0	0.0
