15

C	-0.446794	-0.296915	0.238619
C	-0.78877	-0.256365	-1.255637
Br	1.495117	-0.275352	0.535059
H	-0.27267	0.633335	-1.642422
H	-0.812529	0.636909	0.681771
C	-0.998955	-1.468544	0.903974
N	-1.413907	-2.430137	1.436939
N	-2.241322	-0.130792	-1.294543
H	-2.458149	0.808496	-0.953345
H	-2.543993	-0.175003	-2.262081
C	-0.352593	-1.501403	-2.008167
H	-0.875525	-2.377224	-1.615374
H	0.724534	-1.660971	-1.934673
H	-0.607584	-1.39896	-3.067942
Cl	-1.710223	2.841258	-0.019084
