15

C	-0.239012	-0.198823	-0.004409
C	-0.562189	-0.390265	-1.501696
Br	1.643699	0.302932	0.283558
H	-1.636161	-0.615011	-1.494626
H	-0.861011	0.621151	0.395036
C	-0.468107	-1.436233	0.724729
N	-0.663381	-2.473233	1.243586
N	0.125932	-1.495225	-2.157248
H	1.12535	-1.32309	-2.118022
H	-0.050551	-2.358179	-1.653257
C	-0.364603	0.900158	-2.277393
H	0.696018	1.158203	-2.342705
H	-0.907219	1.708467	-1.784319
H	-0.747979	0.762613	-3.29052
Cl	-2.60776	2.04634	0.42392
