17

C	0.0	0.0	0.0
C	-0.527691	0.019674	-1.455218
F	1.38501	0.0	0.0
H	-1.640378	0.090232	-1.286843
C	-0.435335	1.248316	0.737169
H	0.051639	2.130752	0.321476
H	-0.136507	1.12225	1.77892
H	-1.524017	1.330267	0.668195
N	-0.505948	-1.147822	0.679701
H	-1.536137	-1.008289	0.673884
H	-0.297103	-1.988772	0.148629
C	-0.151151	-1.189791	-2.167447
N	0.107407	-2.201436	-2.709296
N	-0.048303	1.207934	-2.221441
O	-0.685619	2.250291	-2.079293
O	0.957474	1.083278	-2.924884
H	-2.993352	0.0	0.0
