17

C	0.0	0.0	0.0
C	-0.50997	0.019582	-1.463083
F	1.385443	0.0	0.0
H	-1.624722	0.085065	-1.320551
C	-0.442213	1.25207	0.726063
H	0.047336	2.132996	0.309721
H	-0.154038	1.13404	1.772028
H	-1.531005	1.330633	0.646956
N	-0.512361	-1.144357	0.677317
H	-0.303983	-1.986829	0.148365
H	-1.542546	-1.001072	0.663994
C	-0.112881	-1.183748	-2.177866
N	0.179295	-2.189296	-2.711362
N	-0.023978	1.214775	-2.216385
O	-0.696364	2.240363	-2.117393
O	1.025149	1.112937	-2.855633
H	-3.00579	0.0	0.0
