13
Coordinates from ORCA-job run
  C   -0.77286105834889     -0.19109363509346      0.62102587277451
  C   0.71718550849842     -0.05249529163669      0.29161837690865
  Br  -1.10405971089397     -2.22524236614625      0.70605317780339
  H   1.28577622480226     -0.64435500352941      1.02056928520617
  H   -0.98859909931198      0.10061412896905      1.64740664562689
  N   -1.54783940262768      0.49862993881853     -0.30014784910794
  H   -2.54257620183197      0.43990457867953     -0.14342091983392
  H   -1.28625765568409      0.28137351290983     -1.25293657943938
  C   1.10219827695266      1.35493324676967      0.46369139526256
  N   1.44693102528408      2.46563620946437      0.62206890503872
  N   0.93388109395044     -0.44768833929175     -1.09819948944777
  H   0.92089818370185     -1.45956577931851     -1.15385962939139
  H   1.83432281550887     -0.11965120059492     -1.42386919140049
