13
Coordinates from ORCA-job run
  C   -0.75943028434868     -0.25732099750527      0.58779289254060
  C   0.75690974358707     -0.23753287859412      0.34755901690131
  Br  -1.37497601705471     -2.08960383386592      0.76665342974299
  H   1.24980350685289     -0.74202564079859      1.18432250912614
  H   -0.97212854626163      0.20540030954192      1.55801283049369
  N   -1.42190213644483      0.36486945099051     -0.54357759113226
  H   -1.34669861916194      1.37410496259756     -0.45918696416968
  H   -2.40417050603006      0.12267547539424     -0.55747322838177
  C   1.15683590777620      1.19091653131410      0.37831482288358
  N   1.44999135891822      2.32913114946900      0.36121545667736
  N   1.08143583573931     -0.91840537660754     -0.88494784219339
  H   0.52128895750542     -0.52352940370551     -1.63113452471061
  H   2.06304079892274     -0.81767974823039     -1.10755080777797
