13
Coordinates from ORCA-job run
  C   -0.75558675082366     -0.08940845142789      0.66399332327741
  C   0.72449524026081     -0.07756998969049      0.26707054027019
  Br  -1.21215876757949     -2.08299025542172      0.92765331669154
  H   1.28551066866735     -0.64730596286397      1.01914647532988
  H   -0.90658088027283      0.29682728943762      1.67056821043321
  N   -1.52429409558308      0.57630201614886     -0.27992123095672
  H   -2.51282053789494      0.59781288670829     -0.08072429712352
  H   -1.31954089668600      0.26688967189911     -1.22107893380583
  C   1.20565376438757      1.30994446808623      0.30883637164068
  N   1.62709513980784      2.40405871758263      0.36267320726164
  N   0.85438481364587     -0.59488464513684     -1.09321464165038
  H   1.75823885856676     -0.35373702651026     -1.47957104749990
  H   0.77560344350380     -1.60493871881159     -1.06543129386819
