13
Coordinates from ORCA-job run
  C   -0.77902522944693     -0.25300344789538      0.56438349372846
  C   0.74465351084799     -0.23491113062581      0.37491545027747
  Br  -1.40108093621713     -2.08381526446744      0.73722448727380
  H   1.20889667301347     -0.73055512183699      1.23309122268605
  H   -1.02417303699747      0.21672165465680      1.52369272151642
  N   -1.40345084876049      0.35920185252140     -0.59349574972723
  H   -2.38765615802734      0.12759935959182     -0.62973460610075
  H   -1.31939639049356      1.36901508176077     -0.52149576350102
  C   1.14349801639965      1.19368227621579      0.40491077627299
  N   1.43839267069590      2.33139351554829      0.38623282423355
  N   1.11084927130004     -0.92842514768996     -0.83914848200691
  H   0.57148539284204     -0.54528185075888     -1.60655545653032
  H   2.09800706484385     -0.82262177702043     -1.03302091812251
