14
Coordinates from ORCA-job run
  C   0.74985263415806     -0.92766933626669      0.20410250353272
  C   -0.13377449119508      0.18593852737285     -0.37335774602619
  Br  0.67857937726713     -0.97581217254461      2.16334717286797
  H   0.03159530685445      0.12672007882208     -1.45728944811837
  H   0.38448859165230     -1.90669611180497     -0.11450170346806
  C   2.13784905579052     -0.77355394898141     -0.20944726332465
  N   3.24311795073826     -0.66490623333518     -0.59118476672142
  N   0.38329540435293      1.47252519177523      0.06091681670796
  H   0.01133147452988      2.21324424030211     -0.51973818684100
  H   0.10618718874972      1.65617830433591      1.01832496836055
  C   -1.61491817956724     -0.06161370461981     -0.09567076794630
  H   -1.82570341015501      0.00762044845161      0.97349407212572
  H   -2.21279542427155      0.69474158671325     -0.60975003600154
  H   -1.93810547890436     -1.04571687022036     -0.44824561514740
