14
Coordinates from ORCA-job run
  C   0.95005697834844     -0.53634063122793      0.48104520215935
  C   -0.02953818807281      0.45706596537661     -0.15292967600235
  Br  2.64365473460424      0.33614921955367      0.94287734259855
  H   0.45499784119631      0.86596648447784     -1.05315315512545
  H   0.53359592100406     -0.88528430100016      1.42876266776842
  C   1.24234870637930     -1.66195218000185     -0.39479487362620
  N   1.44513059741419     -2.56358680928635     -1.12036247450642
  N   -0.35230888783615      1.46243829633767      0.85085316302661
  H   0.44308876251548      2.06871589423541      1.01250632555078
  H   -1.11420689704460      2.04011772058821      0.51655234117485
  C   -1.30781632846648     -0.26822436369688     -0.55416044410109
  H   -2.01097903501095      0.44341952098831     -0.99531944856509
  H   -1.11769794337405     -1.04929603861401     -1.29138191204995
  H   -1.78032626165699     -0.70818877773055      0.32750494169799
