14
Coordinates from ORCA-job run
  C   1.01468378884534     -0.42502275610093      0.46076160294911
  C   -0.05755289976600      0.41053963357608     -0.24729075232137
  Br  2.74013805709989      0.50573385840418      0.47675425938036
  H   0.29688572489029      0.59729433496802     -1.27293752563508
  H   0.73459336359306     -0.53819656931605      1.51039009545026
  C   1.20551584063350     -1.72563910331605     -0.16459489599457
  N   1.32436638081366     -2.77222632655793     -0.68482363328851
  N   -0.26245624878120      1.62214184821163      0.53566723432479
  H   -1.06920359550510      2.12028417878598      0.17918935267550
  H   0.53806261925475      2.23728316555275      0.45013908970759
  C   -1.36462675045364     -0.37040306664606     -0.30033213879119
  H   -1.26083212172379     -1.29738933249155     -0.86622020018991
  H   -1.70543610163267     -0.59974832508817      0.71243593018862
  H   -2.13413805726811      0.23434846001810     -0.78813841845560
