14
Coordinates from ORCA-job run
  C   0.91549904702059     -0.86936434052239     -0.15550114652571
  C   -0.23060789096166      0.07740564257319     -0.55733247268673
  Br  0.36945548705290     -2.74432243872378     -0.27331017364966
  H   -0.62866345854652     -0.30586876704245     -1.50774416417443
  H   1.73764075462820     -0.76842902718594     -0.86721040450168
  C   1.40779561008373     -0.58560365102265      1.18557289745050
  N   1.78279292156958     -0.35729806347078      2.27494314043756
  N   0.37908329908370      1.39649623894183     -0.67443745637853
  H   -0.30339983506943      2.12590785531655     -0.51405245133748
  H   0.78019099998552      1.53612194581558     -1.59328766760708
  C   -1.34142764011534      0.11117575445516      0.47731673262119
  H   -0.97149718551767      0.54441755727447      1.40953660211007
  H   -1.72888115094889     -0.88697760786788      0.68198469411682
  H   -2.16798095826470      0.72633890145909      0.11252187012517
