17
Coordinates from ORCA-job run
  C   0.57389483946066     -0.29460398217066     -0.38150594015560
  C   -0.94466371973736     -0.06016148926873     -0.18868520371031
  Cl  0.78865420814892     -1.69430245681112     -1.43179670906294
  H   -1.37241376001383      0.02292541151171     -1.18842750718022
  N   1.25664917738181     -0.55764528202837      0.96675652720534
  O   1.80000435219685     -1.62642721229346      1.17800160409184
  O   1.21078125587312      0.40038367796599      1.73710118670547
  C   1.23785753795992      0.92335372063173     -0.99313087530032
  H   0.78845844393128      1.13098977472246     -1.96570550059485
  H   2.30162900866959      0.72858637446960     -1.13879706640231
  H   1.11998214451331      1.78506396657548     -0.33815511716337
  N   -1.36789264028126      1.02904621022105      0.62035135167753
  H   -1.47867669394896      1.88013751998773      0.09145373640839
  H   -0.77290881206804      1.16947368793787      1.42488879870083
  N   -1.55937569289504     -1.31611035168452      0.38538229184806
  O   -1.16196591713151     -1.63708666927934      1.50177459448283
  O   -2.42001373205944     -1.88162290048743     -0.27850617155037
