17
Coordinates from ORCA-job run
  C   0.61750769778159     -0.20371097366181     -0.03111443168614
  C   -0.86778652468660      0.15502119391562      0.22661707804085
  Cl  0.91476128412909     -1.89443831743434      0.35455541702550
  H   -1.00096485962448      1.19814274998283     -0.05637260224561
  N   1.37428532416379      0.68848323594455      0.96768654626619
  O   1.14398286864004      1.88762584490706      0.82894062973933
  O   2.12131400107152      0.18632387723369      1.79172134464450
  C   1.14526614958289      0.12922639353687     -1.41132149973713
  H   2.22514257631055     -0.03026315216978     -1.43236951151571
  H   0.92379681887811      1.16872688346859     -1.65351454129522
  H   0.68095841617027     -0.51555830598336     -2.15506576020412
  N   -1.36524731495783     -0.06157351693389      1.53422570087211
  H   -1.14679309798538      0.70290353944008      2.15546340655119
  H   -1.09053634607316     -0.95103703546570      1.92642278587875
  N   -1.69628529662453     -0.63018758771987     -0.76606886938851
  O   -2.19839976481767     -1.67818688372053     -0.38154627261624
  O   -1.77900193195819     -0.15049794534002     -1.89625942032973
