17
Coordinates from ORCA-job run
  C   0.66533828082655     -0.27096173550477     -0.35239947578324
  C   -0.84115688940769      0.02379921897891     -0.17675764706347
  Cl  1.00943908692473     -1.79999990516169     -1.17423148578063
  H   -1.20859232884644      0.34070053491550     -1.15432270137949
  N   1.28384797825502     -0.40151092496257      1.03689550656506
  O   0.64674138041590     -1.07453710213486      1.84112245587291
  O   2.35985279949804      0.14453081708619      1.23954349760132
  C   1.32015116288881      0.86782458213801     -1.10084479285698
  H   1.13495073454825      1.80365410116174     -0.57473060764872
  H   2.39198174784180      0.69833899861407     -1.17649099317143
  H   0.89794941973059      0.91622126345192     -2.10590588244784
  N   -1.00396849699643      1.05654382074973      0.78435673232012
  H   -0.97945794765523      0.66633665163332      1.71979511025235
  H   -1.88875421762943      1.52970836124309      0.65906638781443
  N   -1.70427691978008     -1.21368047302688      0.11875060942194
  O   -2.13507117338266     -1.34758709655190      1.25807792153757
  O   -1.94597461723174     -1.93838111262982     -0.84092463525391
