14

C	0.0	0.0	0.0
C	-0.437568	0.013972	-1.461548
Cl	1.77777	0.0	0.0
H	0.398773	0.335323	-2.086926
H	-0.32192	0.94915	0.415406
C	-0.477458	-1.069262	0.870489
N	-0.559921	-1.895237	1.703995
N	-1.486127	1.060569	-1.756674
O	-2.368478	0.806373	-2.554985
O	-1.201383	2.169096	-1.316282
N	-0.823715	-1.294089	-2.08454
O	-1.180778	-2.235991	-1.392839
O	-0.708102	-1.305441	-3.31228
F	-2.298588	0.0	0.0
