14

C	0.0	0.0	0.0
C	-0.328276	0.303121	-1.466041
Cl	1.779583	0.0	0.0
H	0.443416	-0.109835	-2.115887
H	-0.371834	0.798398	0.628121
C	-0.48016	-1.294638	0.465245
N	-0.582203	-2.375457	0.91909
N	-0.263952	1.781724	-1.718417
O	-0.52043	2.561659	-0.808832
O	0.0536	2.096658	-2.86527
N	-1.600845	-0.22115	-2.082241
O	-2.374467	0.573455	-2.590824
O	-1.605912	-1.438731	-2.204293
F	-2.277253	0.0	0.0
