14

C	0.0	0.0	0.0
C	-0.256304	0.128367	-1.510288
Cl	1.779657	0.0	0.0
H	0.355163	-0.594791	-2.047391
H	-0.369668	0.868337	0.527247
C	-0.508387	-1.245198	0.555361
N	-0.595728	-2.307753	1.054632
N	0.227638	1.471547	-1.986629
O	0.680461	1.4944	-3.130243
O	0.112148	2.435104	-1.240113
N	-1.63086	-0.03168	-2.117102
O	-1.928898	-1.185886	-2.387912
O	-2.218898	0.979559	-2.468873
F	-2.273824	0.0	0.0
