19

C	0.0	0.0	0.0
C	-0.503384	-0.214017	-1.426404
F	1.358016	0.0	0.0
H	-1.498514	-0.641654	-1.292188
N	-0.587876	1.069913	0.647459
H	-1.631645	0.83367	0.503632
H	-0.34666	1.023824	1.631521
N	-0.248391	-1.333909	0.840212
O	-0.632965	-2.364884	0.300087
O	0.01625	-1.238018	2.040298
C	0.421782	-1.117173	-2.238859
H	0.571414	-2.083149	-1.754072
H	-0.030388	-1.302335	-3.21841
H	1.399678	-0.652406	-2.402826
C	-0.687148	1.13755	-2.113852
H	-0.916761	0.979516	-3.173872
H	0.211341	1.759173	-2.042964
H	-1.523152	1.657247	-1.649146
F	-2.825105	0.0	0.0
