19

C	0.0	0.0	0.0
C	-0.467415	-0.121266	-1.473335
F	1.368765	0.0	0.0
H	-1.357587	-0.746029	-1.425965
N	-0.540555	1.012941	0.80408
H	-1.577147	0.78283	0.697419
H	-0.365585	1.891702	0.32963
N	-0.320984	-1.343774	0.715145
O	-0.137681	-2.363851	0.04963
O	-0.631342	-1.332937	1.896325
C	0.596427	-0.713762	-2.396128
H	1.419359	-0.009239	-2.551052
H	1.005536	-1.640853	-2.0002
H	0.149217	-0.923863	-3.373374
C	-0.955044	1.227095	-1.999281
H	-0.192218	2.011886	-1.921813
H	-1.852923	1.484201	-1.440205
H	-1.218043	1.130864	-3.058118
F	-2.767339	0.0	0.0
