19

C	0.0	0.0	0.0
C	-0.225602	-0.003488	-1.562062
F	1.362737	0.0	0.0
H	0.422944	0.853955	-1.806563
N	-0.623305	1.003623	0.739316
H	-0.505908	1.866911	0.213225
H	-1.667167	0.704181	0.618916
N	-0.327624	-1.344071	0.692102
O	0.269876	-2.331008	0.253563
O	-1.071567	-1.353307	1.660194
C	-1.585183	0.310642	-2.167862
H	-1.414314	0.57477	-3.221952
H	-2.096508	1.117775	-1.655609
H	-2.262769	-0.53478	-2.086728
C	0.379644	-1.209905	-2.288081
H	1.378579	-1.456498	-1.932443
H	-0.252035	-2.090916	-2.163807
H	0.431506	-0.980805	-3.358591
F	-2.871261	0.0	0.0
