19

C	0.0	0.0	0.0
C	-0.413054	-0.204301	-1.488105
F	1.362267	0.0	0.0
H	0.550027	-0.377953	-1.981121
N	-0.624557	1.040163	0.645993
H	-0.42409	0.992312	1.638909
H	-1.660118	0.79758	0.489422
N	-0.190914	-1.367881	0.819403
O	0.330508	-2.38164	0.358602
O	-0.747475	-1.308946	1.911976
C	-1.037082	1.075481	-2.051596
H	-2.027377	1.171368	-1.60589
H	-0.437417	1.95852	-1.82492
H	-1.126242	0.981614	-3.140134
C	-1.332329	-1.389713	-1.80132
H	-1.613186	-1.33419	-2.859145
H	-0.839075	-2.345644	-1.630386
H	-2.226922	-1.278472	-1.184023
F	-2.908887	0.0	0.0
