19

C	0.0	0.0	0.0
C	-0.401892	-0.155592	-1.492727
F	1.400852	0.0	0.0
H	0.562522	-0.313881	-1.98797
N	-0.61803	1.017106	0.680639
H	-0.416005	0.935444	1.670887
H	-1.657753	0.779974	0.513265
N	-0.16443	-1.391994	0.773556
O	0.354706	-2.386585	0.272222
O	-0.70548	-1.370319	1.875812
C	-1.019149	1.142943	-2.016465
H	-2.009584	1.234546	-1.570536
H	-0.414128	2.015254	-1.760633
H	-1.109637	1.082254	-3.106492
C	-1.320184	-1.330433	-1.847376
H	-1.592159	-1.242627	-2.905932
H	-0.827328	-2.29107	-1.70365
H	-2.219259	-1.238493	-1.233209
F	-2.89991	0.0	0.0
