14
Coordinates from ORCA-job run
  C   0.74061579831715     -0.36301830183238     -0.55687050230913
  C   -0.50222223367217     -0.02719735325842      0.25473048268790
  F   1.28937285952830      0.74853830642952     -1.09210788637026
  H   -0.86119587470749     -0.96653367532445      0.68638000999729
  H   0.52400395669746     -1.08642175021375     -1.34581369378982
  N   1.75537131997570     -1.03165189933994      0.34384072558094
  O   2.80209787367605     -0.44785552018775      0.57616625823268
  O   1.39632110108564     -2.12583253016646      0.76804379867615
  C   -1.57950972823081      0.59263450424946     -0.64016641823727
  H   -1.85215797214582     -0.10491787044865     -1.43555899516196
  H   -2.47246527618320      0.81389534215259     -0.05480197353997
  H   -1.21879675781654      1.51844214366254     -1.08849649509061
  C   -0.14509590870258      0.87294242757014      1.35435744836415
  N   0.12266084217832      1.60697617670755      2.23029724095991
