14
Coordinates from ORCA-job run
  C   0.89631157101167     -0.49722695483794      0.40357688592769
  C   -0.58943966891100     -0.17632283862982      0.33292891720668
  F   1.09675891015378     -1.64883938704841      1.08912068506126
  H   -1.07744469028744     -1.08128831725578     -0.04641250243703
  H   1.50282666380798      0.30214677848260      0.82998448478639
  N   1.38558489083691     -0.69876688409489     -1.00632231301526
  O   1.00072645994084     -1.71332648790457     -1.57609444174734
  O   2.08278455521261      0.19714125724274     -1.47485334089609
  C   -0.88646374797695      1.01331740037522     -0.58548460621765
  H   -1.94815712702597      1.25620847631325     -0.54234221262946
  H   -0.31843554236750      1.89430748682370     -0.28098057124599
  H   -0.63346726652363      0.77335482972674     -1.61875802348947
  C   -1.06593522793562      0.07213542075551      1.69434382721780
  N   -1.44564977993567      0.30515922005165      2.78029321147847
