14
Coordinates from ORCA-job run
  C   0.74670150969859     -0.36272657268137     -0.55087781436158
  C   -0.50596289786485     -0.02887085931493      0.24632896978270
  F   1.30449990992153      0.75051727219244     -1.07318588725276
  H   -0.87500364233858     -0.97072053421957      0.66382433389824
  H   0.53871554607274     -1.08158847252316     -1.34629515102013
  N   1.74819365279890     -1.03758123024691      0.36002938414788
  O   1.38105666567420     -2.13239677740780      0.77535157869429
  O   2.79213603218731     -0.45597142629756      0.60971170597199
  C   -1.56777830512472      0.60455814871254     -0.65746834099261
  H   -1.19871105161634      1.53581662812672     -1.08702481542410
  H   -1.82828854031037     -0.08145757262003     -1.46674483803978
  H   -2.46995754720472      0.81901602854955     -0.08388812996164
  C   -0.16121561412631      0.85836932384867      1.36029531982984
  N   0.09561428223262      1.58103604388141      2.24894368472766
