14
Coordinates from ORCA-job run
  C   0.76334922238953     -0.69746085418662      0.38009724922783
  C   -0.65485759081657     -0.20405275899314      0.13433438557445
  F   0.75817057608124     -2.02154296855847      0.66808867573062
  H   -1.08535596503205     -0.87949064217819     -0.61369338286931
  H   1.29573305244908     -0.14816133859366      1.15687985049877
  N   1.54107512376373     -0.49733637492738     -0.89415584185345
  O   2.36163283496278      0.41644697722601     -0.89465485499179
  O   1.24852309269676     -1.23081343596394     -1.83116172784599
  C   -0.69056922035403      1.24155811131713     -0.37148688771205
  H   -0.22142802342182      1.31732523709260     -1.35334427810588
  H   -1.72490031010158      1.57415072977499     -0.46122506181182
  H   -0.17110471671781      1.91049109481200      0.31759358591993
  C   -1.40975383328795     -0.34925235657878      1.37968852929472
  N   -2.01151424261129     -0.43186142024255      2.38403975894398
