14
Coordinates from ORCA-job run
  C   0.82981837446347     -0.20361761209316     -0.51229758698626
  C   -0.53182298863208     -0.09595471764796      0.15894924022697
  F   1.39890597792517      1.01176953305864     -0.66022665911503
  H   -0.90729750105090     -1.11693693183946      0.27823056952584
  H   0.76331651774683     -0.70276304900281     -1.48141628547808
  N   1.73219271449909     -1.07295865383559      0.33540323435377
  O   1.36573885529493     -2.24160669016501      0.41148533633537
  O   2.70503378860877     -0.55947031645036      0.86480866405471
  C   -1.49397461014725      0.72810559026937     -0.70162337393109
  H   -1.61070193947758      0.26327769564275     -1.68316984830017
  H   -1.11709091772120      1.74236931970105     -0.83240602722853
  H   -2.47363770507389      0.77932368365534     -0.22583312771713
  C   -0.38022949762437      0.49163476219174      1.49278692901964
  N   -0.27925106881099      0.97582738651547      2.55730893524000
