14
Coordinates from ORCA-job run
  C   0.49080007721707     -1.04799472018674     -0.23155502188009
  C   -0.74839804286558     -0.24807721047919      0.16667975835999
  F   0.36374672161819     -1.44634569144948     -1.51989952241354
  H   -1.59322049419688     -0.88167505440419     -0.12899174995058
  H   0.67684365128650     -1.91136645109428      0.40811573723269
  N   1.71072637402568     -0.16649412616819     -0.11903270964703
  O   2.17634470632728      0.30584483458716     -1.14632648099370
  O   2.08969124122236      0.02632587760211      1.03173026481145
  C   -0.83450624198294      1.08919084076280     -0.57596843060453
  H   -1.80903596549857      1.54572841368679     -0.40091260778562
  H   -0.70639213723758      0.92975119904473     -1.64710858680998
  H   -0.06583821058352      1.78006838441203     -0.22691439848161
  C   -0.82303226345007     -0.06809860598146      1.61659732772380
  N   -0.92772941588193      0.09414230966790      2.77458642043876
