14
Coordinates from ORCA-job run
  C   0.48408133687403     -1.04105150412402     -0.26768679142930
  C   -0.74671720229202     -0.25109575283375      0.17489093460133
  F   0.33249865232459     -1.40576917451972     -1.56324986855140
  H   -1.59769039488484     -0.87734140762530     -0.11863566749311
  H   0.68064016301637     -1.92088269698462      0.34588990849152
  N   1.70737522131090     -0.16406280131946     -0.15532620714461
  O   2.15454591967471      0.33371213315848     -1.17893261929995
  O   2.11084745033349     -0.00380015612026      0.99210966324089
  C   -0.84722867227404      1.10371795742599     -0.53315162769081
  H   -1.81643576239634      1.55754627412750     -0.32457395086671
  H   -0.06911782452989      1.78469074252118     -0.18561623802286
  H   -0.74459189232256      0.96981914204554     -1.61053324586119
  C   -0.78840779146454     -0.10731103056246      1.63026330449522
  N   -0.85979920336989      0.02382827481081      2.79455240553099
