14
Coordinates from ORCA-job run
  C   0.82133498449525     -0.57981888802419      0.44959273372882
  C   -0.63496252662816     -0.22265907727116      0.19211251825549
  F   0.91817535692404     -1.84042925141625      0.93706558079563
  H   -1.04205076743820     -1.03295971081770     -0.42314067222972
  H   1.33867601718702      0.11738923838643      1.10920227165785
  N   1.54180944751595     -0.53117489319598     -0.87217066087155
  O   2.29939213062058      0.41967852186455     -1.04617720991183
  O   1.26774030740210     -1.41664642587885     -1.67391806163889
  C   -0.78669066473258      1.12069829501743     -0.52882314245942
  H   -0.28344885172373      1.91841113256047      0.02074083641979
  H   -1.84298899536895      1.37553070918499     -0.61587236602102
  H   -0.36524443949253      1.06712723552410     -1.53333217007544
  C   -1.33621705234830     -0.21723374448384      1.47671489106135
  N   -1.89552494641247     -0.17791314145000      2.50800545128896
