14
Coordinates from ORCA-job run
  C   0.88702592202814     -0.45744112723817      0.46541964914139
  C   -0.60436073765218     -0.26383869498763      0.23420042392937
  F   1.12077076864478     -1.65540394288815      1.05406049592626
  H   -0.94852254348729     -1.16031975821678     -0.29379354921358
  H   1.35285896152872      0.34078708798129      1.04385006641394
  N   1.55978943983956     -0.45714721384645     -0.88185350861382
  O   2.21321944301566      0.54334474807388     -1.16525998582995
  O   1.35120360414060     -1.43230846443618     -1.59425637386470
  C   -0.90785994323219      0.99009218276682     -0.59208589366189
  H   -0.51268023074683      0.88801001507270     -1.60347282252184
  H   -0.46900707857103      1.87743056229501     -0.13198945490081
  H   -1.98609002341596      1.13493408095560     -0.66064727417179
  C   -1.26370410385480     -0.21195481581939      1.53982376270562
  N   -1.79264347823719     -0.13618465971256      2.58500446466179
