14
Coordinates from ORCA-job run
  C   0.51897661422827     -1.03205848703078     -0.23868026814315
  C   -0.73563592151463     -0.27163037341624      0.18836289503203
  F   0.37189354290839     -1.44147877360700     -1.52128432204168
  H   -1.56606192184214     -0.93626812998819     -0.07839487138096
  H   0.75026165909760     -1.88514554307747      0.40001324272741
  N   1.71183261867108     -0.11043419394195     -0.16200417789858
  O   2.13315872089823      0.37347986455080     -1.20298390902433
  O   2.11703461814232      0.09758621985519      0.97714756316712
  C   -0.88836610374766      1.05542286544589     -0.56177681386484
  H   -0.13209249362064      1.77385085462175     -0.24257765387917
  H   -1.87108946356859      1.48209709525850     -0.35928693398729
  H   -0.78881862241860      0.89062539924941     -1.63513131591679
  C   -0.77350099313549     -0.08172639477027      1.63850000436580
  N   -0.84659225409815      0.08567959685036      2.79809656084441
