14
Coordinates from ORCA-job run
  C   0.90685469074487     -0.51731591728549      0.34726313139396
  C   -0.58624534349557     -0.22748798282292      0.30514555852805
  F   1.13406568874047     -1.73538190415810      0.89609189431984
  H   -1.04947086494889     -1.09283782293291     -0.18232997828059
  H   1.49172795366704      0.24195014952597      0.86700859257478
  N   1.40661921505578     -0.54234083054271     -1.07349078119496
  O   1.05765332292875     -1.49788787424420     -1.75646244030209
  O   2.07677078926089      0.42218051272547     -1.43227010200756
  C   -0.91077061296043      1.05527627617415     -0.46667090009057
  H   -0.64588771869812      0.94796984581632     -1.51906449820888
  H   -1.97893185535120      1.26319390890402     -0.40403004686568
  H   -0.36849086338448      1.90776086913388     -0.05378845149177
  C   -1.07328873503602     -0.15631922749630      1.68350607800289
  N   -1.46060566652309     -0.06776000279717      2.78809194362257
