14
Coordinates from ORCA-job run
  C   0.84576000290861     -0.61370182418108      0.34443858797367
  C   -0.61983410725190     -0.21725020940817      0.24300138952698
  F   0.95820565287878     -1.89641548832225      0.76661862923324
  H   -1.10272322351981     -0.99317386274164     -0.36170489991195
  H   1.43958291474737      0.04274004091542      0.98096121054925
  N   1.43812665955431     -0.52017542758304     -1.03692873862223
  O   2.19428069698486      0.42532052730237     -1.24323032720625
  O   1.07041447876018     -1.36520120935691     -1.84479002815009
  C   -0.80876227713018      1.15744419591939     -0.40629546951402
  H   -1.86227009074379      1.43618576127828     -0.38023735104514
  H   -0.23628744611383      1.92208857415274      0.12214795290531
  H   -0.48751106474733      1.13693336197770     -1.44837494309155
  C   -1.19318912173364     -0.25364744666898      1.58911143960660
  N   -1.63579307459362     -0.26114699328386      2.67628254774617
