14
Coordinates from ORCA-job run
  C   0.48351510234051     -1.03991508720428     -0.27404714679910
  C   -0.74790846009467     -0.25012472951114      0.16697858488573
  F   0.34174765845603     -1.38949276083223     -1.57492276170499
  H   -1.59872649411547     -0.87211855369518     -0.13579877873345
  H   0.67123749276182     -1.92729488303498      0.33136421027430
  N   1.70931769275434     -0.16962888494884     -0.14126415465300
  O   2.11013654943604     -0.03234435972170      1.01002497246905
  O   2.15923820180791      0.34794396887686     -1.15375879948058
  C   -0.84168675890525      1.11019068287187     -0.53126254108264
  H   -0.06261440416685      1.78642431737035     -0.17685165760462
  H   -1.81011740710133      1.56553481772616     -0.32233000249301
  H   -0.73603904391804      0.98381960862362     -1.60924035831210
  C   -0.79748491220758     -0.11702275105178      1.62315067837722
  N   -0.87961521704745      0.00302861453128      2.78795775485718
