18

C	-0.487246	0.180042	-1.441538
C	0.0	0.0	0.0
F	-1.83454	0.473669	-1.431784
H	1.089834	0.0	0.0
C	0.270872	1.268815	-2.150182
H	1.341917	1.079775	-2.077044
H	-0.037425	1.318368	-3.196516
H	0.037019	2.217066	-1.666046
N	-0.362334	-1.116862	-2.229358
O	-1.349691	-1.843422	-2.26163
O	0.720246	-1.331786	-2.760449
N	-0.527791	-1.318053	0.520515
O	-1.572179	-1.298729	1.165992
O	0.113269	-2.322311	0.217696
N	-0.416226	1.05622	0.85644
H	0.331867	1.718077	0.991532
H	-1.285096	1.490895	0.591998
Br	3.436722	0.0	0.0
