18

C	-0.478658	0.108312	-1.438944
C	0.0	0.0	0.0
F	-1.812576	0.429108	-1.506486
H	1.088353	0.0	0.0
C	0.324835	1.135076	-2.192423
H	0.160882	2.09831	-1.710532
H	-0.025086	1.16796	-3.225679
H	1.388786	0.891596	-2.137962
N	-0.335334	-1.21703	-2.162273
O	-0.9621	-1.327629	-3.21091
O	0.43042	-2.045494	-1.681544
N	-0.49706	-1.252343	0.676643
O	-1.64956	-1.608231	0.415363
O	0.226405	-1.764386	1.522655
N	-0.449096	1.158906	0.713983
H	-1.437436	1.10112	0.924857
H	0.099032	1.262248	1.557302
Br	3.49163	0.0	0.0
