14
Coordinates from ORCA-job run
  C   -0.41378073867076      0.09783694910870      0.43235385167223
  C   0.92326054770232      0.12476673443726     -0.35760058171696
  F   -0.18004704901640     -0.58772936121329      1.60716015355310
  H   0.77192913475429      0.72160998359911     -1.26598022578563
  C   -0.77955849234202      1.48625712013865      0.76159078501149
  N   -1.09157770827902      2.59634856491244      0.98450423077269
  C   -1.52516356607267     -0.59408232362737     -0.33066552398003
  H   -1.24467858174081     -1.63124591231689     -0.51983440649394
  H   -1.72224618018281     -0.08787825073321     -1.27770013488748
  H   -2.43266415343253     -0.57828327791033      0.27387867982886
  C   1.30665015679648     -1.23510678561228     -0.74941253290023
  N   1.58371869208857     -2.32707369051583     -1.07928129009719
  C   1.98217548996899      0.74994394586329      0.44121976129873
  N   2.82198244842639      1.26463630386975      1.07976723372436
