14
Coordinates from ORCA-job run
  C   -0.48633047710773      0.02434754787974      0.55703821165328
  C   1.04925962255096     -0.03264241651376      0.31979840335549
  F   -0.73354354692734     -0.83954444713308      1.60907123553267
  H   1.53501027413926      0.25024650201256      1.26167051785836
  C   -0.83649709154966      1.38797872510789      0.98814798525089
  N   -1.11709794995633      2.47813470273774      1.32347713584231
  C   -1.29829049400101     -0.40684345786404     -0.64468687266728
  H   -1.12101385782713      0.25756188086418     -1.49202788994044
  H   -1.02840479280312     -1.42898178752936     -0.91582556803985
  H   -2.35721924093270     -0.37726319410655     -0.38541311038197
  C   1.44503010590974      0.91081331349891     -0.72796332324159
  N   1.73516579651393      1.67536857480299     -1.57059895671185
  C   1.45352948008203     -1.39898675702786     -0.02432948991090
  N   1.75940217190912     -2.49818918672936     -0.30035827859913
