14
Coordinates from ORCA-job run
  C   -0.41643242905077      0.09388837047781      0.43021533466161
  C   0.92717796454699      0.12070940607647     -0.34797454228358
  F   -0.20062254390765     -0.61871438567386      1.59249933259928
  H   0.78981768360817      0.73467790166745     -1.24710385051908
  C   -0.76907923853146      1.47901683893867      0.78640967310699
  N   -1.07012833497176      2.58667765303055      1.03476093533894
  C   -1.52938574166173     -0.56893872770797     -0.35609711782410
  H   -1.25977085265135     -1.60540081208863     -0.56397159533050
  H   -2.44183676074760     -0.55451886764307      0.24097380901823
  H   -1.71225607055047     -0.04105883218332     -1.29407064065602
  C   1.29967195122634     -1.23614755233847     -0.76060402801179
  N   1.57103252578493     -2.32358611877060     -1.10963334976536
  C   1.98621788252220      0.72024476574298      0.47001945581972
  N   2.82559396438414      1.21515036047200      1.12457658384566
