14
Coordinates from ORCA-job run
  C   -0.52013740389114     -0.20157766419818      0.37037396693451
  C   0.92240003696315     -0.46033200443730     -0.13926777511126
  F   -0.84571718214732     -1.30413868292909      1.14053841516797
  H   0.88317052030417     -1.39500610362009     -0.71283358967416
  C   -0.54092771387169      0.99202806070403      1.23031584309482
  N   -0.57303639062651      1.96054870544923      1.89401201116898
  C   -1.51463628987575     -0.08375845166889     -0.76623567405098
  H   -1.46845665962275     -0.98483135979428     -1.38167640737004
  H   -1.30639100710058      0.79221139353731     -1.38186730651529
  H   -2.51803556522347      0.00637964509187     -0.34835909086921
  C   1.85038446769801     -0.64148061339161      0.98068389315747
  N   2.58841064795571     -0.79494158406627      1.88059091521942
  C   1.36174672753911      0.62252689711607     -1.02160684621435
  N   1.68122581189907      1.49237176220719     -1.74266835493788
