14
Coordinates from ORCA-job run
  C   -0.50080452063656     -0.15153934656973      0.41616783978873
  C   0.90826658297665     -0.48890481659343     -0.13955787377852
  F   -0.79556747145325     -1.15824540260298      1.31852385011393
  H   0.82631954134882     -1.47813942886219     -0.60730243715113
  C   -0.46049522866197      1.12829594637163      1.14075457866219
  N   -0.44946635891390      2.16211291802614      1.69814931042890
  C   -1.55574593727292     -0.14063788253703     -0.67079997957044
  H   -1.36869464404689      0.65509332444099     -1.39302548115636
  H   -1.55817203933373     -1.10664452342264     -1.18034186977403
  H   -2.53264315666068      0.01844776392273     -0.21256930340238
  C   1.89373091313810     -0.56684388789722      0.94274567594077
  N   2.67762186961476     -0.63724939651877      1.81372229780488
  C   1.31206007778041      0.48790418507585     -1.15289601977232
  N   1.60359037212116      1.27535054716663     -1.97357058813420
