14
Coordinates from ORCA-job run
  C   -0.49101380442854     -0.20185433554415      0.29721827803318
  C   0.98242229213102      0.15757203844689     -0.03582349825786
  F   -0.55737067888808     -1.57404643275371      0.42847887885021
  H   1.06485545579544      1.25088331399529     -0.08361465744506
  C   -0.83129167229935      0.41336202096257      1.59167520562970
  N   -1.11225112234783      0.94555457398911      2.60031168420890
  C   -1.45403271033933      0.23902894006939     -0.78657114627307
  H   -1.20565509645111     -0.26630674091344     -1.72100038429499
  H   -1.41014987874470      1.32040092808168     -0.93030989488906
  H   -2.46759656495296     -0.03732973749991     -0.49407803965011
  C   1.35705062313260     -0.39615668865609     -1.34075550525644
  N   1.63537276849316     -0.81842523200163     -2.40005921136156
  C   1.88512584523466     -0.33080282903438      1.01154255263403
  N   2.60453454366503     -0.70087981914162      1.86198573807213
