14
Coordinates from ORCA-job run
  C   -0.48897916332306     -0.15913647047000      0.42998022695535
  C   0.91575521440704     -0.46872598154106     -0.15134236589413
  F   -0.74266041016795     -1.16489184473160      1.34575546111087
  H   0.84702464540982     -1.46425294099527     -0.60784887924462
  C   -0.46440139466263      1.12772021167424      1.14276448461048
  N   -0.46385992793879      2.16939201284903      1.68534501388835
  C   -1.56468427493775     -0.18072435035605     -0.63656286473060
  H   -1.41438701439649      0.61919687771499     -1.36264057614141
  H   -2.53655969903903     -0.04896686896440     -0.15939522049428
  H   -1.54978434262891     -1.14673654082273     -1.14582642659646
  C   1.92658430857245     -0.51362148352508      0.90899462129485
  N   2.73281369548671     -0.55933607767840      1.76105385613800
  C   1.27442786692414      0.50517403974879     -1.18436827708287
  N   1.52771049629445      1.28490941709754     -2.02490905381352
