14
Coordinates from ORCA-job run
  C   -0.40793592939539      0.08797050294750      0.44185791281205
  C   0.91941010957958      0.12900785466619     -0.36325338741131
  F   -0.16487044101800     -0.63169724446357      1.59410228081972
  H   0.76188750014609      0.75564136322550     -1.25037886443720
  C   -0.76036192285488      1.46902619233973      0.81392363203076
  N   -1.06082889805252      2.57484137501386      1.07134494791189
  C   -1.53309852497795     -0.57496598222680     -0.32673815618972
  H   -1.26256662021589     -1.60842729094587     -0.54788891102037
  H   -1.73748535178506     -0.04134147581849     -1.25699080470879
  H   -2.43332084800383     -0.56949627666067      0.28875871035578
  C   1.28675998154328     -1.22000804667597     -0.80491252483520
  N   1.55015678822593     -2.30030792946308     -1.18092214795741
  C   1.99392758051866      0.72052860723871      0.44023098390909
  N   2.84832657628998      1.20922835082295      1.07986632872071
