14
Coordinates from ORCA-job run
  C   -0.45497062128424      0.12417196379702      0.38154714896597
  C   0.95079746285664      0.11610200420249     -0.27844563595493
  F   -0.32429635275670     -0.45504377492260      1.62755567026071
  H   0.87840837314553      0.63177484979497     -1.24445769327107
  C   -0.87212903857048      1.52616565391003      0.55512166644022
  N   -1.22054259441995      2.64360210279734      0.65162187372707
  C   -1.47721325320140     -0.65527728435617     -0.42070815802823
  H   -2.43953808686202     -0.60811129542697      0.09019480653540
  H   -1.16494275736637     -1.69817984968337     -0.49041000577811
  H   -1.58805988275089     -0.23676889884148     -1.42293005855135
  C   1.39026255504504     -1.26259731993534     -0.51517703727538
  N   1.71390552251561     -2.37169258597000     -0.72276339927174
  C   1.91960371453882      0.82963381675778      0.55986568265969
  N   2.68771495911040      1.41522061787631      1.22698513954176
