14
Coordinates from ORCA-job run
  C   -0.52324012819327     -0.22217152658420      0.35330677879436
  C   0.94488369821368     -0.42227092393862     -0.10743533836541
  F   -0.82965871809927     -1.33742415091035      1.11293526778991
  H   0.96233154152794     -1.35779173778393     -0.68073991382549
  C   -0.62134139610511      0.96936554819324      1.21075680576136
  N   -0.71688796932736      1.93683954678961      1.86977880854310
  C   -1.48303943630374     -0.14396308168798     -0.81604273067668
  H   -1.37975648212048     -1.04201787128827     -1.42896393728652
  H   -2.50268584994866     -0.09491419773706     -0.43201017903668
  H   -1.29004389941901      0.74012700117711     -1.42497757886968
  C   1.84121992791879     -0.56658181483579      1.04315729586304
  N   2.55349129667330     -0.69292034007569      1.96770699399506
  C   1.36904658041885      0.67695752243419     -0.97683342757127
  N   1.67468083476432      1.55776602624774     -1.69063884511509
