14
Coordinates from ORCA-job run
  C   -0.44580207156121      0.13395220898221      0.38823835921472
  C   0.93962780564062      0.12101173262748     -0.31315999283964
  F   -0.26413241162561     -0.37199110081773      1.65950998885287
  H   0.82534914773534      0.57535792679727     -1.30559341795594
  C   -0.89279845371449      1.53324259882917      0.49716633600953
  N   -1.26809393046106      2.64523806203304      0.54091504062050
  C   -1.47223707304719     -0.71152445872882     -0.33841836764059
  H   -2.41687065523565     -0.66460304175287      0.20424373129216
  H   -1.13400393445267     -1.74812327559059     -0.36950354971969
  H   -1.62999751689356     -0.34537639090130     -1.35463786504196
  C   1.40752362411126     -1.25842779904259     -0.48128238918920
  N   1.75263071076047     -2.37002222496763     -0.63340060982486
  C   1.91362417570768      0.90767364655800      0.45016723626157
  N   2.68518058303607      1.55359211597437      1.05475549996052
