14
Coordinates from ORCA-job run
  C   -0.49159100461456      0.03679762138109      0.55242733102266
  C   1.04524111558584     -0.04508228763168      0.33049995889818
  F   -0.76153316705647     -0.81174751856921      1.61113290477666
  H   1.52584947621075      0.23945337134091      1.27452439260083
  C   -0.82507338144806      1.41013113791835      0.96549077788459
  N   -1.09159215980975      2.50771415755769      1.28756747649997
  C   -1.29848453673510     -0.39545815600043     -0.65225068797905
  H   -2.35909933254113     -0.34995098667459     -0.40248450461879
  H   -1.03951433527842     -1.42333414007654     -0.91149494035432
  H   -1.10550337322683      0.25842428728064     -1.50418225053111
  C   1.46507019956647      0.88265227306550     -0.72199842636931
  N   1.77742520333043      1.63509188007206     -1.56772783409243
  C   1.43278343942660     -1.42031473299385      0.00264977980927
  N   1.72702185659023     -2.52537690666994     -0.26315397754715
