14
Coordinates from ORCA-job run
  C   -0.47482719493859      0.02309498576250      0.56717603857246
  C   1.05515130592292     -0.04897693791261      0.29835927883787
  F   -0.71158625244082     -0.85136462895580      1.61269156064986
  H   1.56327427804698      0.22074029554792      1.23242639230311
  C   -0.79852947226558      1.38518124386838      1.02293143851653
  N   -1.05698417553494      2.47475562109047      1.37730479791222
  C   -1.31564552171015     -0.38223684791838     -0.62343570188633
  H   -1.15025653948429      0.29371516160978     -1.46382261355870
  H   -2.36860235966250     -0.34751371083073     -0.34141133719588
  H   -1.06085761877501     -1.40216351067262     -0.91620774644989
  C   1.43917783591099      0.89959975976169     -0.74944016048969
  N   1.71820551749935      1.66896022612821     -1.59141343140897
  C   1.43672724215321     -1.41665761943887     -0.06628284508626
  N   1.72475295527841     -2.51613403803993     -0.35987567071633
