14
Coordinates from ORCA-job run
  C   -0.50447245957264     -0.18375903773937      0.28318775728649
  C   0.99161564356060      0.10735776290500     -0.01517757297485
  F   -0.64583549634443     -1.55428777192452      0.36247569164156
  H   1.13452318177767      1.19543705046661     -0.01763986672578
  C   -0.83249679463731      0.40104989211886      1.59479067673970
  N   -1.10243221643917      0.90736285908089      2.61956043581457
  C   -1.42558691123689      0.34664374124869     -0.79687575863088
  H   -2.45656920101359      0.11323627580059     -0.52880706811854
  H   -1.32345748020845      1.42872937424868     -0.89976098976611
  H   -1.18915752094290     -0.13672066283934     -1.74586099626544
  C   1.35470708757504     -0.41465627865566     -1.33633483029744
  N   1.62065058818882     -0.81183642125008     -2.40853688081459
  C   1.84850244447585     -0.47343367344414      1.02334257632997
  N   2.53000913481739     -0.92512311001621      1.86563682578132
