14
Coordinates from ORCA-job run
  C   -0.49554988650845      0.01813550553652      0.54962595042682
  C   1.04288071262947     -0.06052555557141      0.33752612686565
  F   -0.77727474248066     -0.86895218678027      1.57304781267424
  H   1.51722593178910      0.19075944906273      1.29411012588674
  C   -0.82851094576345      1.37618585241429      1.01118412625616
  N   -1.09381187228980      2.46316388567151      1.36872931253695
  C   -1.29310344475707     -0.36520595340569     -0.67769457857991
  H   -2.35576853767266     -0.32642082150446     -0.43557645133227
  H   -1.09124594256020      0.32058572573670     -1.50209143812221
  H   -1.03427276287908     -1.38306453416753     -0.97425699924689
  C   1.47235234147751      0.90145616785297     -0.67987337293069
  N   1.78813222815234      1.68196945336692     -1.49820354831617
  C   1.42888398361896     -1.42507084786968     -0.03389982229723
  N   1.72006293724398     -2.52201614034262     -0.33362724382118
