14
Coordinates from ORCA-job run
  C   -0.50294025837937      0.02556781408843      0.54222156513437
  C   1.03985554188150     -0.00238897235396      0.35133431468440
  F   -0.76263690854415     -0.81855769654619      1.60719424692136
  H   1.49094240719815      0.31032774992129      1.30093229943041
  C   -0.89563696022326      1.39094977284593      0.92926987828223
  N   -1.21254445718307      2.48172024417372      1.22826847703615
  C   -1.26922519150028     -0.45226190899110     -0.67186141325299
  H   -2.33570003447671     -0.44110611720132     -0.44396766874605
  H   -1.08207718632715      0.19573513195373     -1.52977050358211
  H   -0.96857243926589     -1.47402733474937     -0.91022329025518
  C   1.44564916807255      0.92859578815363     -0.70374052167742
  N   1.74354407535845      1.68407461654954     -1.55190935566088
  C   1.48426454017188     -1.36590387133214      0.04797548469566
  N   1.82407770321734     -2.46272521651219     -0.19572351300997
