14
Coordinates from ORCA-job run
  C   -0.50920272719092     -0.14623495902075      0.40896277785854
  C   0.92809724854686     -0.46268498588006     -0.08257829370809
  F   -0.80024596685791     -1.11424451689964      1.35411989828967
  H   0.89513077957214     -1.47928186086657     -0.49437062864727
  C   -0.53571196609817      1.17040975735466      1.06498829383628
  N   -0.57229423084266      2.23272417670944      1.56474454409629
  C   -1.52673730134568     -0.22961623798387     -0.71009998731797
  H   -1.47359562846648     -1.21707836817776     -1.17367118903564
  H   -2.52368248527604     -0.09100922266632     -0.28996620688345
  H   -1.34819285230736      0.53921383116645     -1.46283581506234
  C   1.88043783629247     -0.44413114633097      1.03148710459208
  N   2.63762929286241     -0.43826798965955      1.92856268537218
  C   1.33008261693932      0.46750472148865     -1.13949793744091
  N   1.61828538417201      1.21269680076629     -1.99984524594937
