14
Coordinates from ORCA-job run
  C   -0.49892139544504     -0.19455990664211      0.28412909778723
  C   0.98820143627099      0.12932054454279     -0.02420235826618
  F   -0.61006444545602     -1.56804564559399      0.35998965145841
  H   1.10568234569077      1.22038465908536     -0.03526377847563
  C   -0.83055746084775      0.37812911129993      1.60006445985775
  N   -1.10343705962522      0.86994876242344      2.63107141499987
  C   -1.43834951631827      0.31953286141036     -0.78795330904812
  H   -1.19493542708788     -0.15126807003412     -1.74152612392580
  H   -1.36379769803081      1.40454299990844     -0.88366301438856
  H   -2.46185103190660      0.05867504608491     -0.51641003190530
  C   1.35572834582190     -0.39482357348385     -1.34341575877014
  N   1.62504615630297     -0.79588313495555     -2.41317171346254
  C   1.86517445632826     -0.42322928762417      1.01320442472650
  N   2.56308129430269     -0.85172436642145      1.85414703941252
