14
Coordinates from ORCA-job run
  C   -0.50420283915818     -0.12407735466510      0.42264438502527
  C   0.93180420440250     -0.45796309952607     -0.06120568148989
  F   -0.77672395193122     -1.03154751027549      1.43114013523249
  H   0.90529670366683     -1.49950117616412     -0.40562788047875
  C   -0.53847979072812      1.23210892316603      0.99193814932545
  N   -0.58278534052498      2.32470724974917      1.42068057420379
  C   -1.53079192248064     -0.28910656416524     -0.67897431176948
  H   -1.47078420508990     -1.30301499994040     -1.08063718061466
  H   -2.52535216101528     -0.13506235706238     -0.25850166392167
  H   -1.36784700906400      0.43299997490482     -1.48006377733731
  C   1.89360132329963     -0.35836276771495      1.04029393901659
  N   2.65852144098738     -0.28857161688034      1.92806570401075
  C   1.31571569862290      0.40473571638265     -1.18025024038791
  N   1.59302784901307      1.09265558219142     -2.09050215081467
