14
Coordinates from ORCA-job run
  C   -0.48286145678880      0.01718926154211      0.56032237227788
  C   1.05211846612469     -0.00661006602723      0.31246150915969
  F   -0.70339427218154     -0.84472652837553      1.61979537938306
  H   1.53790597963997      0.29566142837732      1.24824010762399
  C   -0.86007528950029      1.37570790779815      0.98504043933542
  N   -1.16131071508650      2.46159331518525      1.31605318339925
  C   -1.29304319010842     -0.44039411113516     -0.63279303226025
  H   -1.00045544432943     -1.45720043137620     -0.90040224377229
  H   -1.13856418683034      0.22314492739987     -1.48524652694068
  H   -2.35036028950185     -0.43506753984605     -0.36546076480429
  C   1.41745364413860      0.93679496541523     -0.74633338392092
  N   1.68216533311644      1.70150272455066     -1.59714912455455
  C   1.48517907319369     -1.36628434679054     -0.02285717492292
  N   1.81524234811379     -2.46031150671789     -0.29167074000339
