14
Coordinates from ORCA-job run
  C   -0.50268237909675      0.00956991640873      0.54302874411674
  C   1.04007233478300     -0.01835483925719      0.35061794482644
  F   -0.76580420575435     -0.87006491445550      1.57789953595642
  H   1.49305700207369      0.26125416474457      1.30962929010098
  C   -0.88919670858611      1.36216944966049      0.97790508896848
  N   -1.19935842157762      2.44348053360626      1.31583805358338
  C   -1.27109831568100     -0.42211008555070     -0.68686791466174
  H   -0.97709534401284     -1.43736494527589     -0.95908455478244
  H   -2.33778038601440     -0.41134528858163     -0.45968352941473
  H   -1.07863669940664      0.25310554117957     -1.52234906836436
  C   1.44899082038049      0.94448395096818     -0.67416029575561
  N   1.74880763475663      1.72332138755070     -1.50013828280126
  C   1.47794157291500     -1.37333185926361      0.00280330605222
  N   1.81178309522091     -2.46381301173396     -0.27543831782452
