14
Coordinates from ORCA-job run
  C   -0.45556128125815      0.04563588860218      0.39894286771910
  C   0.95841397016905      0.13633489650886     -0.23676332035863
  F   -0.36923442873452     -0.82820517045264      1.46374469105757
  H   0.92172491880861      0.87438666990205     -1.04816725302830
  C   -0.81364143597722      1.37909488731147      0.91225927620238
  N   -1.11041593745334      2.45241703774520      1.28554134444697
  C   -1.49806962792642     -0.46400769411795     -0.57552552441116
  H   -2.46431127736630     -0.50381821758311     -0.07146077954559
  H   -1.22883804047934     -1.46919041297726     -0.90303317001705
  H   -1.57804400643465      0.19586512885926     -1.44160118457471
  C   1.34308323589379     -1.16057864622669     -0.80237071404190
  N   1.62300998469078     -2.19684183089504     -1.27739970898110
  C   1.94402830267260      0.58187277038400      0.75336829165815
  N   2.72685562339511      0.95703469293968      1.54346518387426
