14
Coordinates from ORCA-job run
  C   -0.47631240233555     -0.15180003207316      0.44533913838147
  C   0.89841968826592     -0.48851186295390     -0.19077027484909
  F   -0.71923065265515     -1.16025811446271      1.36115944420033
  H   0.79008355482057     -1.47848562171989     -0.65159584936401
  C   -0.39342022733246      1.12658943087999      1.16878146270699
  N   -0.34458645597223      2.15978098922282      1.72522498961023
  C   -1.59163584789803     -0.13832433544006     -0.57959880119540
  H   -1.44911829628973      0.66293768209378     -1.30577647833280
  H   -2.54112692241686      0.01363249573868     -0.06488155297679
  H   -1.62002982624623     -1.10070879285071     -1.09521043490201
  C   1.94572211451488     -0.56461243040679      0.83184499779689
  N   2.77960973577332     -0.63412915006357      1.65522355662409
  C   1.24092015169886      0.48611034634407     -1.22850470374097
  N   1.48070538607271      1.26877939569144     -2.07023549395892
