14
Coordinates from ORCA-job run
  C   -0.49406985785896      0.03647020530752      0.54871546130735
  C   1.04556616741227      0.00047936833328      0.33368151646425
  F   -0.73961161751535     -0.79162706788525      1.62954742000917
  H   1.51286866154198      0.33102468853127      1.26932060199661
  C   -0.87520143427691      1.40848615919110      0.92357812990426
  N   -1.18067689166856      2.50395023390501      1.21683263766112
  C   -1.28095719599108     -0.45582485882521     -0.64624583828108
  H   -2.34367298089800     -0.43805087506118     -0.40175714131813
  H   -1.10538520518449      0.17913928244296     -1.51615008365503
  H   -0.98726951265474     -1.48186623805977     -0.87446711514991
  C   1.43595652287992      0.90845761368626     -0.74675515007929
  N   1.72050088990324      1.64418890046734     -1.61647441787882
  C   1.48094390741987     -1.37051642487108      0.05198758375111
  N   1.81200854689082     -2.47431098716223     -0.17181360473161
