14
Coordinates from ORCA-job run
  C   -0.49772382469835      0.01839978434073      0.54779928050348
  C   1.04306271765265     -0.01393566447004      0.34035916837075
  F   -0.75116403620086     -0.84434874198138      1.59915896004641
  H   1.50576545340643      0.28252304865775      1.28961779806984
  C   -0.87779590246992      1.37843474810671      0.96495449213649
  N   -1.18011874217333      2.46636662970545      1.28830883810829
  C   -1.27884836771848     -0.43178206465077     -0.66731676522924
  H   -1.09827680534048      0.23298591929901     -1.51366109013812
  H   -2.34276363844909     -0.42110840558417     -0.42778306658381
  H   -0.98511159408135     -1.44956110592512     -0.92989329441269
  C   1.44190372880078      0.93049359332226     -0.70532457367659
  N   1.73331939065843      1.69571752003017     -1.54687955108950
  C   1.47703268368118     -1.37509661202060      0.01225823180768
  N   1.80771893693238     -2.47008864882999     -0.25159842791302
