13

C	0.0	0.0	0.0
C	-0.364563	-0.225156	-1.476642
F	1.385377	0.0	0.0
H	-1.447355	-0.122583	-1.508466
H	-0.070156	-1.262053	-1.703988
C	-0.449653	1.308782	0.495909
N	-0.554163	2.404704	0.907716
C	-0.470665	-1.094037	0.859821
N	-0.559657	-2.04267	1.549125
N	0.321795	0.775138	-2.285341
H	-0.181901	0.908916	-3.150489
H	1.26504	0.483834	-2.501328
F	-2.413959	0.0	0.0
