13

C	0.0	0.0	0.0
C	-0.370808	-0.02574	-1.488903
F	1.385759	0.0	0.0
H	-1.459125	-0.00557	-1.499748
H	0.017805	-0.974702	-1.875237
C	-0.459341	1.210272	0.678684
N	-0.577302	2.268574	1.169117
C	-0.441285	-1.181467	0.728751
N	-0.653053	-2.166551	1.32207
N	0.22241	1.151833	-2.121115
H	1.139259	0.944155	-2.502074
H	-0.380345	1.476173	-2.858105
F	-2.43105	0.0	0.0
