13

C	0.0	0.0	0.0
C	-0.376291	-0.071095	-1.487085
F	1.385476	0.0	0.0
H	-1.465192	-0.024409	-1.486154
H	-0.026509	-1.053752	-1.839758
C	-0.450618	1.249059	0.63143
N	-0.558827	2.290072	1.166022
C	-0.468242	-1.174028	0.74988
N	-0.559745	-2.18064	1.350857
N	0.239852	1.054842	-2.179272
H	1.161161	0.819849	-2.520112
H	-0.337942	1.328895	-2.960176
F	-2.432727	0.0	0.0
