13

C	0.0	0.0	0.0
C	-0.375126	-0.025046	-1.489508
F	1.385488	0.0	0.0
H	-1.462723	-0.09915	-1.488341
H	-0.053485	0.946529	-1.898576
C	-0.472505	1.216012	0.671046
N	-0.56601	2.259897	1.2055
C	-0.452693	-1.207242	0.708096
N	-0.571121	-2.212978	1.304385
N	0.273528	-1.171713	-2.117149
H	-0.285226	-1.488461	-2.895872
H	1.194873	-0.932643	-2.453305
F	-2.429969	0.0	0.0
