13

C	0.0	0.0	0.0
C	-0.360917	0.095217	-1.490273
F	1.382872	0.0	0.0
H	-1.444025	0.193665	-1.5064
H	-0.052922	-0.864744	-1.934629
C	-0.453633	1.168668	0.768148
N	-0.548493	2.143955	1.417329
C	-0.473087	-1.254579	0.602299
N	-0.567386	-2.32519	1.078136
N	0.315888	1.256298	-2.060014
H	-0.135243	1.510028	-2.92718
H	1.284115	1.041403	-2.258649
F	-2.406312	0.0	0.0
