13

C	0.0	0.0	0.0
C	-0.366241	-0.018317	-1.491496
F	1.385271	0.0	0.0
H	0.023043	0.927762	-1.905583
H	-1.455694	-0.035767	-1.500163
C	-0.419282	1.252427	0.658933
N	-0.696969	2.219527	1.269957
C	-0.471343	-1.195158	0.727615
N	-0.646813	-2.247685	1.219652
N	0.225783	-1.202567	-2.100608
H	1.148411	-1.014068	-2.478062
H	-0.369242	-1.543546	-2.844984
F	-2.429751	0.0	0.0
