13

C	0.0	0.0	0.0
C	-0.367711	-0.147737	-1.485012
F	1.380769	0.0	0.0
H	-1.441366	-0.319285	-1.496994
H	0.193482	-1.022752	-1.831152
C	-0.477007	1.253265	0.595246
N	-0.607106	2.273147	1.163926
C	-0.420026	-1.167782	0.79579
N	-0.719261	-2.087759	1.461829
N	0.066256	1.053412	-2.194951
H	-0.737856	1.533322	-2.571626
H	0.70558	0.83356	-2.94308
F	-2.431538	0.0	0.0
