18

C	-0.181892	0.098686	-1.510653
C	0.0	0.0	0.0
Br	-0.855654	-1.880758	-2.317971
H	1.090627	0.0	0.0
N	-1.42697	0.845955	-1.99255
O	-2.419851	0.785576	-1.282315
O	-1.334619	1.436995	-3.062358
N	0.939642	0.510234	-2.089769
H	1.823002	0.359529	-1.537746
H	0.950949	0.722846	-3.073326
C	-0.547014	-1.165533	0.775109
H	-0.258806	-1.048702	1.819359
H	-1.633451	-1.229898	0.69934
H	-0.103767	-2.082335	0.39164
N	-0.372109	1.303139	0.606207
O	-0.682423	1.318582	1.79914
O	-0.253102	2.315824	-0.08791
H	2.648297	0.0	0.0
