18

C	-0.17054	-0.129181	-1.505164
C	0.0	0.0	0.0
Br	-1.888842	-1.395134	-2.045448
H	1.094085	0.0	0.0
N	-0.704089	1.151688	-2.228155
O	-1.70391	1.68996	-1.782616
O	-0.072501	1.512607	-3.21774
N	0.961706	-0.626773	-2.023178
H	1.817286	-0.479768	-1.40094
H	1.082443	-0.518401	-3.017673
C	-0.497049	-1.134178	0.853556
H	-0.06197	-1.035969	1.851787
H	-0.155186	-2.072158	0.413512
H	-1.583596	-1.144062	0.928201
N	-0.371721	1.319788	0.53462
O	0.21537	2.288747	0.044448
O	-1.150363	1.380808	1.490777
H	2.580347	0.0	0.0
