18

C	-0.496353	0.055877	-1.435052
C	0.0	0.0	0.0
Br	-0.603229	-1.763287	-2.270022
H	1.091184	0.0	0.0
N	-2.029041	0.445702	-1.473271
O	-2.405616	1.085921	-2.449051
O	-2.743032	0.051984	-0.564091
N	0.264545	0.862485	-2.2712
H	0.662324	1.636612	-1.754025
H	-0.28095	1.181817	-3.061041
C	-0.298146	-1.207589	0.866665
H	0.32325	-1.119401	1.758415
H	0.00481	-2.110847	0.342681
H	-1.349187	-1.270899	1.150123
N	-0.391424	1.219086	0.673393
O	-0.310983	1.251902	1.912216
O	-0.65935	2.230095	-0.017859
H	2.456301	0.0	0.0
