18

C	-0.572561	0.073972	-1.39352
C	0.0	0.0	0.0
Br	0.585997	1.277272	-2.587616
H	1.095648	0.0	0.0
N	-0.383241	-1.263245	-2.115184
O	0.627377	-1.907433	-1.870131
O	-1.247785	-1.571189	-2.933293
N	-1.930613	0.405304	-1.456618
H	-2.25446	0.428294	-2.415155
H	-2.032113	1.311921	-1.008978
C	-0.345727	-1.295531	0.724881
H	-0.418886	-1.077381	1.788509
H	-1.291938	-1.720824	0.376442
H	0.465645	-2.010632	0.574745
N	-0.337369	1.156458	0.771949
O	-0.031703	1.129876	1.983875
O	-0.723747	2.212034	0.198467
H	2.329952	0.0	0.0
