17

C	0.0	0.0	0.0
C	-0.27207	-0.100815	-1.537929
Cl	1.81286	0.0	0.0
H	0.340032	0.710436	-1.93286
N	-0.508937	1.162082	0.549889
H	-1.563885	0.944968	0.454035
H	-0.236723	1.202226	1.524019
N	-0.39377	-1.272764	0.820713
O	-0.395975	-1.105937	2.034345
O	-0.632475	-2.333444	0.257662
N	-1.660265	0.333137	-2.063159
O	-1.86307	1.539526	-2.110284
O	-2.34343	-0.525902	-2.605566
N	0.139625	-1.331649	-2.122443
H	0.078316	-1.243159	-3.128005
H	-0.493641	-2.060657	-1.826554
F	-2.603884	0.0	0.0
