17

C	0.0	0.0	0.0
C	-0.342942	-0.014981	-1.555762
Cl	1.794067	0.0	0.0
H	0.487308	-0.526805	-2.036363
N	-0.628645	0.979071	0.729219
H	-0.432389	0.85402	1.715636
H	-1.664161	0.79464	0.537824
N	-0.304965	-1.457493	0.525365
O	-0.622272	-1.550671	1.703819
O	-0.155124	-2.39729	-0.249659
N	-0.198923	1.430007	-2.001463
O	0.898267	1.776802	-2.446395
O	-1.185252	2.150141	-1.911285
N	-1.570897	-0.512285	-2.048524
H	-2.323492	-0.272734	-1.357357
H	-1.486268	-1.51893	-2.086892
F	-2.923476	0.0	0.0
