17

C	0.0	0.0	0.0
C	-0.603475	-0.357509	-1.418283
Cl	1.788341	0.0	0.0
H	-1.24646	-1.217567	-1.27647
N	-0.549834	1.180616	0.479599
H	-0.247462	1.321374	1.436482
H	-1.582538	0.957029	0.44453
N	-0.292278	-1.21038	0.966274
O	-0.361729	-2.335479	0.494093
O	-0.369417	-0.927717	2.15638
N	0.494444	-0.805119	-2.351765
O	0.705554	-2.014088	-2.444437
O	1.105201	0.065102	-2.96318
N	-1.350394	0.669725	-2.057847
H	-2.212401	0.663598	-1.493335
H	-0.881159	1.557779	-1.927482
F	-2.807447	0.0	0.0
