17

C	0.0	0.0	0.0
C	-0.341116	-0.289457	-1.528687
Cl	1.797575	0.0	0.0
H	0.490721	-0.872767	-1.913799
N	-0.625895	1.09438	0.542359
H	-0.42862	1.150907	1.534761
H	-1.662023	0.8794	0.386697
N	-0.30237	-1.33879	0.777395
O	-0.164364	-2.401189	0.179048
O	-0.607994	-1.220331	1.956187
N	-0.202534	1.055283	-2.222426
O	-1.191422	1.774414	-2.263023
O	0.891306	1.319414	-2.72718
N	-1.566939	-0.867063	-1.932792
H	-1.482166	-1.865908	-1.799289
H	-2.320301	-0.515295	-1.294504
F	-2.912789	0.0	0.0
