14

C	0.0	0.0	0.0
C	-0.342961	0.083637	-1.515181
Br	1.934746	0.0	0.0
H	0.45387	0.642195	-2.009571
H	-1.279772	0.629646	-1.618413
N	-0.422889	1.255105	0.694437
O	-0.417204	2.282994	0.007291
O	-0.492442	1.226211	1.921196
C	-0.581631	-1.143667	0.684559
N	-0.741255	-2.16627	1.259308
N	-0.37193	-1.275357	-2.04048
H	-0.450236	-1.230755	-3.049717
H	-1.218704	-1.712255	-1.685683
H	-2.104572	0.0	0.0
