14

C	0.0	0.0	0.0
C	-0.215268	-0.320364	-1.511991
Br	1.943308	0.0	0.0
H	0.259022	-1.292736	-1.674605
H	0.385678	0.439308	-2.017744
N	-0.554781	1.318116	0.361163
O	-0.588627	2.170016	-0.560317
O	-0.583612	1.608876	1.570915
C	-0.435636	-1.007688	0.946596
N	-0.594875	-1.903352	1.698762
N	-1.577178	-0.388259	-2.04644
H	-1.991836	0.525885	-1.90205
H	-1.470427	-0.508924	-3.053825
H	-1.857124	0.0	0.0
