16

C	0.0	0.0	0.0
C	-0.357329	0.166576	-1.519943
Cl	1.787548	0.0	0.0
H	-1.384092	0.536971	-1.530005
C	-0.440114	1.142242	0.822284
N	-0.524758	2.034999	1.588303
C	-0.67782	-1.200075	0.511591
N	-0.64049	-2.300926	0.964101
C	-0.244597	-1.132688	-2.280235
H	-0.380777	-0.953325	-3.346401
H	-1.032335	-1.793375	-1.921241
H	0.724115	-1.610455	-2.128292
N	0.462778	1.254563	-2.139481
O	0.41704	2.356693	-1.593348
O	1.077966	1.016699	-3.181583
H	-2.177668	0.0	0.0
