16

C	0.0	0.0	0.0
C	-0.469794	0.039001	-1.471695
Cl	1.790083	0.0	0.0
H	-1.568368	0.241749	-1.273553
C	-0.485652	1.122989	0.824505
N	-0.567077	2.013883	1.593229
C	-0.464506	-1.243124	0.632096
N	-0.536932	-2.28743	1.176492
C	-0.302247	-1.273348	-2.196453
H	-0.974435	-2.003178	-1.740877
H	-0.57501	-1.146649	-3.242311
H	0.724387	-1.646601	-2.143982
N	0.109066	1.178016	-2.198246
O	0.230157	1.085927	-3.426862
O	0.339153	2.209939	-1.559928
H	-2.419016	0.0	0.0
