16

C	0.0	0.0	0.0
C	-0.212644	-0.03167	-1.576932
Cl	1.78955	0.0	0.0
H	0.382392	0.803336	-1.949254
C	-0.517725	1.286973	0.477942
N	-0.631758	2.37428	0.930091
C	-0.704832	-1.063103	0.725592
N	-0.735736	-2.008776	1.450548
C	-1.576345	-0.009925	-2.245288
H	-2.175983	-0.869288	-1.952391
H	-1.399202	-0.027399	-3.331485
H	-2.11681	0.894316	-1.98225
N	0.479807	-1.239885	-2.151389
O	1.28143	-1.043988	-3.066672
O	0.142027	-2.342393	-1.727692
H	-2.01271	0.0	0.0
