16

C	0.0	0.0	0.0
C	-0.335333	0.157517	-1.528967
Cl	1.791776	0.0	0.0
H	-1.380677	0.466749	-1.559458
C	-0.421777	1.158869	0.806241
N	-0.499726	2.063933	1.557996
C	-0.761292	-1.167607	0.495652
N	-0.748133	-2.270655	0.95336
C	-0.118307	-1.121563	-2.301635
H	-0.340392	-0.959942	-3.357237
H	0.907469	-1.47737	-2.215396
H	-0.795369	-1.878821	-1.905589
N	0.428331	1.296741	-2.121023
O	1.184148	1.07635	-3.07026
O	0.212387	2.41106	-1.640848
H	-2.147217	0.0	0.0
