16

C	0.0	0.0	0.0
C	-0.374948	0.008642	-1.536028
Cl	1.786918	0.0	0.0
H	-1.427503	-0.252325	-1.564761
C	-0.69611	1.081748	0.709847
N	-0.691125	2.058101	1.391195
C	-0.474437	-1.293003	0.519832
N	-0.523608	-2.407327	0.907278
C	0.44679	-0.901535	-2.428779
H	0.504017	-1.895629	-1.983194
H	1.456363	-0.524931	-2.582112
H	-0.058832	-0.979278	-3.396255
N	-0.33188	1.392505	-2.096149
O	-1.271407	1.70447	-2.830791
O	0.635656	2.109435	-1.84865
H	-2.169564	0.0	0.0
