15

C	-0.463695	0.006473	-1.456833
C	0.0	0.0	0.0
Br	-2.618735	-0.001814	-1.354986
H	1.095986	0.0	0.0
N	0.012129	1.118682	-2.102668
H	-0.041572	1.937145	-1.508639
H	-0.297208	1.250377	-3.052438
C	-0.217873	-1.234453	-2.178088
N	-0.023109	-2.23505	-2.763643
C	-0.480333	-1.178402	0.724346
N	-0.848885	-2.089795	1.368246
N	-0.367163	1.273524	0.606597
H	-1.279738	1.22436	1.042603
H	0.335295	1.506545	1.298609
Cl	3.221151	0.0	0.0
