15

C	-0.279277	0.082836	-1.504774
C	0.0	0.0	0.0
Br	-2.191599	0.435148	-1.880863
H	1.106133	0.0	0.0
N	0.494912	1.191374	-2.003198
H	0.414266	1.259067	-3.011258
H	1.473094	1.032971	-1.742107
C	0.007047	-1.199158	-2.166368
N	0.283868	-2.201719	-2.715547
C	-0.541226	-1.216224	0.597201
N	-0.961133	-2.192074	1.098172
N	-0.523677	1.187635	0.684108
H	-0.258083	1.97658	0.099768
H	0.016215	1.279866	1.539846
Cl	3.26032	0.0	0.0
