15

C	-0.30785	-0.022266	-1.513715
C	0.0	0.0	0.0
Br	0.042467	1.881043	-2.218581
H	1.102559	0.0	0.0
N	0.523988	-0.98316	-2.099331
H	1.490501	-0.861367	-1.79184
H	0.455661	-1.017133	-3.106354
C	-1.720028	-0.234273	-1.830671
N	-2.849419	-0.424087	-2.098188
C	-0.465248	-1.266402	0.5688
N	-0.83262	-2.26091	1.074924
N	-0.633776	1.111972	0.698169
H	-0.662329	0.889649	1.686475
H	-0.026915	1.917938	0.595282
Cl	3.292211	0.0	0.0
