15

C	-0.545252	0.034273	-1.437961
C	0.0	0.0	0.0
Br	-0.026058	-1.593577	-2.39302
H	1.096701	0.0	0.0
N	-1.98512	0.11266	-1.395633
H	-2.198448	0.913738	-0.805314
H	-2.353047	0.277089	-2.325617
C	0.060503	1.164863	-2.162867
N	0.416221	2.115708	-2.756916
C	-0.503961	-1.177048	0.704279
N	-0.931902	-2.061954	1.347562
N	-0.466045	1.238607	0.657628
H	0.353554	1.81812	0.812074
H	-0.863938	1.027756	1.56357
Cl	3.252312	0.0	0.0
