15

C	-0.451157	-0.012132	-1.458836
C	0.0	0.0	0.0
Br	-2.616632	-0.034618	-1.366729
H	1.096077	0.0	0.0
N	0.015046	1.097005	-2.109675
H	-0.268448	1.212007	-3.069841
H	-0.037891	1.922485	-1.525757
C	-0.198904	-1.255652	-2.168958
N	0.012007	-2.243422	-2.769747
C	-0.476485	-1.173434	0.73657
N	-0.859383	-2.070968	1.391322
N	-0.377467	1.277984	0.58908
H	0.309032	1.51574	1.297736
H	-1.301628	1.229399	1.003976
Cl	3.22141	0.0	0.0
