19

C	0.0	0.0	0.0
C	-0.353269	-0.078589	-1.490587
F	1.440566	0.0	0.0
H	0.052446	-1.040558	-1.846112
N	-0.474516	1.211227	0.530078
H	-0.180239	1.984038	-0.051466
H	-0.221635	1.343566	1.495351
C	-0.460887	-1.180275	0.817152
H	-0.116916	-2.114795	0.36911
H	-1.550607	-1.171997	0.882355
H	-0.041202	-1.108781	1.825569
N	0.31077	1.061844	-2.143438
H	1.306055	0.882239	-2.201686
H	-0.053239	1.152318	-3.084758
C	-1.845072	-0.007722	-1.752943
H	-2.432916	-0.757393	-1.224092
H	-2.256264	0.940756	-1.403453
H	-2.039639	-0.114946	-2.827888
H	-4.748932	0.0	0.0
