19

C	0.0	0.0	0.0
C	-0.415977	-0.057156	-1.475637
F	1.410324	0.0	0.0
H	-1.503445	-0.21245	-1.432316
N	-0.488213	1.145342	0.711529
H	-0.299235	1.985569	0.175
H	-1.512883	1.016507	0.714997
C	-0.444411	-1.24251	0.739324
H	-1.539667	-1.260466	0.718914
H	-0.090417	-1.175203	1.770732
H	-0.040878	-2.129201	0.252117
N	0.216229	-1.222343	-2.109861
H	1.214877	-1.044683	-2.168913
H	-0.136961	-1.305994	-3.057366
C	-0.118652	1.250356	-2.213152
H	-0.308518	1.118575	-3.283251
H	0.930528	1.539098	-2.087982
H	-0.758398	2.06698	-1.872328
H	-3.235696	0.0	0.0
