19

C	0.0	0.0	0.0
C	-0.4461	0.02423	-1.468973
F	1.412406	0.0	0.0
H	-1.542939	-0.00626	-1.423114
N	-0.49405	1.177914	0.654469
H	-1.515371	1.134354	0.496465
H	-0.374758	1.061578	1.656951
C	-0.41071	-1.282018	0.706045
H	-0.071795	-1.240133	1.746567
H	0.03235	-2.165192	0.239568
H	-1.505415	-1.327451	0.679364
N	0.018905	-1.138509	-2.236242
H	-0.517095	-1.948155	-1.951742
H	0.985825	-1.31733	-1.985616
C	0.015525	1.29269	-2.171611
H	1.108449	1.343329	-2.186709
H	-0.358748	2.179534	-1.661476
H	-0.345402	1.276047	-3.202267
H	-3.235204	0.0	0.0
