19

C	0.0	0.0	0.0
C	-0.468609	-0.085462	-1.446098
F	1.433673	0.0	0.0
H	-1.557424	-0.221742	-1.356127
N	-0.414755	1.240769	0.574311
H	0.220672	1.975904	0.292487
H	-0.429661	1.180483	1.58383
C	-0.511922	-1.155539	0.816894
H	-0.09608	-1.107654	1.829726
H	-0.22432	-2.094786	0.347156
H	-1.607329	-1.061714	0.841368
N	0.126358	-1.27814	-2.062658
H	1.111265	-1.092536	-2.229049
H	-0.314437	-1.427946	-2.964075
C	-0.198201	1.199945	-2.226331
H	-0.486606	1.061582	-3.273034
H	0.867475	1.458713	-2.200633
H	-0.788235	2.024768	-1.822874
H	-3.66669	0.0	0.0
