19

C	0.0	0.0	0.0
C	-0.373851	0.002953	-1.482797
F	1.440217	0.0	0.0
H	-0.002	-0.953043	-1.888925
N	-0.462034	1.186135	0.610581
H	-0.176074	1.9782	0.048155
H	-0.121272	1.271469	1.558574
C	-0.450046	-1.225499	0.755607
H	-1.538902	-1.23238	0.827157
H	-0.025893	-1.204868	1.763972
H	-0.100084	-2.131558	0.255514
N	0.310191	1.153197	-2.096214
H	1.299504	0.951662	-2.173539
H	-0.063231	1.292637	-3.027109
C	-1.868389	0.12618	-1.724697
H	-2.490076	-0.579458	-1.170271
H	-2.07694	-0.002126	-2.794238
H	-2.229952	1.104009	-1.406954
H	-4.789028	0.0	0.0
