19

C	0.0	0.0	0.0
C	-0.412047	0.08041	-1.478257
F	1.431259	0.0	0.0
H	0.376585	0.704217	-1.92758
N	-0.441768	1.165019	0.687874
H	-0.544349	1.954839	0.063209
H	0.168713	1.36337	1.470294
C	-0.456478	-1.228957	0.750345
H	-0.013321	-2.141384	0.346857
H	-1.549454	-1.263803	0.69832
H	-0.162584	-1.130884	1.799814
N	-1.678267	0.787105	-1.612064
H	-2.418376	0.443362	-0.953859
H	-2.042811	0.639551	-2.54852
C	-0.34391	-1.288096	-2.160524
H	0.626307	-1.769897	-1.992023
H	-1.144726	-1.935821	-1.800013
H	-0.473206	-1.161321	-3.239459
H	-3.827257	0.0	0.0
