19

C	0.0	0.0	0.0
C	-0.318833	-0.195071	-1.51134
F	1.397645	0.0	0.0
H	0.379573	0.509547	-1.980406
N	-0.474773	1.298845	0.405042
H	-1.494671	1.245944	0.310773
H	-0.294561	1.402857	1.400452
C	-0.459962	-1.120083	0.911977
H	-0.144535	-0.895377	1.937652
H	-0.032778	-2.083257	0.624799
H	-1.55371	-1.157768	0.875749
N	-1.654554	0.132382	-1.979049
H	-2.380035	-0.139462	-1.288609
H	-1.739389	1.142348	-2.018345
C	0.055721	-1.599926	-1.976553
H	1.045864	-1.895837	-1.618177
H	-0.68472	-2.326535	-1.633
H	0.049996	-1.616156	-3.068744
H	-3.50459	0.0	0.0
