19

C	0.0	0.0	0.0
C	-0.223301	-0.001904	-1.549425
F	1.401268	0.0	0.0
H	0.411668	-0.834772	-1.880659
N	-0.525012	1.199587	0.587046
H	-1.548133	1.109522	0.458304
H	-0.37604	1.15134	1.592004
C	-0.459289	-1.272889	0.675064
H	-0.093297	-1.290044	1.708459
H	-1.555171	-1.268886	0.674746
H	-0.076017	-2.156654	0.15509
N	0.339861	1.210858	-2.160333
H	-0.217487	1.986271	-1.813285
H	1.259788	1.346277	-1.75314
C	-1.611903	-0.223895	-2.113112
H	-2.084957	-1.122715	-1.721087
H	-2.300248	0.575719	-1.845381
H	-1.5105	-0.287954	-3.20228
H	-3.468737	0.0	0.0
