19

C	0.0	0.0	0.0
C	-0.350209	-0.018403	-1.497723
F	1.433307	0.0	0.0
H	0.316284	-0.774142	-1.934613
N	-0.473071	1.179391	0.627955
H	-0.425862	1.116639	1.634677
H	0.037626	1.989438	0.308406
C	-0.474362	-1.223384	0.744121
H	-0.026799	-1.239951	1.743319
H	-1.564102	-1.195558	0.82582
H	-0.167509	-2.12903	0.217239
N	-0.030871	1.248754	-2.165046
H	0.886286	1.564454	-1.868453
H	-0.718067	1.93787	-1.877143
C	-1.797813	-0.392078	-1.766832
H	-2.531368	0.100879	-1.112208
H	-2.031106	-0.155844	-2.809218
H	-1.96079	-1.463015	-1.624015
H	-4.467227	0.0	0.0
