19

C	0.0	0.0	0.0
C	-0.386526	0.012119	-1.495111
F	1.423117	0.0	0.0
H	0.119269	0.910603	-1.887902
N	-0.448337	1.213258	0.591607
H	-0.325771	1.208544	1.59497
H	0.044027	1.999464	0.187999
C	-0.51983	-1.178292	0.779636
H	-1.613589	-1.146644	0.759274
H	-0.156319	-2.116674	0.359165
H	-0.17627	-1.116212	1.817175
N	-1.800291	0.130608	-1.776794
H	-2.273421	0.738324	-1.105686
H	-2.281817	-0.744302	-1.591134
C	0.178444	-1.188291	-2.243101
H	-0.352216	-2.098912	-1.954304
H	0.018197	-1.045873	-3.313896
H	1.242798	-1.323058	-2.049466
H	-4.109561	0.0	0.0
