14

C	0.0	0.0	0.0
C	-0.557868	-0.052621	-1.412453
Cl	1.785538	0.0	0.0
H	-1.654338	-0.096658	-1.27177
H	-0.339465	-0.875196	0.550871
C	-0.425373	1.224528	0.673172
N	-0.642944	2.229306	1.239433
N	-0.167974	-1.411036	-2.005458
O	-0.232843	-2.393217	-1.273408
O	0.149462	-1.438418	-3.194458
N	-0.169488	1.045504	-2.210752
H	-0.776106	1.130733	-3.01209
H	0.790098	0.965393	-2.520446
Cl	-3.438269	0.0	0.0
