14

C	0.0	0.0	0.0
C	-0.568684	0.198162	-1.392852
Cl	1.779844	0.0	0.0
H	-1.66539	0.1304	-1.251392
H	-0.348762	-0.953181	0.39268
C	-0.426824	1.086133	0.882276
N	-0.681805	1.951118	1.633574
N	-0.183037	-1.035653	-2.214883
O	-0.290943	-2.132536	-1.674913
O	0.174431	-0.851401	-3.377846
N	-0.184048	1.419157	-1.988985
H	-0.80929	1.656219	-2.744948
H	0.764075	1.384327	-2.337657
Cl	-3.45518	0.0	0.0
