14

C	0.0	0.0	0.0
C	-0.559608	0.07481	-1.409852
Cl	1.77456	0.0	0.0
H	-1.655511	0.021343	-1.273708
H	-0.3452	-0.9175	0.472887
C	-0.417183	1.165128	0.782827
N	-0.586686	2.113085	1.453857
N	-0.171101	-1.227964	-2.116868
O	-0.282949	-2.27307	-1.483159
O	0.193379	-1.149408	-3.289999
N	-0.169102	1.236417	-2.109946
H	0.784203	1.175766	-2.439068
H	-0.782343	1.399954	-2.893434
Cl	-3.433064	0.0	0.0
