14

C	0.0	0.0	0.0
C	-0.557844	-0.018313	-1.436337
Cl	1.781268	0.0	0.0
H	-1.606581	-0.319028	-1.318845
H	-0.336663	-0.894468	0.522571
C	-0.428898	1.205412	0.704561
N	-0.611956	2.218663	1.269488
N	0.143533	-1.158058	-2.139815
O	0.796012	-0.930208	-3.151861
O	0.013702	-2.260534	-1.609428
N	-0.479281	1.179145	-2.18623
H	0.380798	1.687807	-2.030063
H	-1.27931	1.753246	-1.954322
Cl	-3.373052	0.0	0.0
