14

C	0.0	0.0	0.0
C	-0.291095	0.252451	-1.585474
Cl	1.779596	0.0	0.0
H	0.678575	0.058473	-2.038087
H	-0.390077	-0.982167	0.274591
C	-0.435044	0.982991	0.980439
N	-0.510672	1.831501	1.7896
N	-0.437423	1.738602	-1.838712
O	-1.330011	2.127919	-2.580325
O	0.39825	2.459964	-1.299205
N	-1.225965	-0.477806	-2.405992
H	-1.373901	-1.386479	-1.97826
H	-2.127715	-0.02101	-2.354931
Cl	-2.939956	0.0	0.0
