14

C	0.0	0.0	0.0
C	-0.554325	-0.414079	-1.378555
Cl	1.777417	0.0	0.0
H	-1.599096	-0.685905	-1.18555
H	-0.340042	-0.715664	0.747652
C	-0.431144	1.353435	0.341512
N	-0.610903	2.485277	0.598228
N	0.164887	-1.691598	-1.748435
O	0.837394	-1.729645	-2.77213
O	0.030828	-2.617402	-0.948775
N	-0.489652	0.537628	-2.424216
H	0.361796	1.083666	-2.410808
H	-1.299503	1.140256	-2.354655
Cl	-3.357429	0.0	0.0
