14

C	0.0	0.0	0.0
C	-0.412488	-0.037107	-1.505483
Cl	1.777709	0.0	0.0
H	0.504255	0.034991	-2.095424
H	-0.346345	-0.930764	0.443331
C	-0.436053	1.116147	0.835779
N	-0.587226	1.967534	1.631295
N	-1.113575	1.248407	-1.986132
O	-1.871837	1.123892	-2.94004
O	-0.724553	2.310769	-1.514476
N	-1.078004	-1.242265	-1.828778
H	-1.974059	-1.216626	-1.331206
H	-1.270396	-1.257171	-2.823011
Cl	-3.186315	0.0	0.0
