14

C	-0.591285	-0.004569	-1.413911
C	0.0	0.0	0.0
Cl	-0.016528	-1.384813	-2.388364
H	1.093705	0.0	0.0
H	-1.677105	-0.124539	-1.326041
C	-0.340062	1.236886	-2.144305
N	-0.188907	2.206921	-2.788017
N	-0.41299	-1.224942	0.672756
H	-1.247067	-1.07152	1.22747
H	0.335003	-1.526767	1.285296
N	-0.417422	1.259759	0.612538
H	-1.247189	1.134887	1.179581
H	0.331395	1.600118	1.202517
Br	3.526644	0.0	0.0
