14

C	-0.506244	-0.02776	-1.446384
C	0.0	0.0	0.0
Cl	0.136486	1.337193	-2.389866
H	1.098708	0.0	0.0
H	-0.149079	-0.935977	-1.938709
C	-1.968552	-0.004617	-1.489365
N	-3.142124	0.013813	-1.522608
N	-0.513891	-1.23401	0.628955
H	-0.035463	-2.024692	0.203114
H	-0.180404	-1.214144	1.588657
N	-0.485455	1.173002	0.676698
H	-1.360116	0.96689	1.144363
H	0.201814	1.497495	1.342825
Br	3.570831	0.0	0.0
