14

C	-0.442137	-0.11732	-1.45206
C	0.0	0.0	0.0
Cl	-2.22202	0.095947	-1.637729
H	1.108122	0.0	0.0
H	0.022531	0.700602	-1.998762
C	-0.073836	-1.391455	-2.063772
N	0.199977	-2.422075	-2.555464
N	-0.549813	-1.094068	0.807288
H	-0.425885	-1.97406	0.320263
H	0.047791	-1.162605	1.624993
N	-0.410098	1.294452	0.504915
H	-1.274089	1.175723	1.021541
H	0.30686	1.639573	1.127855
Br	3.535229	0.0	0.0
