14

C	-0.423568	0.080571	-1.463554
C	0.0	0.0	0.0
Cl	-2.202331	0.336421	-1.646344
H	1.101608	0.0	0.0
H	0.056433	0.939211	-1.940389
C	-0.065888	-1.130507	-2.193663
N	0.196314	-2.107249	-2.789013
N	-0.484423	-1.21516	0.604695
H	-1.347494	-1.01857	1.096564
H	0.206519	-1.572761	1.250217
N	-0.493605	1.189356	0.715222
H	-0.23941	2.019569	0.185315
H	0.060913	1.23974	1.565437
Br	3.526514	0.0	0.0
