14

C	-0.528815	-0.089626	-1.440383
C	0.0	0.0	0.0
Cl	0.050573	-1.556921	-2.292321
H	1.094877	0.0	0.0
H	-1.617804	-0.186186	-1.377779
C	-0.20377	1.097848	-2.226188
N	-0.019039	2.084334	-2.835565
N	-0.581183	-1.124398	0.734117
H	-0.049748	-1.95888	0.506694
H	-0.39461	-0.920495	1.711152
N	-0.438918	1.220973	0.641383
H	-1.398611	1.447256	0.408772
H	0.167744	1.986233	0.377956
Br	3.583053	0.0	0.0
