14

C	-0.431157	-0.002062	-1.465553
C	0.0	0.0	0.0
Cl	-2.192689	0.318921	-1.659114
H	1.102515	0.0	0.0
H	0.088981	0.819423	-1.957667
C	-0.125068	-1.259346	-2.141887
N	0.120617	-2.273922	-2.679729
N	-0.569015	-1.15652	0.699561
H	-0.209731	-2.005802	0.270127
H	-0.168496	-1.142045	1.633075
N	-0.40919	1.250645	0.598555
H	0.261579	1.504315	1.313023
H	-1.326906	1.136769	1.01439
Br	3.54179	0.0	0.0
