14

C	-0.506609	-0.055113	-1.445197
C	0.0	0.0	0.0
Cl	0.138071	1.290463	-2.415474
H	1.098688	0.0	0.0
H	-0.150651	-0.97327	-1.919798
C	-1.969032	-0.030846	-1.488589
N	-3.142138	-0.008018	-1.527439
N	-0.514733	-1.221314	0.652401
H	-0.035548	-2.020497	0.243637
H	-0.183643	-1.182847	1.612468
N	-0.48431	1.186262	0.654182
H	-1.361348	0.991244	1.122651
H	0.20208	1.520401	1.316283
Br	3.571445	0.0	0.0
