14

C	-0.593516	-0.018244	-1.41367
C	0.0	0.0	0.0
Cl	-0.033733	-1.417164	-2.372293
H	1.093733	0.0	0.0
H	-1.680379	-0.125112	-1.323283
C	-0.322549	1.211797	-2.156787
N	-0.119165	2.180264	-2.788578
N	-0.417395	-1.214665	0.686729
H	-1.250252	-1.053386	1.240106
H	0.328473	-1.510831	1.303503
N	-0.418269	1.268246	0.599571
H	-1.216074	1.139201	1.209531
H	0.349012	1.641424	1.143459
Br	3.525454	0.0	0.0
