14

C	-0.42495	0.017198	-1.481503
C	0.0	0.0	0.0
Cl	0.015183	1.548269	-2.30323
H	1.101678	0.0	0.0
H	0.125468	-0.770052	-2.00099
C	-1.861551	-0.210759	-1.630713
N	-3.007234	-0.452967	-1.723428
N	-0.413147	-1.219607	0.658368
H	0.209798	-1.978716	0.417484
H	-1.37502	-1.462452	0.452404
N	-0.630993	1.114687	0.690782
H	-0.157105	1.971003	0.424905
H	-0.440156	0.964427	1.674891
Br	3.585162	0.0	0.0
