14

C	-0.358143	0.038315	-1.501181
C	0.0	0.0	0.0
Cl	-2.084454	0.468863	-1.799391
H	1.104724	0.0	0.0
H	0.239611	0.818863	-1.97577
C	-0.094208	-1.235365	-2.160496
N	0.115011	-2.270926	-2.672398
N	-0.623607	-1.162612	0.615298
H	-0.093112	-1.98973	0.357107
H	-0.502073	-1.035834	1.613666
N	-0.40382	1.177205	0.731828
H	-1.340742	1.466294	0.477872
H	0.253089	1.927362	0.559621
Br	3.545982	0.0	0.0
