14

C	-0.513314	-0.024266	-1.44392
C	0.0	0.0	0.0
Cl	-0.025229	1.402274	-2.388818
H	1.094	0.0	0.0
H	-0.087722	-0.899532	-1.932891
C	-1.972699	-0.132196	-1.441934
N	-3.142404	-0.213578	-1.37929
N	-0.391522	-1.295475	0.562148
H	0.302251	-1.571597	1.246511
H	-1.294981	-1.232255	1.018549
N	-0.450553	1.197746	0.678974
H	-1.361951	1.061673	1.101507
H	0.217438	1.443653	1.397825
Br	3.537751	0.0	0.0
