14

C	-0.434869	0.022417	-1.458229
C	0.0	0.0	0.0
Cl	-2.238333	0.168409	-1.581887
H	1.096055	0.0	0.0
H	-0.030245	0.916927	-1.931111
C	-0.030461	-1.167499	-2.199697
N	0.276133	-2.09196	-2.855189
N	-0.440692	-1.23645	0.620755
H	-1.39963	-1.161273	0.940221
H	0.157045	-1.443205	1.4105
N	-0.394609	1.267359	0.605208
H	0.213759	1.444092	1.397272
H	-1.354691	1.221196	0.933354
Br	3.532195	0.0	0.0
