14

C	-0.537351	0.011281	-1.442217
C	0.0	0.0	0.0
Cl	0.06321	-1.373969	-2.409694
H	1.100718	0.0	0.0
H	-1.621595	-0.112507	-1.378792
C	-0.230904	1.259519	-2.135471
N	0.004651	2.272692	-2.679141
N	-0.577998	-1.173038	0.656837
H	-0.329123	-1.071167	1.635238
H	-0.084898	-1.99491	0.32136
N	-0.439401	1.166388	0.731751
H	-1.415614	1.378462	0.552371
H	0.137468	1.964278	0.497145
Br	3.597551	0.0	0.0
