14

C	-0.470588	0.022231	-1.447559
C	0.0	0.0	0.0
Cl	-2.274882	0.193176	-1.522592
H	1.095393	0.0	0.0
H	-0.067302	0.909569	-1.935005
C	-0.105378	-1.176977	-2.193008
N	0.164422	-2.119136	-2.839269
N	-0.434927	-1.230384	0.63677
H	0.206863	-1.459974	1.384467
H	-1.369181	-1.13561	1.016892
N	-0.374417	1.272728	0.610723
H	0.293412	1.477734	1.343518
H	-1.300953	1.218745	1.017008
Br	3.510424	0.0	0.0
