16

C	-0.477559	-0.075396	-1.427335
C	0.0	0.0	0.0
F	-1.736453	-0.630299	-1.575024
H	1.097395	0.0	0.0
H	0.218876	-0.637728	-2.050548
N	-0.548	1.305192	-2.022399
O	-1.649412	1.824211	-2.154073
O	0.528731	1.811897	-2.313102
C	-0.38637	-1.278497	0.73483
H	0.139973	-1.283606	1.693417
H	-0.060687	-2.164529	0.180979
H	-1.467115	-1.359366	0.910065
N	-0.455904	1.222889	0.655948
H	0.328204	1.576031	1.188989
H	-1.231006	1.047546	1.285333
F	2.639361	0.0	0.0
