16

C	-0.581375	0.034677	-1.391093
C	0.0	0.0	0.0
F	0.04225	0.954352	-2.178256
H	1.095026	0.0	0.0
H	-1.652635	0.252927	-1.390147
N	-0.469019	-1.299596	-2.089767
O	-1.399167	-2.084308	-1.88343
O	0.512715	-1.526698	-2.784158
C	-0.467512	-1.19246	0.815597
H	-0.125466	-2.135829	0.385645
H	-0.011026	-1.107442	1.806096
H	-1.56045	-1.240116	0.925944
N	-0.410828	1.287594	0.604976
H	-0.947259	1.118785	1.448488
H	0.454014	1.739684	0.880843
F	2.637882	0.0	0.0
