16

C	-0.572163	0.017613	-1.392068
C	0.0	0.0	0.0
F	-0.129803	1.107185	-2.089727
H	1.100909	0.0	0.0
H	-1.666015	0.028726	-1.401788
N	-0.182176	-1.204964	-2.185648
O	-0.887462	-2.199038	-1.997686
O	0.774795	-1.141171	-2.942558
C	-0.505481	-1.176372	0.810427
H	-1.600194	-1.192795	0.889854
H	-0.165465	-2.123511	0.392296
H	-0.080239	-1.100018	1.816009
N	-0.506885	1.264632	0.598909
H	0.149739	1.978834	0.292578
H	-0.341396	1.182552	1.598164
F	2.658118	0.0	0.0
