16

C	-0.398253	-0.056413	-1.445695
C	0.0	0.0	0.0
F	-0.264471	-1.311152	-1.986004
H	1.103068	0.0	0.0
H	0.169452	0.658707	-2.037293
N	-1.850212	0.321119	-1.662478
O	-2.087214	1.370539	-2.259138
O	-2.70568	-0.437491	-1.204846
C	-0.514541	-1.144026	0.852464
H	-1.593201	-1.084453	1.038315
H	0.01778	-1.11126	1.807074
H	-0.29972	-2.107101	0.385744
N	-0.373625	1.336223	0.482919
H	-1.161131	1.285901	1.117829
H	0.423513	1.69603	0.990567
F	2.640121	0.0	0.0
