16

C	-0.44691	0.100999	-1.431264
C	0.0	0.0	0.0
F	0.023248	-0.928253	-2.193306
H	1.095914	0.0	0.0
H	-0.161099	1.055988	-1.868651
N	-1.958247	0.038104	-1.534965
O	-2.5702	1.097847	-1.389239
O	-2.483024	-1.064997	-1.684263
C	-0.482057	-1.269712	0.680939
H	-1.558242	-1.255415	0.903029
H	0.070497	-1.379074	1.61719
H	-0.274457	-2.147209	0.065193
N	-0.364475	1.240214	0.689556
H	0.432558	1.492317	1.260342
H	-1.168944	1.110247	1.287809
F	2.629831	0.0	0.0
