16

C	-0.418421	0.067622	-1.442824
C	0.0	0.0	0.0
F	0.129564	-0.932631	-2.188191
H	1.095884	0.0	0.0
H	-0.182625	1.03825	-1.876362
N	-1.923257	-0.092368	-1.573843
O	-2.374273	-1.203608	-1.845307
O	-2.604183	0.901119	-1.316363
C	-0.48051	-1.272379	0.680264
H	-0.229358	-2.152035	0.082638
H	0.036333	-1.361705	1.638961
H	-1.564859	-1.277343	0.862314
N	-0.390912	1.242832	0.661022
H	0.328421	1.451619	1.340943
H	-1.282274	1.154732	1.135276
F	2.625523	0.0	0.0
