15

C	0.075738	-0.063979	0.026399
C	-0.422885	-0.137885	-1.408338
F	1.46895	0.199605	-0.002655
H	0.170019	-0.905656	-1.915403
H	-1.468731	-0.456513	-1.382859
N	-0.572697	0.951527	0.754703
H	-1.539849	1.095159	0.442371
H	-0.551304	0.793105	1.752156
C	0.00249	-1.408355	0.667797
N	-0.068022	-2.454029	1.19877
C	-0.312261	1.203976	-2.124681
H	0.687426	1.626414	-2.006238
H	-0.511528	1.068548	-3.191176
H	-1.051467	1.901769	-1.733989
Br	-3.78012	1.192954	-0.352778
