15

C	-0.003159	-0.074073	0.022948
C	-0.572024	-0.267359	-1.37051
F	1.389419	0.162175	-0.0957
H	-1.649003	-0.428798	-1.273796
H	-0.449298	0.698392	-1.869327
N	-0.602888	1.026682	0.667872
H	-1.58782	1.138341	0.399652
H	-0.531656	0.971441	1.674645
C	-0.06357	-1.342321	0.806212
N	-0.119991	-2.322761	1.451111
C	0.109992	-1.381049	-2.153311
H	-0.048202	-2.354123	-1.68089
H	-0.30128	-1.432514	-3.164359
H	1.185089	-1.207641	-2.228176
Br	-3.885327	1.086189	-0.271325
