15

C	-0.002895	-0.070396	0.025442
C	-0.570533	-0.309203	-1.361603
F	1.38959	0.163547	-0.099322
H	-0.443637	0.638626	-1.892764
H	-1.648253	-0.463112	-1.260211
N	-0.60463	1.050499	0.633218
H	-1.589899	1.150563	0.36219
H	-0.530779	1.028347	1.641057
C	-0.062744	-1.31292	0.848339
N	-0.118534	-2.278835	1.514824
C	0.109039	-1.450421	-2.105821
H	1.184781	-1.282117	-2.184241
H	-0.05231	-2.406865	-1.601672
H	-0.299874	-1.534808	-3.115594
Br	-3.889519	1.06201	-0.304865
