15

C	0.088154	-0.056059	0.037148
C	-0.409184	-0.266524	-1.384489
F	1.481419	0.202894	-0.015154
H	0.182328	-1.080487	-1.815355
H	-1.45585	-0.578836	-1.329771
N	-0.560526	1.024822	0.664207
H	-1.527292	1.138191	0.338689
H	-0.540512	0.962412	1.672271
C	0.01332	-1.333745	0.802654
N	-0.057604	-2.330122	1.421132
C	-0.295513	1.000463	-2.225975
H	-1.034441	1.733296	-1.905157
H	0.704538	1.431167	-2.146995
H	-0.493545	0.763593	-3.274845
Br	-3.767303	1.157251	-0.465494
