14

C	-0.286459	0.023338	-1.516321
C	0.0	0.0	0.0
Br	-2.21053	-0.294013	-1.88398
H	1.103503	0.0	0.0
C	-0.020786	1.36593	-2.060095
N	0.207262	2.404563	-2.563881
N	0.483194	-1.031628	-2.096956
H	1.454027	-0.943172	-1.779427
H	0.446631	-0.991878	-3.10868
C	-0.455281	-1.246612	0.607068
N	-0.809213	-2.235228	1.133437
C	-0.53206	1.159567	0.701013
N	-0.963986	2.095377	1.264868
Br	3.295928	0.0	0.0
