14

C	-0.319309	0.085457	-1.526906
C	0.0	0.0	0.0
Br	0.120117	-1.658389	-2.314034
H	1.102633	0.0	0.0
C	-1.748954	0.316446	-1.750146
N	-2.897868	0.532437	-1.871768
N	0.465647	1.090108	-2.187644
H	0.174181	2.00942	-1.867589
H	1.443503	0.950859	-1.923667
C	-0.556028	-1.150689	0.696112
N	-1.002369	-2.066012	1.283117
C	-0.435286	1.247275	0.627087
N	-0.776486	2.27264	1.089688
Br	3.303999	0.0	0.0
