14

C	-0.265482	-0.257209	-1.498389
C	0.0	0.0	0.0
Br	-2.188861	-0.590449	-1.841765
H	1.10782	0.0	0.0
C	0.058044	0.946252	-2.279099
N	0.362761	1.845959	-2.974369
N	0.48217	-1.422776	-1.855238
H	0.453399	-1.571971	-2.856959
H	1.454277	-1.289271	-1.557649
C	-0.483613	-1.106889	0.817918
N	-0.897787	-1.973522	1.493293
C	-0.525034	1.276563	0.462579
N	-0.945342	2.307663	0.836322
Br	3.292443	0.0	0.0
