14

C	-0.417489	-0.224928	-1.465158
C	0.0	0.0	0.0
Br	-2.505945	-0.09234	-1.53634
H	1.107681	0.0	0.0
C	0.003412	0.879858	-2.321269
N	0.331499	1.742645	-3.049316
N	0.06036	-1.441058	-1.936389
H	-0.157518	-2.227991	-1.34072
H	-0.151249	-1.621151	-2.906911
C	-0.458563	-1.121532	0.813995
N	-0.812808	-2.070854	1.40845
C	-0.474269	1.273463	0.526462
N	-0.825475	2.30941	0.954682
Br	3.280948	0.0	0.0
