14

C	-0.273255	-0.048878	-1.520275
C	0.0	0.0	0.0
Br	-2.189241	-0.39751	-1.895556
H	1.100087	0.0	0.0
C	-0.008335	1.270172	-2.118218
N	0.241827	2.297764	-2.634169
N	0.512923	-1.123246	-2.042397
H	1.478226	-1.016383	-1.711385
H	0.498593	-1.124603	-3.055068
C	-0.461102	-1.217389	0.659992
N	-0.813529	-2.183405	1.227581
C	-0.537017	1.190906	0.64313
N	-0.968283	2.152325	1.163101
Br	3.297709	0.0	0.0
