16

C	0.0	0.0	0.0
C	-0.402024	0.147926	-1.476756
F	1.423949	0.0	0.0
H	-1.490173	0.243731	-1.41777
N	-0.506351	1.002932	0.865372
H	-1.53748	0.784845	0.777544
H	-0.360604	1.876536	0.364233
C	-0.379892	-1.339991	0.505719
N	-0.532327	-2.423004	0.930725
N	-0.054378	-1.00554	-2.311071
H	0.861539	-1.347361	-2.033989
H	-0.71663	-1.748368	-2.113902
N	0.200497	1.385329	-1.957679
H	-0.138806	1.527271	-2.901735
H	1.203993	1.24505	-2.019985
F	-2.727899	0.0	0.0
