16

C	0.0	0.0	0.0
C	-0.364596	0.338312	-1.508823
F	1.373654	0.0	0.0
H	0.55828	0.042157	-2.025996
N	-0.585492	0.886471	0.937213
H	-1.614485	0.703919	0.755715
H	-0.364417	0.57075	1.876032
C	-0.34888	-1.432965	0.252162
N	-0.519393	-2.572773	0.480643
N	-0.552547	1.779275	-1.640875
H	-0.814179	2.154779	-0.736694
H	-1.341616	1.887466	-2.268098
N	-1.458329	-0.378777	-2.127442
H	-1.193195	-1.351432	-2.244044
H	-2.235202	-0.331294	-1.437819
F	-2.854893	0.0	0.0
