16

C	0.0	0.0	0.0
C	-0.479704	0.213406	-1.494297
F	1.392425	0.0	0.0
H	-1.000438	1.177916	-1.462967
N	-0.550964	1.011551	0.82567
H	-0.36686	0.778969	1.797708
H	-1.580141	0.853949	0.649918
C	-0.327527	-1.388109	0.445209
N	-0.485471	-2.484108	0.837028
N	-1.416328	-0.739221	-2.034021
H	-2.219027	-0.67796	-1.383321
H	-0.998976	-1.662574	-1.970883
N	0.693304	0.20316	-2.368147
H	0.337666	0.410085	-3.29387
H	1.340707	0.931505	-2.094676
F	-2.829477	0.0	0.0
