16

C	0.0	0.0	0.0
C	-0.456716	0.268227	-1.501428
F	1.386647	0.0	0.0
H	0.501421	0.311132	-2.036317
N	-0.511344	0.96924	0.907401
H	-1.539808	0.817236	0.786543
H	-0.258119	0.689921	1.850547
C	-0.328183	-1.400358	0.404978
N	-0.475008	-2.514353	0.749975
N	-1.158862	1.526008	-1.66617
H	-0.710067	2.205226	-1.059928
H	-2.068686	1.339013	-1.237233
N	-1.275215	-0.777745	-2.081651
H	-0.783962	-1.6624	-2.021665
H	-2.089386	-0.82033	-1.455006
F	-2.791655	0.0	0.0
