16

C	0.0	0.0	0.0
C	-0.45745	0.18186	-1.515075
F	1.386684	0.0	0.0
H	0.500656	0.198117	-2.051302
N	-0.507294	1.021877	0.850514
H	-1.535007	0.864561	0.745969
H	-0.247439	0.801459	1.80734
C	-0.32906	-1.37355	0.486331
N	-0.480892	-2.466916	0.89055
N	-1.160686	1.427464	-1.748966
H	-0.694003	2.143949	-1.201871
H	-2.063163	1.273508	-1.291683
N	-1.275737	-0.896158	-2.035275
H	-0.791559	-1.776623	-1.901862
H	-2.094535	-0.89068	-1.4129
F	-2.788969	0.0	0.0
