16

C	0.0	0.0	0.0
C	-0.359944	0.2441	-1.537516
F	1.386616	0.0	0.0
H	0.565643	-0.077288	-2.031211
N	-0.563589	0.946791	0.882532
H	-0.367863	0.653057	1.834682
H	-1.591097	0.792499	0.695297
C	-0.31698	-1.420711	0.345785
N	-0.466004	-2.551765	0.627171
N	-0.554546	1.66073	-1.796669
H	0.011387	2.174387	-1.128536
H	-1.518753	1.862218	-1.545734
N	-1.451067	-0.500289	-2.115136
H	-2.228184	-0.420019	-1.432988
H	-1.187634	-1.47724	-2.151188
F	-2.828871	0.0	0.0
