16

C	0.0	0.0	0.0
C	-0.442149	0.255521	-1.453546
F	1.40549	0.0	0.0
H	-1.504295	0.49356	-1.344301
N	-0.498374	0.969787	0.91634
H	-0.323315	1.866257	0.46715
H	-1.528241	0.777632	0.823593
C	-0.395617	-1.354839	0.451566
N	-0.559302	-2.466646	0.789002
N	-0.199286	-0.931663	-2.291497
H	-0.582196	-0.721657	-3.209348
H	-0.778949	-1.681748	-1.923391
N	0.302146	1.40761	-1.929516
H	1.23561	1.093528	-2.171292
H	-0.141608	1.769822	-2.764352
F	-2.739348	0.0	0.0
