16

C	0.0	0.0	0.0
C	-0.429472	-0.085242	-1.473306
F	1.391225	0.0	0.0
H	-1.516029	-0.18807	-1.428429
N	-0.556711	1.161503	0.595231
H	-1.597194	0.923201	0.461789
H	-0.362242	1.133702	1.59217
C	-0.34531	-1.256417	0.727741
N	-0.495877	-2.202954	1.406945
N	0.181433	-1.264817	-2.060926
H	-0.099778	-1.286711	-3.034208
H	1.189851	-1.148423	-2.044505
N	-0.081844	1.139874	-2.199222
H	0.888471	1.355046	-1.975294
H	-0.621522	1.891369	-1.778533
F	-2.762989	0.0	0.0
