16

C	0.0	0.0	0.0
C	-0.456441	0.252212	-1.480705
F	1.394851	0.0	0.0
H	0.492079	0.36259	-2.020071
N	-0.500964	1.00083	0.882474
H	-1.527329	0.853162	0.775295
H	-0.246515	0.739444	1.829975
C	-0.325811	-1.376454	0.477358
N	-0.475561	-2.42135	0.993605
N	-1.248458	1.454825	-1.691375
H	-2.114534	1.248013	-1.182049
H	-0.798362	2.22459	-1.206732
N	-1.147073	-0.92665	-1.966261
H	-2.002907	-0.94214	-1.396995
H	-1.425174	-0.719659	-2.920998
F	-2.801626	0.0	0.0
