16

C	0.0	0.0	0.0
C	-0.447034	-0.088702	-1.498518
F	1.40165	0.0	0.0
H	0.478242	-0.130589	-2.083496
N	-0.480362	1.116065	0.746753
H	-1.492951	0.906871	0.796325
H	-0.403137	1.913544	0.120079
C	-0.349728	-1.231741	0.756437
N	-0.480859	-2.189435	1.421406
N	-1.152484	1.150608	-1.832002
H	-2.041836	1.035468	-1.325088
H	-1.348195	1.133054	-2.827941
N	-1.185323	-1.327528	-1.704199
H	-1.45311	-1.371273	-2.682832
H	-2.037541	-1.185515	-1.14243
F	-2.810935	0.0	0.0
