13

C	-0.399732	-0.15185	-1.467471
C	0.0	0.0	0.0
F	-0.456573	1.145564	-1.981584
H	1.08885	0.0	0.0
H	-1.40216	-0.579301	-1.575331
H	-0.396822	0.899643	0.463037
N	0.520179	-0.9085	-2.261147
H	0.390613	-1.879075	-2.000645
H	1.457177	-0.65754	-1.939785
N	-0.453917	-1.136503	0.783074
O	-0.430731	-2.257676	0.252501
O	-0.788897	-0.947126	1.957
H	2.722984	0.0	0.0
