13

C	-0.478877	-0.019595	-1.44117
C	0.0	0.0	0.0
F	-0.28354	-1.327946	-1.875404
H	1.087767	0.0	0.0
H	0.150456	0.629298	-2.051878
H	-0.372013	-0.855768	0.562683
N	-1.860367	0.316104	-1.689851
H	-1.951793	1.318314	-1.583575
H	-2.438087	-0.120693	-0.979052
N	-0.407178	1.206518	0.680897
O	-0.596608	1.16588	1.904926
O	-0.4259	2.261077	0.018073
H	2.629482	0.0	0.0
