13

C	-0.533182	-0.049421	-1.426427
C	0.0	0.0	0.0
F	-0.255904	-1.305574	-1.942171
H	1.087445	0.0	0.0
H	0.035823	0.678453	-2.014824
H	-0.374674	0.906485	0.479539
N	-1.942852	0.194377	-1.592515
H	-2.111982	1.188315	-1.662167
H	-2.445167	-0.154737	-0.784034
N	-0.573868	-1.12691	0.755397
O	0.042809	-2.185491	0.808021
O	-1.690794	-0.94477	1.276814
H	2.855131	0.0	0.0
