13

C	-0.37344	0.079037	-1.451381
C	0.0	0.0	0.0
F	-1.746308	0.354501	-1.612007
H	1.091343	0.0	0.0
H	-0.233319	-0.8938	-1.930234
H	-0.371653	0.858473	0.554875
N	0.38592	1.153448	-2.022261
H	0.441256	1.042654	-3.025437
H	1.333036	1.103562	-1.642444
N	-0.485822	-1.205712	0.665162
O	-0.469306	-2.270674	0.038578
O	-0.815456	-1.112086	1.851405
H	2.723271	0.0	0.0
