14

C	0.0	0.0	0.0
C	-0.323634	0.116779	-1.504039
Cl	1.77622	0.0	0.0
H	0.043785	-0.823342	-1.925172
H	0.298379	0.914618	-1.909909
N	-0.35975	1.349851	0.702415
O	-0.501637	1.299495	1.917695
O	-0.415722	2.362202	0.015706
N	-0.551712	-1.108127	0.61573
H	-0.32564	-1.079	1.604099
H	-1.606271	-0.873881	0.467535
C	-1.67522	0.344413	-2.029121
N	-2.494429	0.582074	-2.840456
F	-2.662017	0.0	0.0
