14

C	0.0	0.0	0.0
C	-0.529018	-0.158055	-1.432643
Cl	1.755595	0.0	0.0
H	-0.151813	0.6245	-2.089901
H	-1.630892	-0.074415	-1.256945
N	-0.393896	1.436414	0.44056
O	-0.657627	1.623793	1.615113
O	-0.333659	2.303392	-0.427026
N	-0.534788	-0.890365	0.95171
H	-0.276682	-1.833924	0.683235
H	-1.569923	-0.738269	0.804646
C	-0.18076	-1.469702	-1.949569
N	0.096514	-2.533986	-2.363831
F	-2.763325	0.0	0.0
