14

C	0.0	0.0	0.0
C	-0.529237	0.022446	-1.441388
Cl	1.754329	0.0	0.0
H	-0.393635	-0.993881	-1.825787
H	-1.61835	0.183862	-1.274448
N	-0.391961	1.342321	0.670215
O	-0.444457	1.366821	1.889346
O	-0.548921	2.301691	-0.075286
N	-0.554745	-1.024659	0.794913
H	-1.591515	-0.841154	0.652157
H	-0.295804	-1.916228	0.386931
C	0.086953	0.948106	-2.378308
N	0.574979	1.633458	-3.198473
F	-2.769913	0.0	0.0
