14

C	0.0	0.0	0.0
C	-0.542769	0.053414	-1.42426
Cl	1.77423	0.0	0.0
H	-0.20736	0.953131	-1.936774
H	-1.646648	0.081433	-1.249066
N	-0.340924	1.383489	0.664563
O	-0.415308	2.373957	-0.053724
O	-0.461949	1.376859	1.883006
N	-0.570205	-1.063508	0.684446
H	-0.314421	-1.03043	1.662711
H	-1.610528	-0.864429	0.559436
C	-0.148687	-1.133037	-2.167259
N	0.148856	-2.071146	-2.808601
F	-2.809358	0.0	0.0
