14

C	0.0	0.0	0.0
C	-0.318217	0.053759	-1.518843
Cl	1.771752	0.0	0.0
H	0.325491	0.805527	-1.976638
H	0.015019	-0.916876	-1.903603
N	-0.415822	1.341642	0.628349
O	-0.604498	1.373291	1.832084
O	-0.438872	2.305883	-0.129667
N	-0.518178	-1.039039	0.782981
H	-1.563554	-0.852065	0.644411
H	-0.247554	-1.919291	0.358001
C	-1.66775	0.301919	-2.039515
N	-2.484124	0.54819	-2.851574
F	-2.617503	0.0	0.0
