18

C	0.0	0.0	0.0
C	-0.229497	0.073767	-1.564009
Br	1.945871	0.0	0.0
H	0.247227	0.990584	-1.903651
N	-0.363067	1.313817	0.684191
O	-0.454717	1.281733	1.903904
O	-0.458127	2.307302	-0.025966
C	-0.644218	-1.159521	0.693122
H	-0.335734	-1.206462	1.736741
H	-0.369845	-2.086484	0.187872
H	-1.735445	-1.006811	0.629298
N	-1.657336	0.214986	-2.076693
O	-2.029549	1.350219	-2.344505
O	-2.268252	-0.824299	-2.287488
N	0.265632	-1.070471	-2.295368
H	1.161074	-1.376703	-1.949582
H	-0.414777	-1.815931	-2.226384
Cl	-3.972186	0.0	0.0
