18

C	0.0	0.0	0.0
C	-0.477432	0.11897	-1.470567
Br	1.960363	0.0	0.0
H	-1.549768	0.337573	-1.442345
N	-0.446894	1.231051	0.774981
O	-0.519979	1.095168	1.990339
O	-0.653137	2.259241	0.146845
C	-0.436664	-1.266202	0.711632
H	-0.036665	-2.128589	0.176432
H	-0.031739	-1.266395	1.723371
H	-1.529591	-1.295484	0.742642
N	-0.390244	-1.251175	-2.162685
O	-1.38137	-1.62717	-2.782522
O	0.706446	-1.814482	-2.185024
N	0.248579	1.056723	-2.258406
H	-0.250368	1.274621	-3.108378
H	1.18176	0.728453	-2.463225
Cl	-3.585148	0.0	0.0
