16
Coordinates from ORCA-job run
  C   -0.43210624830333     -0.07342867194039      0.21819250883147
  C   1.05364404514741      0.27162917985274      0.28996592562505
  H   -0.66593830356480     -0.70716337797331      1.08665029029436
  H   1.31853116218537      0.85416375281681     -0.60048889829107
  H   1.22476167809029      0.92374381164003      1.16186812960667
  C   -0.75285023617420     -0.85585515239522     -1.05029473251773
  H   -0.56421143333544     -0.23476842842225     -1.93278722152202
  H   -1.80402056194783     -1.15720271156381     -1.07221736605883
  H   -0.12684635511347     -1.74478268450158     -1.12600862704858
  C   -1.27429158450296      1.19538894205239      0.31619693695804
  H   -2.34223189224532      0.96329098367387      0.29019793723009
  H   -1.07205032653583      1.74412163112774      1.24062769914040
  H   -1.05946512582209      1.86292344550275     -0.52475403524897
  N   1.87723844568625     -0.93844207126967      0.29738568815919
  H   2.85607719185262     -0.69020621354457      0.22015308902950
  H   1.76175954458333     -1.41341243505552      1.18531267581243
