16
Coordinates from ORCA-job run
  C   -0.21319141187971      0.38994281830959     -0.15756408098724
  C   0.93090586458763     -0.05425096485201      0.76344251068737
  H   0.14732316467425      1.25127757170766     -0.73877799646923
  H   1.15456484715360      0.75728635484906      1.46489797665227
  H   0.58552669043653     -0.90002244746915      1.37064477451493
  C   -1.40985930106139      0.84009878371909      0.67659353850030
  H   -1.80010640871440      0.00586330933774      1.26867027558007
  H   -1.13469439145886      1.64131813377251      1.36836085036729
  H   -2.22221850421825      1.20733487318345      0.04377951380665
  C   -0.61507794374853     -0.71317114504132     -1.13142907177540
  H   -0.94732491072077     -1.60275028089808     -0.58515283581758
  H   -1.43812396202438     -0.39078715513663     -1.77470950522400
  H   0.21261656305249     -1.00442893967207     -1.78238079036234
  N   2.18626067778030     -0.44795526935705      0.13068738485178
  H   2.51265656341179      0.29225334133184     -0.47926667588922
  H   2.05074246272967     -1.27300898378464     -0.43879586843565
