16
Coordinates from ORCA-job run
  C   -0.17974192345584     -0.14367133105928     -0.41160907377237
  C   0.95636291511055     -0.46157158069815      0.56957522669903
  H   0.23832449998117     -0.19541658655456     -1.42758882659891
  H   1.29584589132850     -1.48875869517340      0.39552035043481
  H   0.55619371729169     -0.43808969460731      1.59066439130109
  C   -0.73944918849504      1.25831202608417     -0.19260745153129
  H   -1.55556090996618      1.47031311148544     -0.88842686442509
  H   -1.13397261277315      1.35765057653257      0.82456387076474
  H   0.02135113122534      2.02882705260890     -0.33799616473673
  C   -1.28194873556358     -1.19305356284920     -0.29151495147337
  H   -2.08230893209570     -1.01606533141751     -1.01493870424668
  H   -0.89280633216575     -2.20100501618490     -0.46125711516159
  H   -1.72623093720309     -1.16972876509639      0.70891613923788
  N   2.13247548446046      0.40266946944970      0.53585165169743
  H   1.88563170012247      1.34519582859346      0.80806534640915
  H   2.50283423219814      0.44539249888644     -0.40621782459810
