14

C	-0.525006	-0.224551	-1.412364
C	0.0	0.0	0.0
Cl	0.119238	1.129385	-2.44781
H	1.095083	0.0	0.0
H	-0.064047	-1.127109	-1.80474
N	-1.941466	-0.337551	-1.418994
H	-2.374029	0.538907	-1.152411
H	-2.281237	-0.606656	-2.333051
N	-0.377199	-1.193316	0.840023
O	-0.23008	-2.289642	0.311487
O	-0.742154	-0.996093	1.994847
C	-0.555497	1.208808	0.587797
N	-1.045956	2.19697	0.99133
Br	3.338654	0.0	0.0
