14

C	-0.512615	-0.023461	-1.436597
C	0.0	0.0	0.0
Cl	0.105047	1.482837	-2.248136
H	1.091665	0.0	0.0
H	-0.027602	-0.848288	-1.953555
N	-1.927116	-0.166668	-1.472319
H	-2.379438	0.639668	-1.055341
H	-2.253106	-0.263421	-2.42545
N	-0.414649	-1.300402	0.639278
O	-0.073684	-2.311552	0.041187
O	-1.031027	-1.264251	1.698501
C	-0.553198	1.118118	0.748953
N	-1.010324	2.050652	1.297218
Br	3.360779	0.0	0.0
