14

C	-0.590116	-0.012878	-1.415865
C	0.0	0.0	0.0
Cl	0.081215	-1.398156	-2.310474
H	1.090397	0.0	0.0
H	-1.665173	-0.213177	-1.333894
N	-0.235528	1.208389	-2.092682
H	-0.506938	1.152358	-3.06531
H	-0.712543	1.991573	-1.66055
N	-0.510211	-1.22146	0.721859
O	-1.73265	-1.291331	0.8729
O	0.306481	-2.060146	1.075092
C	-0.512259	1.172493	0.701308
N	-0.945108	2.145123	1.197914
Br	3.422931	0.0	0.0
