14

C	-0.542405	0.120455	-1.418265
C	0.0	0.0	0.0
Cl	0.152528	1.642331	-2.137268
H	1.089121	0.0	0.0
H	-0.128228	-0.691729	-2.010062
N	-1.963712	0.072796	-1.422275
H	-2.320461	0.042806	-2.368302
H	-2.349909	0.885814	-0.955472
N	-0.397031	-1.349295	0.542827
O	-0.794029	-1.414745	1.701602
O	-0.240257	-2.299066	-0.215629
C	-0.535456	1.048545	0.856297
N	-1.005719	1.926208	1.479406
Br	3.341992	0.0	0.0
