17

C	0.0	0.0	0.0
C	-0.46197	-0.01737	-1.476718
F	1.384384	0.0	0.0
H	0.33023	0.464982	-2.064011
C	-0.374096	1.307556	0.584228
N	-0.516211	2.33902	1.127243
C	-0.548281	-1.130767	0.839735
H	-1.643354	-1.087137	0.797939
H	-0.20785	-1.01103	1.870819
H	-0.186961	-2.085304	0.453905
N	-1.724172	0.516693	-1.631456
H	-2.065772	0.457892	-2.582049
H	-2.516816	0.234744	-0.903767
N	-0.275415	-1.51661	-1.946311
O	-1.278395	-2.202332	-2.11256
O	0.883415	-1.900241	-2.122838
H	-3.511204	0.0	0.0
