17

C	0.0	0.0	0.0
C	-0.559157	0.003697	-1.429336
F	1.383683	0.0	0.0
H	0.027761	0.730725	-2.004879
C	-0.409454	1.25479	0.667922
N	-0.698427	2.280099	1.167468
C	-0.431898	-1.233266	0.779915
H	-0.140331	-2.099525	0.18334
H	-1.510535	-1.24392	0.923282
H	0.081899	-1.234106	1.746128
N	-1.995876	0.305852	-1.378271
H	-2.232457	1.201103	-1.783537
H	-2.383953	-0.517697	-1.881408
N	-0.419218	-1.302351	-2.12416
O	0.801283	-1.772546	-2.054084
O	-1.509332	-2.091447	-1.961119
H	-2.918871	0.0	0.0
