16
Coordinates from ORCA-job run
  C   0.48034590601448      0.01320875285541     -0.09657888639969
  C   -0.82895900107772     -0.02229274702180      0.16722693314058
  C   1.44733066371409     -0.96509288517821      0.50525918243371
  H   1.95164698830072     -0.50020351401101      1.35802957064565
  H   0.98127044089121     -1.88230357142639      0.85841287328892
  H   2.21062703976475     -1.21187466216413     -0.23654080558893
  C   1.08642760101137      1.03458987645000     -1.01518787709550
  H   2.06214202808820      1.33071302613781     -0.62262286883241
  H   1.24752037311395      0.58650760265960     -2.00058222968929
  H   0.47178147300962      1.92131393270363     -1.15335286701885
  N   -1.47449379091981     -0.99760233423472      1.04493657930574
  O   -0.95782518140961     -1.21870857144363      2.13663071999862
  O   -2.48889062549145     -1.52496135872829      0.59467302445131
  N   -1.81407148037650      0.90793605308573     -0.38309309202273
  O   -1.77302128930399      1.14230073040119     -1.58767178558849
  O   -2.60183114532931      1.38646966991481      0.42946152897135
