16
Coordinates from ORCA-job run
  C   0.48896986911334      0.01934499404483     -0.02729123408251
  C   -0.84402640907829     -0.03290981929108      0.04699060670806
  C   1.34373147999094      0.40104823031229      1.14662629591520
  H   0.81197427136595      0.95765450045541      1.91512188145303
  H   1.74645190041572     -0.50390500291960      1.61203364169827
  H   2.18923800642850      0.99531536818652      0.79197058118393
  C   1.23571070937187     -0.29913744756558     -1.29033824573032
  H   2.16044629853888     -0.82155034367132     -1.03394135296985
  H   1.51001864837588      0.63219611867676     -1.79536148900363
  H   0.66790967963824     -0.90143553751337     -1.99606092046908
  N   -1.62314297515294      0.27375458885393      1.24597325337170
  O   -1.25957792259529     -0.22036748643013      2.30959383792921
  O   -2.58367522309125      1.02100068197992      1.07624116767950
  N   -1.72478152066939     -0.40599663149605     -1.05907899467483
  O   -1.52044865891102      0.10849636781740     -2.15506131313141
  O   -2.59879815374113     -1.22550858143993     -0.78641771587725
