16
Coordinates from ORCA-job run
  C   0.48461463664809     -0.00632161927132     -0.07009228960550
  C   -0.83724369144418      0.01458894630190      0.12285037374088
  C   1.45690229891473      0.47326025813975      0.96838884163275
  H   2.33423499863390     -0.17807173132381      0.96009168965144
  H   1.04525490407859      0.50742373287334      1.97453015180572
  H   1.79233246516454      1.48316105985071      0.71267003217316
  C   1.10132448067339     -0.51389915703375     -1.34159755068950
  H   1.44530640747637     -1.54217640460245     -1.19321825465883
  H   0.42115713717911     -0.51364201617567     -2.19051734777165
  H   1.97527734049466      0.09647630340765     -1.58111736328218
  N   -1.82680854957701     -0.43366714311007     -0.85616676131898
  O   -1.63867454453113     -1.51340316028695     -1.40972327885532
  O   -2.76853513311926      0.33252262696068     -1.04569224351849
  N   -1.49425693005698      0.48678180085766      1.34103638862951
  O   -1.11938323302825      1.55349547005649      1.81972025599173
  O   -2.37150258750655     -0.24852896664417      1.78783735607526
