16
Coordinates from ORCA-job run
  C   0.48501110193682      0.00620385397012     -0.07004544523484
  C   -0.83789356766370     -0.00810622693371      0.11549211145906
  C   1.43498312742951      0.51491175366142      0.97549577881158
  H   0.97367500371965      1.17915979489870      1.70300511159779
  H   1.85950813529799     -0.33204186281695      1.52334108717854
  H   2.25858499501185      1.03759640210368      0.48328767473411
  C   1.12510550919180     -0.48723892093543     -1.33495820061202
  H   0.48998832757985     -1.14750365430530     -1.92107031325200
  H   2.05189639328753     -1.00852908938150     -1.08313322832462
  H   1.38809579058293      0.36724403750899     -1.96626981234198
  N   -1.51264364269946      0.46568541850460      1.32323208901280
  O   -2.47149516920653      1.21085843997660      1.13542386087540
  O   -1.07310512150365      0.09801921386081      2.40913386376716
  N   -1.81103945094655     -0.50108166668710     -0.85822998220553
  O   -1.69314942225464     -0.13591570844742     -2.02452365531420
  O   -2.66852200976341     -1.25926178497750     -0.41118094015124
