16
Coordinates from ORCA-job run
  C   0.47689027204257      0.01727083599333     -0.11092681877344
  C   -0.82262306565815     -0.02952117626694      0.19565978072100
  C   1.49549708334712     -0.84966692586214      0.57087402101325
  H   1.07338964561318     -1.73036093779726      1.04967636564647
  H   2.24325800111852     -1.16176749807917     -0.16218119877601
  H   2.01031622278074     -0.26783281126462      1.34170093255642
  C   1.01946739926023      0.94057573617639     -1.16336085257777
  H   0.37055982723809      1.78534795297456     -1.38374887701177
  H   1.99563807949826      1.31138551083882     -0.84186258408156
  H   1.16621776783653      0.38375136842504     -2.09400197156605
  N   -1.85440997112274      0.79538633652050     -0.43159646379644
  O   -2.63377810307509      1.34660544641933      0.34204821994676
  O   -1.85598313891575      0.88031217669626     -1.65644983422462
  N   -1.41002276711354     -0.91360663386180      1.20142927308774
  O   -0.85554516216950     -0.98913401827436      2.29427207675997
  O   -2.41887209068049     -1.51974536263794      0.84846793107604
