16
Coordinates from ORCA-job run
  C   0.48960776388009     -0.02328673099673     -0.02003887539901
  C   -0.84367222195381      0.04412619923708      0.03847127444618
  C   1.36300064137195      0.26025653796141      1.16808039943401
  H   2.27937937730325      0.74800052408743      0.82784355261179
  H   1.64512206224765     -0.68261656750899      1.64655769596127
  H   0.88599255932227      0.88110402894299      1.92337109735385
  C   1.21634380580853     -0.39267028979148     -1.28076561067659
  H   1.60181864880150      0.51511518173041     -1.75531107921960
  H   2.07266761463691     -1.02218848219244     -1.02707671374406
  H   0.59655002979185     -0.90922132179323     -2.01026019705289
  N   -1.60970430122685      0.40473166889736      1.23096508060001
  O   -1.28499950973248     -0.10836183064626      2.29816708148592
  O   -2.51800669532253      1.21283330293239      1.05377779432109
  N   -1.73764545725088     -0.23148723740160     -1.08548086282340
  O   -2.66748000405385     -0.99814009362956     -0.84497930013484
  O   -1.48997431362359      0.30380511017122     -2.16232133716372
