16
Coordinates from ORCA-job run
  C   0.47824345550582      0.02272482529167     -0.10225368436410
  C   -0.82599230247616     -0.04053723238172      0.18046795837439
  C   1.48735018853878     -0.87954182728758      0.54712127190629
  H   1.98926198301546     -0.34000273692251      1.35625941425027
  H   2.24671741411672     -1.15090693261726     -0.19022185127390
  H   1.05915858411383     -1.78523806860342      0.97067475310277
  C   1.03735933109205      1.00266785687104     -1.09309347105744
  H   1.21322206565139      0.49415157823858     -2.04613005582266
  H   2.00175440996398      1.36471641489154     -0.72872807290745
  H   0.38618649736833      1.85191744161981     -1.28769679734623
  N   -1.84753502769018      0.81851711602848     -0.41661113826231
  O   -2.63413376180081      1.33351164449271      0.37459772084796
  O   -1.83536959674939      0.96397540994919     -1.63575571054403
  N   -1.42927367624870     -0.97835051324184      1.12624055444007
  O   -0.89015890038676     -1.11903379677135      2.22028611733871
  O   -2.43579066401436     -1.55857117955734      0.72584299131767
