16
Coordinates from ORCA-job run
  C   0.47919438636378      0.02826464893297     -0.09720401323457
  C   -0.82801790894562     -0.04730944108183      0.16803884475277
  C   1.45657127316346     -1.00563110476798      0.38244354379444
  H   1.67886247797990     -1.70095916372024     -0.43292731247015
  H   1.09863988539192     -1.59110087740435      1.22643192200706
  H   2.39042932332721     -0.51021097707057      0.65866798536457
  C   1.07270260159573      1.15220531164890     -0.89649557748777
  H   0.35194212282107      1.67614467307061     -1.52030276859819
  H   1.51810214425467      1.88564812557652     -0.21723569125988
  H   1.87291750781834      0.75598346451307     -1.52619472854629
  N   -1.45763513745201     -1.11258299035711      0.94727907291643
  O   -1.15399071611801     -2.27290640167901      0.68456750415190
  O   -2.24028547634071     -0.73945376320416      1.81796359723646
  N   -1.82589251290623      0.92301278827475     -0.27998404487706
  O   -2.84101719249087      0.44515635020186     -0.78101320955307
  O   -1.57352277846264      2.11573935706659     -0.13403512419665
