15

C	0.132894	0.030408	-0.07498
C	-0.413956	-0.390147	-1.439828
F	1.465887	0.462615	-0.263614
H	0.394499	-0.957567	-1.921282
H	0.183515	-0.886959	0.518553
C	-0.661175	1.102792	0.617096
H	-0.298314	1.234364	1.640843
H	-1.734367	0.837295	0.597165
H	-0.533928	2.044751	0.076043
C	-0.624009	0.803221	-2.301421
N	-0.788905	1.701673	-3.041044
N	-1.573582	-1.239601	-1.260279
H	-2.353139	-0.679098	-0.784315
H	-1.910887	-1.515802	-2.176152
F	-3.322214	0.230715	-0.066539
