15

C	-0.097776	0.097738	0.017747
C	-0.39573	-0.215332	-1.451141
F	1.306269	0.199164	0.139768
H	0.107592	-1.175594	-1.658495
H	-0.458505	-0.750598	0.598351
C	-0.759096	1.35469	0.517387
H	-0.356321	1.600626	1.50399
H	-0.604184	2.201521	-0.156331
H	-1.818321	1.123025	0.614711
C	0.253325	0.783771	-2.328012
N	0.753545	1.561612	-3.052216
N	-1.834251	-0.225554	-1.663874
H	-2.031072	-0.779955	-2.48967
H	-2.230914	-0.7192	-0.807656
F	-2.39929	-1.31115	0.609234
