15

C	0.126631	0.040602	-0.054756
C	-0.395847	0.113612	-1.490252
F	1.471522	0.476853	-0.067488
H	0.412747	-0.281416	-2.120735
H	0.146278	-1.023067	0.199493
C	-0.663762	0.840124	0.942932
H	-0.322204	0.614086	1.957467
H	-0.508132	1.905305	0.74964
H	-1.7404	0.620234	0.818906
C	-0.561674	1.531438	-1.906542
N	-0.691292	2.629162	-2.30616
N	-1.575599	-0.716228	-1.623785
H	-2.354591	-0.331674	-0.996266
H	-1.898505	-0.659193	-2.58362
F	-3.324772	0.296225	-0.022489
