13

C	-0.463435	-0.003371	-1.446609
C	0.0	0.0	0.0
Cl	-0.178622	1.661155	-2.07238
H	1.089702	0.0	0.0
H	0.191288	-0.65697	-2.023349
H	-0.367941	0.845991	0.578499
N	-1.837817	-0.365154	-1.72589
H	-1.927008	-1.345623	-1.482229
H	-2.444341	0.164545	-1.108482
N	-0.393438	-1.210219	0.676875
O	-0.548985	-1.176718	1.907651
O	-0.428523	-2.26252	0.008309
H	2.575498	0.0	0.0
