13

C	-0.509161	-0.015805	-1.42037
C	0.0	0.0	0.0
Cl	-0.007691	1.589889	-2.171399
H	1.088941	0.0	0.0
H	0.02598	-0.764104	-2.000731
H	-0.391141	0.842167	0.569948
N	-1.914677	-0.233006	-1.50116
H	-2.406943	0.488512	-0.988095
H	-2.230549	-0.218607	-2.461705
N	-0.41754	-1.225092	0.677846
O	-0.881554	-1.135785	1.824779
O	-0.204692	-2.292654	0.094001
H	2.691783	0.0	0.0
