13

C	-0.354786	-0.047882	-1.453817
C	0.0	0.0	0.0
Cl	-2.15531	-0.327659	-1.706445
H	1.092787	0.0	0.0
H	-0.19857	0.93317	-1.905122
H	-0.374125	-0.859895	0.54972
N	0.385335	-1.133415	-2.027499
H	0.391336	-1.059461	-3.037424
H	1.344986	-1.056746	-1.674733
N	-0.463254	1.20623	0.674923
O	-0.76247	1.111162	1.869334
O	-0.446216	2.272577	0.048095
H	2.687482	0.0	0.0
