16

C	-0.475583	0.007504	-1.442888
C	0.0	0.0	0.0
F	0.022463	1.079821	-2.057538
H	1.095778	0.0	0.0
N	-0.057795	-1.2147	-2.268835
O	1.125082	-1.24315	-2.55681
O	-0.942144	-1.997754	-2.587699
N	-1.994095	0.070499	-1.553632
O	-2.619303	-0.46891	-0.649529
O	-2.442282	0.630366	-2.543764
N	-0.385624	-1.239131	0.748893
O	-0.212847	-2.292553	0.147663
O	-0.758737	-1.11062	1.906594
C	-0.503704	1.190872	0.661429
N	-0.901286	2.186474	1.141973
Br	3.242421	0.0	0.0
