16

C	-0.547099	0.024864	-1.38606
C	0.0	0.0	0.0
F	-1.855512	0.081529	-1.531565
H	1.113859	0.0	0.0
N	0.072732	1.335722	-1.988813
O	1.264981	1.332042	-2.225993
O	-0.696311	2.290985	-2.065551
N	-0.007173	-1.065687	-2.322214
O	-0.741396	-1.366171	-3.262944
O	1.102847	-1.50999	-2.10798
N	-0.54252	-1.072917	0.916082
O	0.222801	-1.565557	1.720412
O	-1.757644	-1.344288	0.843796
C	-0.197569	1.169559	0.838931
N	0.107171	1.695036	1.856375
Br	3.035779	0.0	0.0
