16

C	-0.390471	-0.008522	-1.465609
C	0.0	0.0	0.0
F	-0.075226	1.172648	-2.00317
H	1.092972	0.0	0.0
N	0.339956	-1.102289	-2.222094
O	0.489442	-2.151536	-1.612321
O	0.656062	-0.839596	-3.371883
N	-1.881759	-0.209949	-1.7502
O	-2.599353	0.641008	-1.246021
O	-2.21278	-1.137995	-2.47522
N	-0.506352	-1.18528	0.773105
O	-1.53688	-1.719995	0.377443
O	0.126972	-1.476369	1.774776
C	-0.466955	1.198594	0.678574
N	-0.824388	2.143594	1.280603
Br	3.23875	0.0	0.0
