16

C	-0.507966	0.010771	-1.431261
C	0.0	0.0	0.0
F	0.003094	1.063651	-2.06745
H	1.094929	0.0	0.0
N	-0.14693	-1.227658	-2.259082
O	-1.069083	-1.9555	-2.600997
O	1.037356	-1.320252	-2.527666
N	-2.027988	0.118423	-1.498062
O	-2.489959	0.711181	-2.462373
O	-2.639738	-0.420037	-0.584151
N	-0.382737	-1.233714	0.761804
O	-0.29936	-2.288206	0.142706
O	-0.662159	-1.101152	1.944971
C	-0.48561	1.193743	0.671918
N	-0.876157	2.188528	1.160367
Br	3.241867	0.0	0.0
