16

C	-0.44985	0.005173	-1.45021
C	0.0	0.0	0.0
F	0.332311	-0.722266	-2.23505
H	1.094277	0.0	0.0
N	-1.890015	-0.463637	-1.624003
O	-2.672037	-0.017182	-0.793577
O	-2.133869	-1.194548	-2.568199
N	-0.425962	1.429045	-2.01354
O	0.518054	2.117749	-1.654659
O	-1.29517	1.709856	-2.831823
N	-0.380691	-1.301402	0.650111
O	-0.58754	-2.251296	-0.100396
O	-0.381693	-1.324098	1.872013
C	-0.511965	1.109561	0.781448
N	-0.90307	2.019669	1.412923
Br	3.233271	0.0	0.0
