16

C	-0.454075	-0.069035	-1.438307
C	0.0	0.0	0.0
F	0.027093	-1.108275	-2.114576
H	1.107287	0.0	0.0
N	-1.97297	-0.17923	-1.357947
O	-2.590241	0.845428	-1.087309
O	-2.397193	-1.331163	-1.343218
N	0.018402	1.078718	-2.339285
O	1.17251	1.421775	-2.149219
O	-0.674904	1.319676	-3.324846
N	-0.179129	-1.221699	0.785866
O	-0.194357	-1.075285	2.01065
O	-0.022159	-2.289132	0.194581
C	-0.271304	1.278972	0.60003
N	0.110411	2.432641	0.665129
Br	2.915715	0.0	0.0
