16

C	-0.505521	0.065284	-1.429861
C	0.0	0.0	0.0
F	0.024136	1.129826	-2.031363
H	1.094666	0.0	0.0
N	-0.162955	-1.151334	-2.297474
O	1.021286	-1.254813	-2.566245
O	-1.094902	-1.84961	-2.668678
N	-2.022798	0.198785	-1.493881
O	-2.47367	0.825102	-2.441233
O	-2.645161	-0.35552	-0.59642
N	-0.383491	-1.257051	0.720429
O	-0.324174	-2.288834	0.063391
O	-0.635813	-1.164939	1.912517
C	-0.481866	1.171604	0.713019
N	-0.876338	2.144919	1.239675
Br	3.23917	0.0	0.0
