14
Coordinates from ORCA-job run
  C   0.88044523614565      0.48388616248106      0.19347705884549
  C   -0.58593501147837      0.08659717185983      0.22673117986666
  Br  1.49734908722056      0.76637955740295     -1.68073174826752
  H   -0.95545243381707      0.18396508304185      1.24790211763912
  H   0.92997186255242      1.48413549411909      0.62318091509651
  N   1.63971809664962     -0.42059081299224      0.97087634810846
  H   2.54850523579901     -0.03982693150046      1.19593972589711
  H   1.75078308389616     -1.31041345319419      0.50195906109248
  N   -0.88331604122487     -1.32081790349023     -0.18480330043067
  O   -0.01534863160245     -1.95775479379268     -0.77365380653718
  O   -2.00412201358773     -1.71392636580760      0.11841673381943
  N   -1.41396228987561      1.01547720276704     -0.61761970741662
  O   -1.95767679086645      0.57326454274936     -1.61812282502115
  O   -1.43095938981089      2.16862504635621     -0.20355175269212
