14
Coordinates from ORCA-job run
  C   0.98813099653405      0.42047448371765      0.01529412301710
  C   -0.37464121612393      0.20277006197505     -0.61444640669415
  Br  2.30607729832164     -0.37498763672753     -1.29449151549843
  H   -0.45396277116603      0.68552055233701     -1.58612189990824
  H   1.20339266739644      1.48577465447873     -0.04852287466341
  N   1.06164773720946     -0.01415802288051      1.34217757754171
  H   0.93291176562464     -1.01104605961473      1.44283050636540
  H   1.89765104280845      0.30260606839427      1.81124141872142
  N   -1.41028003769225      0.84184859891968      0.28410493246845
  O   -2.21022790063703      0.12059211005907      0.86040838540373
  O   -1.31682106199259      2.06028270122669      0.35177296197889
  N   -0.76406956498077     -1.22660110914728     -0.80792664896237
  O   -1.51332244968144     -1.44178781680160     -1.75493993806748
  O   -0.34648650562062     -2.05228858593650     -0.00238062170261
