14
Coordinates from ORCA-job run
  C   1.04791464018094      0.26918222863192      0.10143353507311
  C   -0.27480237210258      0.26410599543712     -0.65827291238694
  Br  2.48262422189739     -0.23051538945281     -1.11896314396560
  H   -0.18946786595885      0.65728184574547     -1.66907476670769
  H   1.26471749709961      1.31145786500160      0.36083133379619
  N   1.01350239681314     -0.66515438605269      1.19184472799052
  H   0.33430463341783     -0.35113969924059      1.87683284264105
  H   1.92279650751719     -0.72321042608519      1.63199101894936
  N   -1.31654177429762      1.09123182674365      0.04047088858237
  O   -2.27933685838954      1.40866865225581     -0.64816176649978
  O   -1.13807263987639      1.36696905538433      1.22414045774691
  N   -0.83367166292708     -1.12933186407603     -0.75535767394462
  O   -0.39900388633224     -1.79955148466741     -1.68111969505661
  O   -1.63496283704180     -1.46999421962519      0.10440515378173
