14
Coordinates from ORCA-job run
  C   0.94902161632580      0.24242218455781     -0.06264749325571
  C   -0.39859736760549     -0.44363416578642     -0.07613650030344
  Br  2.22005412299178     -1.04699281305955     -0.91793160211639
  H   -0.41552865275968     -1.39997862791697      0.44155945317826
  H   0.92407158717444      1.09657578489775     -0.73608273970793
  N   1.27055613247762      0.63517535379883      1.25062900120123
  H   2.06645677417122      1.25669432883482      1.28088812625877
  H   1.42322004431930     -0.14702916367020      1.87437098190178
  N   -0.91191904437013     -0.68005675214785     -1.46478059063416
  O   -0.62516943141378      0.14633284701559     -2.32266709566420
  O   -1.61817764324548     -1.67596227760550     -1.60085678706822
  N   -1.39623499941378      0.45432089616338      0.60824255874451
  O   -1.60852585782835      1.53636952738075      0.07587981563783
  O   -1.87922728082347      0.02576287753757      1.64953287182767
