14
Coordinates from ORCA-job run
  C   0.96538226315535      0.16766823910243     -0.05395658939959
  C   -0.43218778377264     -0.40902537931954     -0.08694440045844
  Br  2.13451138930002     -1.20099944287205     -0.93176241172806
  H   -0.52753835635162     -1.37170585146234      0.41008653351032
  H   1.01202560650898      1.03458257585063     -0.70971698798741
  N   1.31010313605908      0.50658423492590      1.26820258328799
  H   2.15127674470934      1.06409644199984      1.31476477859888
  H   1.39797673047183     -0.29755022795270      1.87628055155687
  N   -0.95515403125940     -0.57506966349112     -1.48256673690671
  O   -0.59985594821442      0.24427493399969     -2.32126833322330
  O   -1.73587507051798     -1.50994205091436     -1.64251486611327
  N   -1.35905662621026      0.55055928684164      0.61285455538689
  O   -1.48400341672237      1.65638144537772      0.10186764460588
  O   -1.87760463715591      0.14114545791427      1.64467367886996
