14
Coordinates from ORCA-job run
  C   0.96518600819728      0.17865436671016      0.00238554824453
  C   -0.41990368770509     -0.42214058355245     -0.08002066219358
  Br  2.21159611600523     -1.24508078417153     -0.65485961403426
  H   -0.54307840666907     -1.33613917050655      0.49646716557930
  H   1.05308603920941      0.98194862420142     -0.72606529375065
  N   1.20576974329580      0.64320000958850      1.30932928425801
  H   1.25266425287481     -0.10017700640758      1.99440831298948
  H   2.03701425628144      1.21441325867419      1.36700033562814
  N   -0.83501225064886     -0.72557348593087     -1.48861955029819
  O   -1.59704750980197     -1.68054696545395     -1.61685386507480
  O   -0.42294334465206      0.01590815589887     -2.37266260996486
  N   -1.40674932879311      0.58214945027145      0.45537529294736
  O   -1.50176626548306      1.63466180456318     -0.16326653540745
  O   -2.00081562211075      0.25972232611514      1.47738219107696
