14
Coordinates from ORCA-job run
  C   1.04407976171623      0.26562478365891      0.14237473336606
  C   -0.25547829149223      0.28808127094448     -0.65614977058805
  Br  2.51475483601146     -0.18944250516805     -1.05260417736479
  H   -0.14069898332398      0.71864739727657     -1.64864268195028
  H   1.25169034111269      1.29788878676734      0.44570915633966
  N   0.97837526406008     -0.70777550547360      1.19636067782782
  H   1.87477059241794     -0.78468198411661      1.65935492586526
  H   0.28009783087242     -0.41837410998128      1.87287594842686
  N   -1.31870992784475      1.08856635722438      0.04193178310094
  O   -1.17623076996590      1.31873077772096      1.24006803065835
  O   -2.26072611197777      1.43192743574342     -0.66272142507223
  N   -0.80921409916208     -1.10085150241178     -0.82136557940408
  O   -1.63562321100149     -1.47318939079515      0.00063859910023
  O   -0.34608723142260     -1.73615181138960     -1.75783022030575
