14
Coordinates from ORCA-job run
  C   0.95312019228309      0.22792610049757     -0.04692165364038
  C   -0.40134750972060     -0.44426957213777     -0.05707362542729
  Br  2.23630929933806     -1.13375305449102     -0.76178097776299
  H   -0.44756244287686     -1.36024976842102      0.52745360340653
  H   0.96179642054072      1.03038569048468     -0.78159027483172
  N   1.23565933133295      0.71298706623394      1.24398750082383
  H   1.35809968497750     -0.02226320953265      1.92849449027029
  H   2.03682715710588      1.32824190821245      1.25578812107260
  N   -0.86994490546239     -0.77626208617348     -1.44205933605499
  O   -1.58252001780785     -1.77312163497439     -1.52990878951763
  O   -0.54480656070532     -0.01740660838975     -2.34728523138335
  N   -1.41049419048343      0.51073918994232      0.52562231214548
  O   -1.93185448319312      0.16478247724217      1.57904119998601
  O   -1.59328197532863      1.55226350150695     -0.09176733908639
