14
Coordinates from ORCA-job run
  C   0.97040094285751      0.11512424268040     -0.02090412237241
  C   -0.44432041212820     -0.42650672835901     -0.03263236042203
  Br  2.12843472579982     -1.28926546632776     -0.73325221712081
  H   -0.57220125818713     -1.29509924269779      0.60821200740850
  H   1.03821969726569      0.94883531399250     -0.71855179894909
  N   1.29117569817572      0.47188678963763      1.33689734306095
  H   1.49962725679937      1.45820977019624      1.40469295024603
  H   2.06441827959148     -0.06307843076686      1.70382836043421
  N   -0.91264748607091     -0.77912338550093     -1.40965491510141
  O   -0.80431436250056      0.10784804808105     -2.25275405128660
  O   -1.35647224560769     -1.91010519237584     -1.57467199789489
  N   -1.39421747906728      0.63530875484529      0.45461408619536
  O   -2.45356603379688      0.22314098353166      0.91542503617772
  O   -1.05453732313092      1.80582454306343      0.31975167962447
