14
Coordinates from ORCA-job run
  C   1.00800808498717     -0.06723059426989     -0.01066885502322
  C   -0.45527282913289      0.15020970328435     -0.37849576471257
  Br  1.38531998425944     -1.89435658175811      0.52610229546504
  H   -0.57047925391553      1.13477762338469     -0.83740096557498
  H   1.58861461239881      0.06507304447415     -0.92789589462532
  N   1.31407442502818      0.82081176770196      1.08411315171988
  H   2.24784885825057      0.64424741634543      1.43140025780562
  H   1.25647137934085      1.78817490194391      0.78166914322491
  N   -1.33813962327658      0.15423484442405      0.82553604131323
  O   -1.83645556995523      1.24393264672767      1.09980221928318
  O   -1.46502893576490     -0.89431738668949      1.44015585046744
  N   -0.93421217235419     -0.83121465061747     -1.41116115247683
  O   -2.01639352281005     -1.37370117608325     -1.24766853704902
  O   -0.18535543705565     -0.94064155886799     -2.37548778981736
