14
Coordinates from ORCA-job run
  C   0.96822611191814      0.15463211076545     -0.03955927807199
  C   -0.43592024732620     -0.40458468124435     -0.08785310904834
  Br  2.13470149686911     -1.24241333218276     -0.87658128156663
  H   -0.55260093093908     -1.35793431809636      0.42243066267361
  H   1.03778891990766      1.01036193692640     -0.70782925323358
  N   1.29500223318720      0.50922210042349      1.28284587001740
  H   2.14268509926662      1.05618775300007      1.33569917844466
  H   1.36094351012554     -0.28628542968638      1.90485669549445
  N   -0.93676757667917     -0.58682475183631     -1.48959652898688
  O   -0.55623414575243      0.21388717459444     -2.33510052331763
  O   -1.72730966813455     -1.51364258439006     -1.64799501089040
  N   -1.36189115902100      0.57821995416439      0.58001060851659
  O   -1.46175620356378      1.67767665290300      0.05023443399301
  O   -1.90586743985806      0.19149741465898      1.60743753597572
