14
Coordinates from ORCA-job run
  C   1.03984928765846      0.18865920684549     -0.12212052150106
  C   -0.33852264070358     -0.44970422472883     -0.03282425967087
  Br  2.20802315227496     -1.18631935049346     -0.88206272173699
  H   -0.37069035273269     -1.34765828308571      0.58095607405251
  H   1.00215602712446      1.00188435343202     -0.84438717756251
  N   1.56641639305661      0.65907652557267      1.11263226865195
  H   1.50233703005578     -0.01267794667076      1.86521284882559
  H   1.17082695969412      1.55148474680133      1.37347306288455
  N   -0.88788167865860     -0.80842148783990     -1.38316857487873
  O   -1.33659071205857     -1.94238989279424     -1.51035985232117
  O   -0.84276057415483      0.07534675411717     -2.23340511615145
  N   -1.32559842513751      0.52427597593364      0.55346116751746
  O   -2.23204669617637      0.03436765648765      1.22141393610426
  O   -1.15651777024225      1.71407596642293      0.30117886578645
