14
Coordinates from ORCA-job run
  C   0.94699013611388      0.24457193956523     -0.07988504421460
  C   -0.39874102829422     -0.44499802445465     -0.06785210449919
  Br  2.20557404926851     -1.04458873874470     -0.95581785642727
  H   -0.40373640579345     -1.40057377555940      0.45147991728974
  H   0.90875325495843      1.09659715597611     -0.75537851886964
  N   1.29163611927529      0.64136207489659      1.22580237897424
  H   2.08510563363970      1.26642120055491      1.24075756793467
  H   1.45734089970589     -0.13825294601879      1.84938969965506
  N   -0.93644467804870     -0.68503282246624     -1.44685406512036
  O   -1.64367406724203     -1.68219931496724     -1.56784068222908
  O   -0.66662490242685      0.13980507405650     -2.31160292117623
  N   -1.38615448888650      0.45142633044696      0.63274710665826
  O   -1.84727946220854      0.02429848841865      1.68448732075263
  O   -1.61274506006140      1.53116335829606      0.10156720127178
