14
Coordinates from ORCA-job run
  C   0.87804582626002      0.41173229686637      0.48886199555131
  C   -0.55297848424993      0.08134714993583      0.04863319780591
  Br  1.92988328727050      1.05725787112004     -1.02184539394728
  H   -1.17728832364107     -0.06576033721792      0.93192659300474
  H   0.78328302584478      1.27383741960346      1.15140786908359
  N   1.56602466812466     -0.63349375498480      1.17209719138625
  H   1.60459999038083     -1.48650330412840      0.63293924005382
  H   1.20022854058052     -0.79191212117550      2.10115102114156
  N   -0.71915801465626     -1.16138391423426     -0.76996732586463
  O   -1.87846103959837     -1.54780310426617     -0.87645179628357
  O   0.27787742136529     -1.69019132970875     -1.25089971814235
  N   -1.16950132226275      1.22856925652250     -0.70224164246058
  O   -1.33823913524938      2.22867774086592     -0.01326873264365
  O   -1.40531644016885      1.09362613080169     -1.89334249868511
