14
Coordinates from ORCA-job run
  C   1.03489899668132      0.19138705398592     -0.15644901393256
  C   -0.34180543684785     -0.44659742057367     -0.04311958252637
  Br  2.16013553145258     -1.14307056957765     -1.04474542320774
  H   -0.35257054927148     -1.37728421341134      0.52061158350528
  H   0.97028065262829      1.04407967415096     -0.82956549044320
  N   1.61660019201924      0.58890411710707      1.07830195139769
  H   1.24644169386508      1.47112604564778      1.40261735071991
  H   1.57881823562148     -0.12131455994947      1.79631187402112
  N   -0.95240865138972     -0.72650460968621     -1.38552439916701
  O   -1.41845802762166     -1.84800180577868     -1.55444437707633
  O   -0.93534642343835      0.20225326860841     -2.18754539154163
  N   -1.29696782127841      0.49642429435994      0.63954313946254
  O   -1.13233173923839      1.69791149093617      0.44701566299858
  O   -2.17628665318215     -0.02731276581922      1.31799211578973
