14
Coordinates from ORCA-job run
  C   0.96105455737020      0.47104996430866     -0.09002547208438
  C   -0.46680723314770      0.22442529266581     -0.53919334408249
  Br  2.11245213811072     -0.16006523532960     -1.62560352908650
  H   -0.70478824163576      0.76838186285649     -1.45077406502787
  H   1.11765021913274      1.54840011452707     -0.10140049570740
  N   1.24106313143237     -0.04925176155516      1.17738553050766
  H   2.12074967791300      0.27867572072309      1.54866197247335
  H   1.17201619548626     -1.05619950713800      1.21915567184883
  N   -1.39088689248238      0.74278202821320      0.54056613304106
  O   -1.34151230142200      1.95676574832252      0.68772107288597
  O   -2.06938742825416     -0.05878358571767      1.16452328189346
  N   -0.81679179449717     -1.20707661423157     -0.78556019564998
  O   -1.68189974896411     -1.39637288556206     -1.63423115264133
  O   -0.25391227904201     -2.06273114208279     -0.11022540837037
