14
Coordinates from ORCA-job run
  C   0.86028898456149      0.43016978784710      0.32113882146218
  C   -0.59511340898347      0.04649362190458      0.09492014027030
  Br  1.86696851290187      0.28906538317421     -1.40212824944088
  H   -1.06664868096246     -0.16471172347743      1.05531050730388
  H   0.89584847170575      1.49652221328204      0.53737029970750
  N   1.39707411684260     -0.31503228056595      1.39532721627865
  H   1.40124044837036     -1.30830642830369      1.19929231422270
  H   2.33291486204499     -0.00783377278471      1.62445483965702
  N   -0.71782465033199     -1.21338398563929     -0.71977998887044
  O   -1.19675097286826     -1.15193478759421     -1.83984053947962
  O   -0.27150858343649     -2.20685233008512     -0.15397465168794
  N   -1.42254412752894      1.11444331262867     -0.55406001237771
  O   -2.62923978460672      0.89652592962749     -0.53653075196117
  O   -0.85570518770874      2.09583505998630     -1.02049994508445
