14
Coordinates from ORCA-job run
  C   1.02224184008761      0.32882901386522     -0.02495409901160
  C   -0.37383661163494      0.22135573307148     -0.60891992380017
  Br  2.22171932453991     -0.61354605238734     -1.34796331212565
  H   -0.44012018125176      0.68630088304838     -1.59023324968894
  H   1.32903599902336      1.36896786961376     -0.12176772603324
  N   1.09634016940799     -0.07829300010574      1.31122751515494
  H   0.88382238866606     -1.05717102015475      1.44194167290502
  H   1.97115826130170      0.17346990611732      1.74776537513644
  N   -1.31888214895524      0.97282920811774      0.30232803472588
  O   -2.16302367239721      0.34104448243158      0.91915765750932
  O   -1.11318171154262      2.17882220652964      0.33594783422009
  N   -0.89614037953964     -1.17099685587850     -0.75363108970386
  O   -1.69064502153589     -1.33966312613231     -1.67277805351053
  O   -0.52948825616934     -2.01194924813646      0.06087936422229
