14
Coordinates from ORCA-job run
  C   0.98485743341379      0.42849131479891     -0.00358679143619
  C   -0.39255320384458      0.21047469118784     -0.60065962121779
  Br  2.27334865268007     -0.33350100778178     -1.36099709750273
  H   -0.50124076142195      0.70995045140419     -1.56097813887787
  H   1.18920926940290      1.49668850689369     -0.05418566054683
  N   1.09694257606447     -0.02784715889174      1.31332053445566
  H   0.97785635473752     -1.02712938364995      1.40098820466183
  H   1.94276856259917      0.28715735946985      1.76558696707757
  N   -1.40898111463136      0.82483685245400      0.33605436362503
  O   -1.32398638587611      2.04270814781110      0.42239288281100
  O   -2.18719801712962      0.08662847055195      0.92060891327967
  N   -0.77475842726544     -1.21881667088619     -0.80959934763893
  O   -1.54393069336888     -1.42442990538097     -1.74267137222273
  O   -0.33133424535997     -2.05421166798090     -0.02827383646769
