14
Coordinates from ORCA-job run
  C   1.08213358443658     -0.01783441829194     -0.09052494714499
  C   -0.42025377388073      0.17795766828873     -0.32581032503416
  Br  1.49150690904222     -1.90287906762199      0.19896700744011
  H   -0.59901734690773      1.18849405545295     -0.69796343129181
  H   1.55669385562982      0.22803189257792     -1.04207677175667
  N   1.65149081017076      0.78588884193281      0.94039626715404
  H   1.18624221384673      0.66103597459265      1.82798878967171
  H   1.70862595051946      1.76111430638595      0.67998410952992
  N   -1.29920728923166      0.03340172385747      0.87757595691987
  O   -2.44110668003263      0.45481477408625      0.72564570128276
  O   -0.83150163106723     -0.46894098911660      1.89445541665878
  N   -0.92733263496829     -0.74766494345066     -1.39707851136215
  O   -0.46077040132871     -0.51216032302436     -2.50616136652521
  O   -1.69750356622857     -1.64325949566917     -1.08539789554221
