14
Coordinates from ORCA-job run
  C   1.01595541992097     -0.12143819134686     -0.00622417383540
  C   -0.39834067409518      0.22832491781281     -0.43729674318402
  Br  1.10658301393265     -1.99285756143562      0.67700713702280
  H   -0.37216053397933      1.14477940143648     -1.02746382896422
  H   1.60680650741882     -0.16423921950623     -0.92091833448819
  N   1.51759392249392      0.88158518017498      0.85421663278559
  H   1.09828091001638      0.82565628303846      1.77349239791299
  H   2.52351555411256      0.82725244365535      0.93608427919647
  N   -1.36772313299825      0.48356682849683      0.67386058660830
  O   -1.06548901322511      0.13384949353814      1.81060305170226
  O   -2.40441373784111      1.03863801085261      0.32761316328143
  N   -0.96789764989247     -0.83860999957507     -1.33143308274404
  O   -1.91743879533706     -1.49515355136608     -0.93209808585309
  O   -0.37427179052680     -0.95135403577581     -2.39744299944088
