14
Coordinates from ORCA-job run
  C   0.96816847265787      0.15798866733301      0.02879530760216
  C   -0.42691591866526     -0.41201609211994     -0.09623477277628
  Br  2.20044202841336     -1.28054345064189     -0.61796610607903
  H   -0.58418368761036     -1.33051404174540      0.46464937243105
  H   1.08887271242910      0.97029206188088     -0.68490352506849
  N   1.18524565082395      0.59945707063171      1.34843734510543
  H   2.02615810565533      1.15302479278957      1.43317834099076
  H   1.20401383562361     -0.15570218100283      2.02200570529556
  N   -0.81164284917984     -0.68836179246777     -1.51859279078899
  O   -1.58304364828748     -1.63048585397884     -1.68115738701844
  O   -0.36710976466331      0.06067690178327     -2.38039320635772
  N   -1.40558907423398      0.60574867064129      0.42841005503737
  O   -2.03355595507672      0.28150130719330      1.42933645265959
  O   -1.46185990788627      1.66893393970363     -0.17656479103298
