14
Coordinates from ORCA-job run
  C   0.97696808094459      0.41465587929807      0.16590380446130
  C   -0.51964680497421      0.07189795549152      0.09407938113727
  Br  1.78146421550884      0.21955949978825     -1.60295673924782
  H   -0.91115879256418     -0.07813960804265      1.10148984404353
  H   1.04662435406576      1.47826910813704      0.39602264878545
  N   1.72312131913933     -0.33494932292532      1.12294271137161
  H   1.53741417055276     -1.32680878631724      1.05641631801627
  H   1.56263496689268     -0.00325374869658      2.06502470547556
  N   -0.76053170584443     -1.21717853007690     -0.63676242600427
  O   -0.35262876499579     -2.20888800107989     -0.03762948157453
  O   -1.27655492645267     -1.18220237122020     -1.74236792723834
  N   -1.38266430952557      1.13336496221734     -0.52325299064682
  O   -2.58803362490449      0.93875482566960     -0.40782376182666
  O   -0.83700817784263      2.09591813775697     -1.05108608675254
