14
Coordinates from ORCA-job run
  C   1.04725992623817      0.12291617572823     -0.14095223906746
  C   -0.37143137060502     -0.42050084487976     -0.05785424085330
  Br  2.08894155809580     -1.26493549227370     -1.04922867391145
  H   -0.45310206670149     -1.36132971409565      0.48272027218397
  H   1.05098091652407      0.99316951706627     -0.79432803271194
  N   1.64015299197332      0.44975289229972      1.10949590622375
  H   1.32456465822322      1.34626277362791      1.45221189227414
  H   1.54278825530955     -0.27338840739782      1.80892108038827
  N   -0.98325766984920     -0.62567514070577     -1.41338534976009
  O   -0.89342353992258      0.31878775491520     -2.19179402911423
  O   -1.52213343825409     -1.70850068866649     -1.61477053401986
  N   -1.26716576999270      0.57007733780810      0.63770580077119
  O   -2.18714302959282      0.09289079637907      1.29632869929119
  O   -1.01903142144620      1.76147304019470      0.47392944830584
