14
Coordinates from ORCA-job run
  C   0.91726459220764      0.49979364014868      0.29903692383923
  C   -0.53775299403436      0.03827953553768      0.15495550286309
  Br  1.59631313617247      1.17127973031780     -1.40168130185050
  H   -0.96516494672574     -0.12518022621579      1.14605026348625
  H   0.87855702123349      1.37540697523320      0.94939739776022
  N   1.81380734066430     -0.45974776312739      0.85531962191353
  H   1.64415757621332     -0.61669640035227      1.83971989751431
  H   1.82197372596294     -1.32509589787690      0.33455779520419
  N   -0.75101865578324     -1.24365025666833     -0.58931176050436
  O   0.17632216550391     -1.70790111505858     -1.24464189448278
  O   -1.87115031225367     -1.72603696152394     -0.45880821219388
  N   -1.38483211789079      1.10315077201172     -0.48459396106361
  O   -1.83531864475726      0.90470161886382     -1.60267589760096
  O   -1.50215788651301      2.11169634871029      0.20267562511527
