14
Coordinates from ORCA-job run
  C   1.01812814707835      0.33930708848573     -0.04491225815858
  C   -0.38573348503270      0.20971438645308     -0.60527059226429
  Br  2.20592725594208     -0.60888762281037     -1.37583429251598
  H   -0.47188041228384      0.66169916645075     -1.59107932132469
  H   1.31317942106836      1.38083624341619     -0.16097852265819
  N   1.11828249815749     -0.04948742620675      1.29468022999051
  H   1.99779963213093      0.21554553525529      1.71353662468731
  H   0.91634425159099     -1.02827794025176      1.44180708078239
  N   -1.32435806526811      0.96276390721504      0.31132155561876
  O   -1.13063340773749      2.17110147595953      0.32715722996435
  O   -2.15240033048487      0.33021976979695      0.94885368887182
  N   -0.89508819847187     -1.18973551080056     -0.72440942672539
  O   -1.69977162749520     -1.37935995964909     -1.63048374443038
  O   -0.50879567919412     -2.01543911331401      0.09661174816239
