14
Coordinates from ORCA-job run
  C   0.99136086813730     -0.15359171516343      0.11841882947897
  C   -0.39275305623186      0.15125737281905     -0.44300100912353
  Br  1.12755873969516     -1.94374703143482      0.85550394451323
  H   -0.35888922133162      1.09280034661414     -0.99577000563564
  H   1.68256583495204     -0.16171320859206     -0.72895035427776
  N   1.25508580895003      0.81023718876809      1.15957952391548
  H   2.11066382337535      0.57831863453670      1.64722609895559
  H   1.34847341390597      1.74023747876394      0.76347645386207
  N   -1.40364080367058      0.34840639641081      0.63763918951066
  O   -1.69364839014108     -0.61815033521760      1.32684817070740
  O   -1.83156595864601      1.49564770242492      0.74525908248377
  N   -0.84432131985753     -0.88175115855996     -1.43666134841736
  O   -0.00532392970223     -1.14946903287072     -2.28935396962283
  O   -1.98556580943494     -1.31048263849906     -1.35921460635005
