14
Coordinates from ORCA-job run
  C   0.97149109238343      0.13121209887107     -0.04342745599441
  C   -0.44468997291269     -0.39815756835837     -0.07302578709271
  Br  2.10724999045992     -1.32399031463571     -0.82111313014690
  H   -0.58312903066615     -1.32839530144031      0.47320370901708
  H   1.06110416475233      0.95805665135683     -0.74484224550136
  N   1.30417962725430      0.53075386223100      1.26472767668058
  H   2.16453274017744      1.05921100644437      1.29766325873166
  H   1.35070622275660     -0.24083864882924      1.91787123875577
  N   -0.94750095072461     -0.62274001062759     -1.46792305776245
  O   -0.54738392937946      0.13562683285431     -2.34297120529570
  O   -1.75966764866612     -1.53598449146123     -1.59216541207053
  N   -1.34984055089737      0.62963082874569      0.55445641146761
  O   -1.90285617765631      0.29500973303588      1.59529364150230
  O   -1.42519557688133      1.70960532181331     -0.01774764229094
