14
Coordinates from ORCA-job run
  C   0.98939522485095      0.41788964120941      0.01439893375472
  C   -0.38049914178934      0.21744353124365     -0.60601734672682
  Br  2.29180489031651     -0.35082422333311     -1.32486630625221
  H   -0.46902385604675      0.72234395167502     -1.56557805416429
  H   1.20556490034184      1.48413610255173     -0.02693021449008
  N   1.07440132340498     -0.04611265617319      1.33091728737953
  H   1.91557170436634      0.25835583082920      1.79884496001830
  H   0.94481369841663     -1.04472422073815      1.41100851823829
  N   -1.40514059596260      0.83770188400377      0.31778940952286
  O   -2.20093598342495      0.10496987301265      0.88529016113103
  O   -1.30799598733127      2.05406575465053      0.41244970583508
  N   -0.77468585691770     -1.20649689699845     -0.82843732521224
  O   -0.35116298974468     -2.05100836351736     -0.04583832716905
  O   -1.53310733047996     -1.39874020841570     -1.77303140186512
