14
Coordinates from ORCA-job run
  C   1.00670157801193     -0.06991789512481      0.00398907946589
  C   -0.45107294728376      0.14445732646980     -0.38816755838031
  Br  1.37036265719172     -1.88384472799334      0.58806689174349
  H   -0.55535717063599      1.11873523774021     -0.87084062043338
  H   1.59953925676336      0.04073557702953     -0.90823301128290
  N   1.30105175117161      0.84598201657701      1.08055283160140
  H   2.21229815620445      0.64787035078749      1.47300609239929
  H   1.29653079676859      1.80191703768470      0.73884892297420
  N   -1.35231816934330      0.18010128846918      0.80130489841153
  O   -1.47591601829696     -0.84752402705908      1.45098787782678
  O   -1.87084248783089      1.27131430977939      1.02764324095462
  N   -0.91943264664535     -0.85960804422322     -1.40294342917852
  O   -1.99919547931146     -1.40552703894090     -1.23452776363381
  O   -0.16334927676395     -0.98569141119596     -2.35968745246828
