14
Coordinates from ORCA-job run
  C   1.09217733685287      0.36496264865177     -0.03171013229772
  C   -0.34545805986903      0.25562337973711     -0.57572845077413
  Br  2.21635606521888     -0.31533544757645     -1.49084630597044
  H   -0.45410292529758      0.74604428399777     -1.53904398484254
  H   1.30708073853419      1.43510711354406      0.02954684585902
  N   1.46053227191708     -0.25511462753873      1.18904945372777
  H   1.04758458602909      0.23581868783993      1.97134196515509
  H   1.16471781195996     -1.22187856759925      1.21818040861524
  N   -1.33782356995497      0.91965119396713      0.34080480379149
  O   -2.14885709663956      1.66331239690803     -0.20668801570353
  O   -1.26202149212873      0.67926121158130      1.54238308864498
  N   -0.80108588239220     -1.15704640405036     -0.76748993920301
  O   -1.21113752765882     -1.44696352053029     -1.88693049388604
  O   -0.72596225657117     -1.90444234893202      0.20513075688382
