14

C	0.0	0.0	0.0
C	-0.571805	0.405086	-1.371534
Br	1.941585	0.0	0.0
H	0.252465	0.779241	-1.987805
H	-0.300228	0.731356	0.746962
H	-0.311329	-0.996702	0.309148
N	-1.488529	1.525152	-1.16075
H	-2.340357	1.173508	-0.715211
H	-1.787544	1.871067	-2.066072
C	-1.193613	-0.809242	-2.066829
H	-2.058696	-1.15185	-1.494689
H	-0.468594	-1.624399	-2.17499
H	-1.549765	-0.533121	-3.063572
Br	-4.421808	0.0	0.0
