14

C	0.0	0.0	0.0
C	-0.519596	0.648817	-1.292339
Br	1.950321	0.0	0.0
H	0.183541	0.389616	-2.091905
H	-0.334327	0.537852	0.886384
H	-0.290256	-1.047947	0.078151
N	-0.580105	2.107297	-1.233558
H	-1.362108	2.374299	-0.643823
H	0.268714	2.476469	-0.819421
C	-1.886893	0.089275	-1.654529
H	-2.636615	0.197892	-0.865174
H	-2.269248	0.619567	-2.528974
H	-1.816543	-0.973551	-1.89894
Br	-5.181691	0.0	0.0
