14

C	0.0	0.0	0.0
C	-0.585962	-0.168635	-1.38419
Br	1.955159	0.0	0.0
H	-1.663794	-0.228992	-1.180124
H	-0.293974	-0.840919	0.623579
H	-0.316867	0.934585	0.459785
N	-0.167412	-1.452865	-1.948526
H	0.742927	-1.351847	-2.385537
H	-0.828603	-1.717492	-2.668911
C	-0.332348	1.031434	-2.290507
H	-0.714537	1.950698	-1.837159
H	-0.851953	0.88969	-3.2426
H	0.736644	1.156697	-2.494198
Br	-3.924261	0.0	0.0
