14

C	0.0	0.0	0.0
C	-0.563019	-0.14991	-1.409274
Br	1.951614	0.0	0.0
H	-1.645869	-0.086476	-1.246937
H	-0.313637	-0.82911	0.632539
H	-0.313922	0.937731	0.45699
N	-0.290059	-1.441626	-2.036269
H	0.692106	-1.674126	-1.922031
H	-0.836447	-2.152095	-1.561696
C	-0.142024	0.975252	-2.340802
H	-0.714849	0.895719	-3.266086
H	-0.339565	1.951614	-1.889293
H	0.921935	0.915823	-2.588004
Br	-3.84624	0.0	0.0
