16

C	-0.159442	0.084419	-1.504119
C	0.0	0.0	0.0
Cl	-1.853189	0.598244	-2.020072
H	1.09569	0.0	0.0
H	-0.07697	-0.914348	-1.93065
N	0.811938	1.035726	-1.965778
H	0.969091	0.9143	-2.958208
H	1.679407	0.824342	-1.442237
N	-0.48879	-1.284019	0.535092
O	-0.39366	-2.295918	-0.163707
O	-0.921734	-1.299414	1.69076
C	-0.522118	1.183855	0.773762
H	-1.61105	1.175272	0.859274
H	-0.211705	2.082536	0.238288
H	-0.086458	1.19916	1.77257
F	2.610941	0.0	0.0
