16

C	-0.381297	0.000588	-1.450843
C	0.0	0.0	0.0
Cl	-2.261776	-0.406336	-1.631388
H	1.093697	0.0	0.0
H	0.071163	-0.84569	-1.95784
N	-0.083169	1.208149	-2.096753
H	-0.5834	1.985576	-1.690122
H	-0.279474	1.156908	-3.085628
N	-0.38466	-1.291925	0.595167
O	-0.145801	-2.307655	-0.061443
O	-0.872059	-1.309341	1.731832
C	-0.5044	1.171564	0.80318
H	-0.025942	2.075272	0.418735
H	-0.188173	1.059427	1.838495
H	-1.594056	1.276997	0.778835
F	2.524363	0.0	0.0
