16

C	-0.15657	-0.337924	-1.490618
C	0.0	0.0	0.0
Cl	-1.25521	1.206157	-2.43652
H	1.091711	0.0	0.0
H	-0.908276	-1.071303	-1.760821
N	1.061772	-0.492121	-2.030992
H	1.897916	-0.245746	-1.439984
H	1.156738	-0.853003	-2.962976
N	-0.449485	-1.179889	0.779665
O	-0.927488	-0.99966	1.902041
O	-0.278658	-2.295759	0.282013
C	-0.555356	1.289764	0.539319
H	-1.644081	1.336739	0.474195
H	-0.245956	1.40485	1.577643
H	-0.137883	2.105099	-0.047185
F	2.673192	0.0	0.0
