14

C	-0.004145	0.000152	0.014576
C	-0.612482	-0.097367	-1.379503
Cl	1.827416	0.015583	-0.061213
H	-1.752183	-0.082274	-1.093325
H	-0.343425	0.775203	-1.980257
C	-0.382885	1.28929	0.60291
N	-0.595488	2.335113	1.09321
C	-0.462694	-1.143641	0.903581
H	-0.115227	-2.090244	0.484048
H	-0.06905	-1.029436	1.915355
H	-1.556707	-1.077367	0.876851
C	-0.228857	-1.313166	-2.065713
N	0.050985	-2.30414	-2.634395
F	-2.877479	-0.016339	-0.149663
