14

C	-0.00466	-0.000981	0.015609
C	-0.617062	-0.189245	-1.36714
Cl	1.827004	0.007429	-0.0648
H	-1.756539	-0.154236	-1.078176
H	-0.349469	0.64184	-2.024678
C	-0.380209	1.324214	0.52
N	-0.590158	2.396647	0.950307
C	-0.462378	-1.083159	0.97906
H	-1.556414	-1.017372	0.94923
H	-0.067809	-0.902941	1.980773
H	-0.116883	-2.055859	0.622343
C	-0.236551	-1.447749	-1.973149
N	0.041435	-2.47431	-2.475815
F	-2.879499	-0.025167	-0.141674
