17

C	0.0	0.0	0.0
C	-0.279958	0.107592	-1.537653
F	1.423123	0.0	0.0
H	0.523959	0.766714	-1.886767
C	-0.439377	1.26515	0.710417
H	-0.067569	1.241553	1.740318
H	-1.532221	1.247946	0.700273
H	-0.045869	2.162189	0.221365
N	-0.545571	-1.199243	0.540964
H	-1.564971	-1.052353	0.396727
H	-0.399236	-1.186739	1.5469
N	-1.544743	0.636629	-2.018419
H	-1.498238	1.643571	-1.910595
H	-2.288215	0.322329	-1.35215
C	-0.002533	-1.19802	-2.170985
N	0.274234	-2.205531	-2.705705
F	-3.019677	0.0	0.0
