17

C	0.0	0.0	0.0
C	-0.311416	0.160766	-1.520961
F	1.413193	0.0	0.0
H	0.575768	0.673767	-1.91036
C	-0.419802	1.233048	0.778706
H	-1.510073	1.229618	0.803391
H	-0.047548	2.148107	0.313285
H	-0.009279	1.151095	1.791843
N	-0.540479	-1.221577	0.501329
H	-1.560228	-1.07347	0.36041
H	-0.394882	-1.233547	1.507528
N	-1.480006	0.972723	-1.813482
H	-2.264039	0.615143	-1.216471
H	-1.711672	0.862758	-2.794105
C	-0.309963	-1.165666	-2.187785
N	-0.319594	-2.142815	-2.841243
F	-3.009721	0.0	0.0
