17

C	0.0	0.0	0.0
C	-0.290734	0.011016	-1.539954
F	1.414701	0.0	0.0
H	0.528205	0.622046	-1.937814
C	-0.435322	1.308493	0.632945
H	-0.043538	2.171759	0.085062
H	-1.527684	1.29558	0.632569
H	-0.053854	1.34989	1.658903
N	-0.546675	-1.162701	0.618394
H	-1.566722	-1.022313	0.470799
H	-0.393679	-1.086282	1.620832
N	-1.543069	0.543643	-2.046132
H	-2.290552	0.275744	-1.364876
H	-1.472834	1.553502	-1.991086
C	-0.058626	-1.340296	-2.089035
N	0.174271	-2.378986	-2.583815
F	-3.018132	0.0	0.0
