17

C	0.0	0.0	0.0
C	-0.305064	0.111497	-1.525766
F	1.413182	0.0	0.0
H	0.576752	0.6272	-1.923474
C	-0.423825	1.25706	0.736282
H	-0.017802	1.209656	1.753802
H	-0.049292	2.15673	0.243763
H	-1.514109	1.253695	0.756328
N	-0.543005	-1.204702	0.537626
H	-1.562249	-1.061056	0.387628
H	-0.407757	-1.181124	1.544677
N	-1.484138	0.891156	-1.851989
H	-1.711405	0.745523	-2.828334
H	-2.266857	0.552708	-1.241698
C	-0.265359	-1.236521	-2.151665
N	-0.241407	-2.225371	-2.788184
F	-3.016092	0.0	0.0
