15

C	-0.651478	-0.053321	-1.357509
C	0.0	0.0	0.0
F	-0.413192	1.128271	-2.005306
H	1.086729	0.0	0.0
H	-1.727722	-0.22713	-1.326036
N	-0.085932	-1.140122	-2.242759
O	0.835	-1.833207	-1.837993
O	-0.628589	-1.211456	-3.346343
N	-0.504914	-1.100377	0.838432
O	-1.085499	-2.035219	0.27844
O	-0.285475	-1.024627	2.044107
N	-0.513549	1.254297	0.644646
O	0.292646	2.127931	0.939014
O	-1.737121	1.317624	0.817256
F	2.448177	0.0	0.0
