15

C	-0.644019	-0.030519	-1.361269
C	0.0	0.0	0.0
F	-0.352283	1.137568	-2.007646
H	1.086592	0.0	0.0
H	-1.72498	-0.158567	-1.337116
N	-0.122859	-1.13815	-2.244326
O	-0.732114	-1.24722	-3.309932
O	0.838637	-1.800971	-1.882789
N	-0.519099	-1.103822	0.821213
O	-1.05863	-2.049161	0.236817
O	-0.351407	-1.026165	2.034341
N	-0.509607	1.251931	0.653572
O	-1.736441	1.342769	0.774459
O	0.301279	2.097104	1.006375
F	2.445741	0.0	0.0
