15

C	-0.466206	-0.006324	-1.422884
C	0.0	0.0	0.0
F	-1.823447	0.017309	-1.587159
H	1.09161	0.0	0.0
H	-0.048617	-0.862589	-1.943263
N	0.069174	1.217119	-2.121512
O	-0.447189	2.288906	-1.818301
O	0.946261	1.038133	-2.960294
N	-0.419223	-1.243676	0.674888
O	-0.540131	-1.21356	1.895559
O	-0.520801	-2.254339	-0.022627
N	-0.554699	1.149895	0.765747
O	-1.766056	1.150762	0.987749
O	0.235362	2.02502	1.107493
F	2.440393	0.0	0.0
