15

C	-0.643379	-0.034299	-1.362493
C	0.0	0.0	0.0
F	-0.355032	1.134797	-2.009301
H	1.086616	0.0	0.0
H	-1.724308	-0.165238	-1.337796
N	-0.1205	-1.140404	-2.247373
O	-0.727094	-1.248207	-3.314142
O	0.840182	-1.80403	-1.885121
N	-0.518728	-1.103847	0.822454
O	-1.062896	-2.046802	0.239962
O	-0.346249	-1.027847	2.03436
N	-0.509106	1.253023	0.652165
O	-1.735808	1.346258	0.769446
O	0.302378	2.096312	1.007382
F	2.44694	0.0	0.0
