15

C	-0.599195	0.333867	-1.34786
C	0.0	0.0	0.0
F	0.183896	1.221633	-2.015528
H	1.105962	0.0	0.0
H	-1.619857	0.709148	-1.315124
N	-0.651541	-0.899774	-2.219102
O	-1.667776	-1.049315	-2.894913
O	0.342861	-1.617018	-2.236207
N	-0.540371	-1.296226	0.484196
O	0.190952	-2.029645	1.135272
O	-1.724772	-1.533181	0.206181
N	-0.437948	1.012829	0.980134
O	-0.529489	0.678231	2.158487
O	-0.616159	2.1543	0.550754
F	2.431178	0.0	0.0
