15

C	-0.524158	0.305963	-1.387353
C	0.0	0.0	0.0
F	0.26509	1.205739	-2.014216
H	1.10577	0.0	0.0
H	-1.560152	0.641837	-1.408744
N	-0.493179	-0.962961	-2.214205
O	-1.584923	-1.497178	-2.427576
O	0.597861	-1.344785	-2.618656
N	-0.607214	-1.275709	0.465805
O	-1.827267	-1.267828	0.656274
O	0.126183	-2.250968	0.597057
N	-0.445626	1.044342	0.939489
O	-0.676903	2.160723	0.470947
O	-0.471202	0.754708	2.132204
F	2.434128	0.0	0.0
