15

C	-0.633021	-0.009184	-1.365046
C	0.0	0.0	0.0
F	-0.242125	1.117409	-2.034035
H	1.086503	0.0	0.0
H	-1.720053	-0.055053	-1.355136
N	-0.184167	-1.178944	-2.204895
O	-0.877398	-1.374464	-3.205271
O	0.822283	-1.794042	-1.886056
N	-0.517923	-1.125586	0.795433
O	-1.171443	-1.997578	0.211544
O	-0.24389	-1.131065	1.992085
N	-0.517351	1.228571	0.690946
O	-1.74684	1.32851	0.777
O	0.289177	2.049717	1.104565
F	2.446285	0.0	0.0
