15

C	-0.479269	-0.149592	-1.415351
C	0.0	0.0	0.0
F	-1.780097	-0.537892	-1.529193
H	1.098751	0.0	0.0
H	0.156468	-0.882225	-1.913557
N	-0.310525	1.138673	-2.192737
O	0.694828	1.791332	-1.95046
O	-1.15128	1.379485	-3.049559
N	-0.4032	-1.223936	0.732312
O	-0.125375	-2.279289	0.164137
O	-0.939345	-1.132236	1.83222
N	-0.546351	1.184426	0.683853
O	-0.039139	1.48275	1.760832
O	-1.457771	1.807826	0.127886
F	2.434378	0.0	0.0
