15

C	-0.374956	0.145275	-1.447691
C	0.0	0.0	0.0
F	0.139644	-0.879606	-2.16156
H	1.106398	0.0	0.0
H	-0.007815	1.096903	-1.827481
N	-1.88455	0.144959	-1.703513
O	-2.31165	-0.56833	-2.605146
O	-2.54382	0.900321	-1.000981
N	-0.595493	-1.235652	0.557355
O	-1.753513	-1.19344	0.976369
O	0.100168	-2.247699	0.494591
N	-0.348385	1.182606	0.801748
O	-0.27903	2.271109	0.229837
O	-0.531488	1.027181	2.005881
F	2.437209	0.0	0.0
