15

C	-0.4111	0.041579	-1.441184
C	0.0	0.0	0.0
F	0.167172	-0.955842	-2.144364
H	1.105583	0.0	0.0
H	-0.121927	1.004551	-1.86112
N	-1.915797	-0.057122	-1.656357
O	-2.323372	-0.708372	-2.606609
O	-2.597864	0.601336	-0.877864
N	-0.478024	-1.204233	0.695479
O	-1.244696	-1.95676	0.083217
O	-0.032727	-1.412689	1.819345
N	-0.422071	1.228269	0.70336
O	-0.141243	2.276718	0.123215
O	-0.971281	1.151164	1.796038
F	2.427447	0.0	0.0
