15

C	-0.265975	-0.059229	-1.470567
C	0.0	0.0	0.0
F	-1.576213	-0.127225	-1.865061
H	1.106717	0.0	0.0
H	0.262456	-0.925923	-1.861319
N	0.338717	1.126622	-2.188307
O	0.716785	2.09734	-1.54534
O	0.388176	1.002553	-3.411152
N	-0.470264	-1.253414	0.619449
O	-0.128935	-2.290936	0.050933
O	-1.130491	-1.201749	1.654983
N	-0.579972	1.147621	0.715023
O	-0.090938	1.408914	1.810305
O	-1.505132	1.763594	0.181258
F	2.433833	0.0	0.0
