15

C	-0.518563	-0.199875	-1.39567
C	0.0	0.0	0.0
F	-1.838157	-0.537504	-1.446098
H	1.092118	0.0	0.0
H	0.06921	-0.987234	-1.867652
N	-0.318559	1.031816	-2.252528
O	0.76869	1.581356	-2.150218
O	-1.221308	1.32735	-3.024181
N	-0.410924	-1.196013	0.778781
O	-0.997089	-1.066829	1.848584
O	-0.100211	-2.270038	0.265248
N	-0.510776	1.218924	0.649654
O	-0.044414	1.492296	1.750943
O	-1.337395	1.902791	0.035511
F	2.433051	0.0	0.0
