15

C	-0.667886	0.156192	-1.341657
C	0.0	0.0	0.0
F	-0.32866	1.380511	-1.852533
H	1.099489	0.0	0.0
H	-1.752719	0.07694	-1.305041
N	-0.225381	-0.856838	-2.365914
O	0.923816	-1.270684	-2.328557
O	-1.074379	-1.125187	-3.218471
N	-0.492867	-1.216778	0.657278
O	-0.404107	-1.281345	1.880813
O	-0.912239	-2.119842	-0.074656
N	-0.503748	1.14077	0.834841
O	-1.731605	1.263408	0.911081
O	0.314355	1.871651	1.376749
F	2.439727	0.0	0.0
