15

C	-0.586157	0.074639	-1.380537
C	0.0	0.0	0.0
F	-1.94813	0.167022	-1.387399
H	1.106067	0.0	0.0
H	-0.28819	-0.824066	-1.91637
N	-0.021855	1.206817	-2.210219
O	-0.749763	2.142966	-2.512091
O	1.139671	1.032586	-2.558318
N	-0.458249	-1.303332	0.560163
O	-0.046032	-2.285186	-0.055797
O	-1.201805	-1.347546	1.535823
N	-0.402035	1.11525	0.877592
O	-0.156856	1.002557	2.074178
O	-0.854209	2.127641	0.335195
F	2.424105	0.0	0.0
