15

C	-0.455946	0.101094	-1.422797
C	0.0	0.0	0.0
F	-1.810174	0.062898	-1.596489
H	1.10483	0.0	0.0
H	0.015002	-0.675465	-2.017584
N	0.017804	1.416284	-1.993246
O	-0.645185	2.408132	-1.706948
O	1.009526	1.377875	-2.713058
N	-0.404075	-1.295139	0.574401
O	-0.527715	-2.242594	-0.205275
O	-0.482644	-1.372172	1.796626
N	-0.580877	1.089132	0.831228
O	-1.776718	1.010938	1.117817
O	0.171131	2.010018	1.143995
F	2.438486	0.0	0.0
