15

C	-0.622123	0.091524	-1.368471
C	0.0	0.0	0.0
F	-0.177953	1.234685	-1.972147
H	1.105318	0.0	0.0
H	-1.709027	0.083511	-1.382263
N	-0.197824	-1.034379	-2.279629
O	-0.933616	-1.198701	-3.253661
O	0.840006	-1.637883	-2.045806
N	-0.519079	-1.174702	0.716719
O	-1.130469	-2.016861	0.046591
O	-0.296895	-1.263155	1.921438
N	-0.448103	1.189116	0.789814
O	-1.519058	1.718001	0.467614
O	0.266056	1.553458	1.715619
F	2.431438	0.0	0.0
