13

C	0.0	0.0	0.0
C	-0.177406	0.043834	-1.543445
F	1.408377	0.0	0.0
H	0.486817	0.842649	-1.881163
H	0.280981	-0.892718	-1.880215
C	-0.357819	1.27725	0.649145
N	-0.479486	2.329542	1.15446
N	-0.525019	-1.132433	0.649979
H	-1.046104	-1.693397	-0.012175
H	-1.219206	-0.850333	1.331869
C	-1.433753	0.215753	-2.273944
N	-2.176384	0.378652	-3.169833
Br	-3.572235	0.0	0.0
