13

C	0.0	0.0	0.0
C	-0.436994	0.32714	-1.424488
F	1.37674	0.0	0.0
H	-1.532271	0.349838	-1.469801
H	-0.060135	-0.495057	-2.040563
C	-0.371605	1.080452	0.956603
N	-0.602848	1.944897	1.717304
N	-0.440221	-1.310035	0.350034
H	-1.465345	-1.303606	0.343558
H	-0.125218	-1.517006	1.291872
C	0.152165	1.578854	-1.889151
N	0.643453	2.573371	-2.272096
Br	-3.577367	0.0	0.0
