13

C	0.0	0.0	0.0
C	-0.450373	-0.238067	-1.452008
F	1.384187	0.0	0.0
H	-0.057747	0.549577	-2.101037
H	-1.549062	-0.203788	-1.449527
C	-0.392582	1.372845	0.399195
N	-0.569265	2.494175	0.696506
N	-0.467098	-0.935968	0.9669
H	-1.481757	-0.808678	1.037631
H	-0.293569	-1.87537	0.621354
C	0.027632	-1.53514	-1.915817
N	0.445601	-2.578808	-2.254621
Br	-3.64112	0.0	0.0
