16
Coordinates from ORCA-job run
  C   0.89404619230813     -0.43353555742864     -0.54576422590089
  C   -0.62352175689292     -0.23721000799905     -0.54682512105685
  H   1.27649076444995     -0.09877727458568     -1.51389554781566
  H   -1.03220864455551     -0.65275932352023     -1.47136346973927
  H   1.08035235910209     -1.51099706275600     -0.48394445817146
  C   1.62322668235846      0.29442380484370      0.57947445372813
  H   1.28102212598475     -0.02431324712166      1.56543017231840
  H   2.69452010718588      0.09125941751884      0.51994330656017
  H   1.48965555376498      1.37591929734966      0.50952980453569
  N   -0.87066257918348      1.24207546378757     -0.67836759021538
  O   -1.22513349301541      1.86826912767129      0.31859848856157
  O   -0.64068285504092      1.73423630703540     -1.78126434737073
  C   -1.34744577693587     -0.79926373001476      0.65868815648727
  H   -1.18561286924728     -1.87937616213285      0.69532974973168
  H   -2.42058045022250     -0.61525996128145      0.58724811564992
  H   -0.99346536006036     -0.35569109136614      1.58718251269740
