16
Coordinates from ORCA-job run
  C   0.84125055529007      0.57537476262869     -0.01822538624084
  C   -0.47310318495972     -0.04614033672928     -0.48038778165339
  H   0.62285834089380      1.28424667709934      0.78599759347269
  H   -0.30260964291532     -0.69709582399998     -1.34052653928411
  H   1.25922317872927      1.14978306760007     -0.85197929702676
  C   1.85028615925470     -0.47146294812574      0.44335443783997
  H   1.51709966067168     -0.98604453724362      1.34624791361845
  H   2.80915682202799     -0.00072191480930      0.66952992975693
  H   2.02378826912770     -1.22161872901225     -0.33289265614736
  N   -1.32632803754595      1.06276446642864     -1.02349629639905
  O   -1.49165516404496      1.11043161587860     -2.24142765215899
  O   -1.77991224905851      1.86588685535924     -0.21054560611364
  C   -1.24279976157875     -0.76769720051663      0.61047396008862
  H   -2.22390855731358     -1.08207241906877      0.24793297948220
  H   -0.69920099351546     -1.66035475661550      0.92301275315540
  H   -1.38414539506296     -0.11527877887350      1.47293164760988
