16
Coordinates from ORCA-job run
  C   0.88626076366799     -0.43940447499779     -0.55302779202305
  C   -0.63019868722052     -0.23457913408209     -0.54044302669784
  H   1.26164089308746     -0.11277366635172     -1.52663564800251
  H   -1.04948701236567     -0.64649500138022     -1.46185387169133
  H   1.06679470048482     -1.51753512102790     -0.48591272711209
  C   1.63054382585714      0.29136298090865      0.56056417249406
  H   1.29446550941748     -0.01724515421036      1.55182313009254
  H   1.50485466543579      1.37328318003238      0.48342492096108
  H   2.69968598772821      0.07940461544553      0.49344023422606
  N   -0.86970428221572      1.24636545045837     -0.66634009427952
  O   -1.21203629230312      1.87154992068382      0.33540820554547
  O   -0.64514867935427      1.74008177502376     -1.76960908955278
  C   -1.34646742493303     -0.79565582288299      0.67013010281867
  H   -0.97460631139957     -0.36470167124693      1.59764299289353
  H   -2.41778999185600     -0.59654282607101      0.61443934383324
  H   -1.19880766403099     -1.87811505030149      0.69594914649447
