13

C	0.0	0.0	0.0
C	-0.451592	-0.011217	-1.455099
Br	1.939328	0.0	0.0
H	-0.164049	0.94697	-1.898566
H	-1.54289	-0.088599	-1.381256
H	-0.003425	-0.824887	-2.022926
N	-0.590322	0.97587	0.820189
H	-1.630447	0.708714	0.674228
H	-0.44634	1.869307	0.364364
N	-0.351159	-1.38144	0.61295
O	-0.753887	-1.413034	1.764245
O	-0.161467	-2.362709	-0.101436
F	-2.811243	0.0	0.0
