13

C	0.0	0.0	0.0
C	-0.460227	-0.496299	-1.353394
Br	1.954089	0.0	0.0
H	-0.033744	-1.469784	-1.579291
H	-0.142055	0.235361	-2.097659
H	-1.553005	-0.529845	-1.276103
N	-0.597439	1.197921	0.348929
H	-0.398685	1.404348	1.321876
H	-1.645065	0.922141	0.241308
N	-0.292688	-1.127956	1.068896
O	-0.303501	-2.297727	0.706347
O	-0.457808	-0.747987	2.223028
F	-2.818542	0.0	0.0
