13

C	0.0	0.0	0.0
C	-0.460815	-0.533799	-1.339219
Br	1.953546	0.0	0.0
H	-1.550623	-0.596329	-1.250082
H	-0.176672	0.197608	-2.097672
H	-0.006822	-1.496289	-1.55943
N	-0.606613	1.19778	0.324114
H	-1.656061	0.912137	0.215369
H	-0.41406	1.421173	1.294816
N	-0.282503	-1.110218	1.096278
O	-0.445895	-0.706375	2.242415
O	-0.284911	-2.287104	0.758626
F	-2.824988	0.0	0.0
