13

C	0.0	0.0	0.0
C	-0.439836	-0.063757	-1.456312
Br	1.939207	0.0	0.0
H	-0.139661	0.874768	-1.931814
H	0.008229	-0.899852	-1.989984
H	-1.531696	-0.134351	-1.394134
N	-0.57638	1.019325	0.779838
H	-1.617803	0.767792	0.634855
H	-0.39287	1.896636	0.302076
N	-0.361543	-1.345483	0.67659
O	-0.578898	-1.340955	1.877704
O	-0.339466	-2.34374	-0.037329
F	-2.786407	0.0	0.0
