16

C	0.0	0.0	0.0
C	-0.552923	0.025681	-1.420614
F	1.401022	0.0	0.0
H	-0.280737	-0.8943	-1.949321
H	-1.656365	0.052617	-1.241094
C	-0.465976	1.226278	0.759219
H	-0.083638	2.135453	0.286339
H	-0.092055	1.185009	1.78657
H	-1.561541	1.187013	0.735053
C	-0.476564	-1.269305	0.67485
H	-0.104208	-1.302697	1.703873
H	-1.571303	-1.220534	0.648677
H	-0.097711	-2.14854	0.141285
C	-0.076518	1.162094	-2.197282
N	0.331069	2.06863	-2.823824
F	-2.980524	0.0	0.0
