19

C	-0.504867	-0.089838	-1.443262
C	0.0	0.0	0.0
Cl	0.102248	-1.597142	-2.160765
H	1.104203	0.0	0.0
C	-1.99347	0.011985	-1.725858
H	-2.490879	-0.878239	-1.352212
H	-2.147032	0.08944	-2.805129
H	-2.415809	0.891724	-1.243913
N	0.165152	1.091077	-2.173965
O	1.178724	0.911672	-2.82686
O	-0.404178	2.17247	-2.008445
N	-0.473478	-1.202226	0.754206
O	-1.689533	-1.433778	0.763251
O	0.354766	-1.860377	1.373452
C	-0.446491	1.217439	0.788605
H	-1.531386	1.337927	0.826506
H	0.01299	2.110961	0.368074
H	-0.058682	1.102929	1.804572
H	2.751137	0.0	0.0
