19

C	-0.410004	0.052486	-1.461248
C	0.0	0.0	0.0
Cl	-2.165546	0.438013	-1.668633
H	1.091343	0.0	0.0
C	0.429675	1.080801	-2.190997
H	0.117171	2.083495	-1.901562
H	0.308479	0.974576	-3.269704
H	1.474691	0.922589	-1.900595
N	-0.171784	-1.301662	-2.153315
O	0.976536	-1.487032	-2.536521
O	-1.105665	-2.082034	-2.273987
N	-0.451722	-1.216427	0.68553
O	-0.028507	-2.291301	0.245581
O	-1.14558	-1.112377	1.707899
C	-0.388491	1.237578	0.780008
H	0.050126	2.115236	0.302303
H	-1.46658	1.36207	0.878512
H	0.053168	1.156748	1.774585
H	2.591831	0.0	0.0
