19

C	-0.381663	0.086583	-1.474991
C	0.0	0.0	0.0
Cl	0.068657	1.705648	-2.084336
H	1.09781	0.0	0.0
C	0.287713	-0.933786	-2.365235
H	1.360036	-0.85549	-2.1658
H	0.072139	-0.705158	-3.411199
H	-0.044913	-1.937309	-2.127798
N	-1.911428	-0.020113	-1.584446
O	-2.595741	0.974437	-1.362111
O	-2.355388	-1.14829	-1.802824
N	-0.389767	-1.317731	0.539903
O	0.177469	-2.31674	0.081
O	-1.196815	-1.361433	1.482625
C	-0.502123	1.106263	0.898672
H	-0.07504	2.051676	0.568422
H	-0.138524	0.908425	1.907191
H	-1.588799	1.183216	0.928145
H	2.579819	0.0	0.0
