19

C	-0.535294	-0.03725	-1.430196
C	0.0	0.0	0.0
Cl	0.498501	-0.98004	-2.542485
H	1.103332	0.0	0.0
C	-1.965961	-0.519421	-1.576545
H	-2.309836	-0.366351	-2.601156
H	-1.987373	-1.579855	-1.337689
H	-2.618045	0.02915	-0.896093
N	-0.464551	1.416069	-1.930488
O	0.620228	1.861447	-2.276624
O	-1.511122	2.062839	-1.877443
N	-0.354184	-1.186098	0.719189
O	-0.429787	-1.120672	1.96626
O	-0.371315	-2.273311	0.098816
C	-0.322826	1.255519	0.785762
H	-1.3943	1.424077	0.925273
H	0.152657	1.152398	1.759481
H	0.127718	2.119703	0.295219
H	2.387528	0.0	0.0
