12

C	-0.283126	0.09605	-1.492373
C	0.0	0.0	0.0
Cl	-0.21505	-1.666297	-2.189718
H	1.091955	0.0	0.0
H	-0.355324	0.909371	0.491173
H	-0.435654	-0.88651	0.454598
C	-1.648104	0.513642	-1.8433
N	-2.734488	0.874873	-2.110042
N	0.674151	0.948567	-2.060771
H	1.601825	0.748686	-1.662224
H	0.679922	0.927344	-3.070637
H	2.967321	0.0	0.0
