12

C	-0.326531	0.076114	-1.489531
C	0.0	0.0	0.0
Cl	-0.248056	-1.601941	-2.180684
H	1.091915	0.0	0.0
H	-0.43775	-0.865156	0.497621
H	-0.338762	0.923715	0.481746
C	-1.693886	0.555468	-1.752251
N	-2.783017	0.971325	-1.897041
N	0.621324	0.892886	-2.222978
H	1.548585	0.645574	-1.851665
H	0.46143	1.859678	-1.952377
H	2.979985	0.0	0.0
