14
Coordinates from ORCA-job run
  C   0.82364029842731     -0.16011079486789     -0.30238943211404
  C   -0.31862806657990      0.09573214969508      0.39307069709175
  N   0.81715684957030     -0.25041530847569     -1.68383096649791
  H   -0.04530340368934     -0.55783266150025     -2.10568494413214
  H   1.63908849084364     -0.66709430696495     -2.09178377913112
  C   2.13716022118827     -0.24157102058738      0.27128845321397
  N   3.27356217575361     -0.32177994179405      0.56697986556213
  C   -1.63021766521548      0.27432201476504     -0.29519331383487
  H   -1.53246753102104      0.97553104857315     -1.12975814173157
  H   -2.00597793448141     -0.67766778188423     -0.68770328128827
  H   -2.36644749918635      0.66748744378173      0.40126525195833
  N   -0.27099431717688      0.24796219304151      1.84215626669577
  O   -1.24226511327167      0.78201819904360      2.38037410544570
  O   0.72069349483893     -0.16758123282567      2.44020921876228
