14
Coordinates from ORCA-job run
  C   0.86247976979947     -0.05475103859116     -0.22106110688491
  C   -0.36660892975974     -0.01019731924710      0.36376732168022
  N   1.02531761606221      0.22952361246098     -1.56618726947017
  H   0.23587968124064      0.03260850532527     -2.16140600476921
  H   1.90992565202539     -0.04880983300364     -1.96067631528770
  C   2.10203145851085     -0.27598962128492      0.46905243566122
  N   3.20174173646390     -0.42608886293877      0.86062513596017
  C   -1.59141456850499      0.32441100480556     -0.41973293528573
  H   -2.42134843428485      0.52351401187878      0.25335386000393
  H   -1.88179842256696     -0.50119615397838     -1.07972684534426
  H   -1.41885891700250      1.21301502002689     -1.03455417053389
  N   -0.50950746617871     -0.26763298651619      1.79214323759187
  O   0.45740097639359     -0.71767124401097      2.40495376704943
  O   -1.60524080383619     -0.01973523458831      2.29844888096791
