14
Coordinates from ORCA-job run
  C   0.82672565392128     -0.13143150797548     -0.38372681294271
  C   -0.36583779827676      0.07515543630960      0.26545147158279
  N   2.07660194603893      0.29562624198696     -0.04287243137424
  H   2.12494312437387      1.01710437796407      0.65992928029685
  H   2.77754200590147      0.28344002937829     -0.76490158264567
  C   0.79932537318625     -0.98926802574339     -1.53988404069976
  N   0.81518724026524     -1.67317044141837     -2.49733525109926
  C   -1.68120420558591     -0.50655146276850     -0.13984591083501
  H   -2.38713567846484      0.28575194237352     -0.39685597903964
  H   -2.11724694329326     -1.07047652281728      0.68737048865225
  H   -1.56607748839119     -1.17008773852166     -0.99598441748650
  N   -0.41642977429152      0.95744664182336      1.40750749884563
  O   -1.52262977331016      1.15554184870074      1.91381021504488
  O   0.63323631792659      1.47091918070812      1.82633747170039
