14
Coordinates from ORCA-job run
  C   0.79509562419210     -0.00374690334936     -0.45970489857575
  C   -0.39081334385541      0.08747880909170      0.22647444782389
  N   1.96519666303409      0.56818095978938     -0.08534335762565
  H   2.27167829350221      0.31544830014142      0.90005951004636
  H   2.70720760411693      0.42886888030166     -0.77756569045562
  C   0.78370429798283     -0.70107493338355     -1.72360974046672
  N   0.81399634849155     -1.26816297232288     -2.78970967862008
  C   -1.70067901283367     -0.54402049641476     -0.09376618040323
  H   -1.62436091754480     -1.07600413425319     -1.04851541714263
  H   -2.48116884866917      0.23224544222398     -0.15342074048568
  H   -1.99241304066780     -1.26244303004791      0.67869588646680
  N   -0.37705710453616      0.87629610563183      1.46536082093265
  O   -1.23774531223957      1.71496312664648      1.58132335218168
  O   0.46735874902686      0.63197084594520      2.28072168632400
