14
Coordinates from ORCA-job run
  C   0.81195583782072     -0.11386721403951     -0.41798596353920
  C   -0.36775829232648      0.11264311915422      0.24791188202626
  N   2.05126022194765      0.39223708531061     -0.16306525021383
  H   2.18266291888977      0.83584688447640      0.73382562940741
  H   2.83546959408786     -0.07229477320213     -0.58774310366740
  C   0.74522219438744     -0.91085379975682     -1.61462510288879
  N   0.73361246405778     -1.55486370626929     -2.59891821893893
  C   -1.70508088940275     -0.41364130135726     -0.16219454405423
  H   -2.13577810974099     -1.02349755273387      0.63441483512874
  H   -1.62488340812921     -1.01726018237830     -1.06497258736222
  H   -2.39808968549232      0.41031593568128     -0.34695714982619
  N   -0.37015647009769      0.90528866595033      1.45399835279281
  O   0.69510904045637      1.39334506811726      1.86287935763758
  O   -1.45354541645814      1.05560177104708      2.02243186349799
