14
Coordinates from ORCA-job run
  C   0.80577746046385     -0.10181570606181     -0.43431613144171
  C   -0.36757905544048      0.12927056336320      0.24069968540649
  N   2.04863952799419      0.40932597722098     -0.19892558872563
  H   2.82739290507146     -0.07532887552270     -0.61324576262826
  H   2.18365238858028      0.85183471176416      0.69721528480439
  C   0.72614380211715     -0.91978664374353     -1.61666502823351
  N   0.70456911534972     -1.59447947678422     -2.58053316803382
  C   -1.70623071225862     -0.41120019588662     -0.14473649061158
  H   -2.09736698477743     -1.06354180843136      0.63869479142720
  H   -2.42128895075230      0.40418601643937     -0.27229164644539
  H   -1.64573320259932     -0.97350199600098     -1.07593858872729
  N   -0.35273404961867      0.90672453926580      1.45792692892297
  O   0.71439218268418      1.40926923457838      1.84482646889375
  O   -1.42263442681402      1.03004365979931      2.05728924539239
