14
Coordinates from ORCA-job run
  C   0.85992040020735     -0.06295296678647     -0.27480923973885
  C   -0.35720515136051     -0.08331788885148      0.33643782983242
  N   1.12243400877867      0.69631718143995     -1.40125264127396
  H   0.32272284222144      1.03175736978803     -1.91359100521414
  H   1.86673966963823      0.35049390185538     -1.98709582886448
  C   2.02272854344976     -0.76309893475561      0.19903214647204
  N   3.05099648224541     -1.29720987275236      0.40488412393877
  C   -1.56374407627527      0.60817278987248     -0.20438797777703
  H   -2.46234454999029      0.10993697220548      0.15110459408458
  H   -1.60257339716889      1.65121630770311      0.12336831770526
  H   -1.58101090280388      0.58993933815943     -1.29632907572404
  N   -0.51120900354087     -0.76633052222950      1.61966204276236
  O   0.49893248379068     -1.08902219137581      2.24213836966131
  O   -1.66438734919182     -0.97590148427264      2.00083834413575
