14
Coordinates from ORCA-job run
  C   0.77207877013977     -0.28179826301773     -0.36185715568496
  C   -0.26818972357465      0.11933296439685      0.41865702983216
  N   0.57350452209909     -0.77164789981425     -1.64308673570408
  H   -0.23047932846938     -0.41328278489974     -2.13422996760488
  H   1.40247901580013     -0.81824360546671     -2.21462930650987
  C   2.14522526048056     -0.31764808176303      0.05598954457160
  N   3.30923345003236     -0.39684180907627      0.21185691437339
  C   -1.68032772673352      0.11728054163590     -0.06286318733413
  H   -2.36534878548550      0.11514116165028      0.78251929685883
  H   -1.86697639936066     -0.77573194894751     -0.66520655762179
  H   -1.90922275746367      1.00415258434352     -0.66371133797030
  N   -0.01689624507094      0.66070854363766      1.74640308301708
  O   -0.92832740880023      1.32625452789091      2.24336361433128
  O   1.06424735640664      0.43332406943011      2.28679476544568
