14
Coordinates from ORCA-job run
  C   0.79816908747320     -0.15104926533164     -0.38602908073236
  C   -0.34561843506459     -0.12819741376830      0.35046442269626
  N   0.85848926310462      0.39483205636678     -1.65892180485733
  H   0.24021367600103      1.17091739182885     -1.83653848276989
  H   1.78996268894759      0.53788635697148     -2.01628685754056
  C   2.02014209357658     -0.78268477114354      0.02546381145479
  N   3.09712488685801     -1.22088685315058      0.20787953535413
  C   -1.59661481512748      0.53452328307077     -0.11947438310753
  H   -1.58224257405964      1.61399188515395      0.06567572159212
  H   -1.73101766018677      0.36101525692926     -1.19043608490763
  H   -2.45811078798719      0.12877393360618      0.40753033910353
  N   -0.35324061520137     -0.68144209461243      1.69684101279375
  O   -1.24019226310299     -0.26762501849392      2.44673222682157
  O   0.50193545476899     -1.51005474742687      2.00509962409916
