14
Coordinates from ORCA-job run
  C   0.82858729715700     -0.09244599512438     -0.39237491422267
  C   -0.38075442716806      0.11924997003009      0.22247689011904
  N   2.04192950060622      0.46869364561559     -0.11982077429337
  H   2.85462835691045      0.00327939539366     -0.48841696609759
  H   2.12355495349278      0.93940026042251      0.76837095206505
  C   0.82906673183202     -0.95239193833206     -1.54747431740966
  N   0.87284644759429     -1.65860436885443     -2.48752757887940
  C   -1.68353425028531     -0.47550834238640     -0.20339153997249
  H   -2.09933504863446     -1.09724230866572      0.59219265235330
  H   -2.41123204372349      0.31223238169345     -0.40963336422238
  H   -1.55958000173419     -1.08368896786706     -1.09884932826980
  N   -0.44881789589143      0.94936674828832      1.40333933957608
  O   -1.55360087010438      1.07994867013972      1.93360278521075
  O   0.58624124994856      1.48671084964671      1.82850616404314
