14
Coordinates from ORCA-job run
  C   0.83681706811666     -0.17004645511322     -0.34510523834201
  C   -0.37835644793153      0.15711871771864      0.20475262853255
  N   2.08845006239890      0.19495732018597      0.05643943541863
  H   2.16148588160908      0.58507730219799      0.98353619676299
  H   2.85849097794488     -0.35020703660047     -0.29392681697744
  C   0.81508733915719     -0.92650445326366     -1.57006845715802
  N   0.83841630916702     -1.55618362764363     -2.56388845798481
  C   -1.70999412056338     -0.22163607368210     -0.35712264606515
  H   -2.31769070244489      0.66960507815078     -0.52668956726062
  H   -1.59641082687205     -0.75395308364945     -1.30091482541614
  H   -2.25678466945342     -0.85532967828635      0.34414445531451
  N   -0.42765439494527      0.88074252594184      1.45345892307025
  O   -1.54282647858077      1.09711590295056      1.93193337178442
  O   0.63197000239758      1.25024356109310      1.98445099832083
