14
Coordinates from ORCA-job run
  C   0.81125748111214     -0.21421344809025     -0.32361226149648
  C   -0.29486454594263      0.10658230210029      0.40082227330144
  N   0.72139627947540     -0.81872336465619     -1.56827631165228
  H   1.56983614940121     -0.79614342059583     -2.11197765721043
  H   -0.10236489337298     -0.60074772585586     -2.10675771476040
  C   2.16172777163347     -0.03343939763246      0.12930387353726
  N   3.31789118947974      0.06475460345380      0.32630646635833
  C   -1.68275317109508     -0.10137941276384     -0.10515108072681
  H   -2.38414991326314     -0.14851887847317      0.72567046338916
  H   -1.73895294677042     -1.04045206342331     -0.66184600785546
  H   -2.00756381737115      0.71688756853795     -0.75691813568416
  N   -0.15127893961169      0.77765848489276      1.68408578870264
  O   -1.13235084017362      1.41528790586589      2.07305858512440
  O   0.91117019649874      0.67444684664023      2.29529171897279
