14
Coordinates from ORCA-job run
  C   0.80563423982448     -0.25396103447197     -0.27100940247563
  C   -0.36546186184455     -0.04776386446283      0.39855573264636
  N   0.79544860349413     -0.50426613952563     -1.65143757580440
  H   1.66786555818136     -0.88455086945784     -1.98973392123353
  H   0.49466469604531      0.27715489703440     -2.21641850041831
  C   2.09666619591111     -0.28233005333518      0.35373535722594
  N   3.21231131122800     -0.35189945084406      0.72415096145402
  C   -1.68519168430599      0.06051546891877     -0.29842426728617
  H   -2.49509355000778     -0.39963286561170      0.27933402714500
  H   -1.62423469442479     -0.44388667342961     -1.26241953224382
  H   -1.93921210244789      1.11448662207209     -0.44050124766327
  N   -0.32216306364518      0.43941936505078      1.77003252437690
  O   -1.25754919143864      1.16756285449488      2.11187781718387
  O   0.61531554343042      0.10815174356792      2.49325802709306
