14
Coordinates from ORCA-job run
  C   0.83152854227611     -0.07776312912142     -0.38926963165648
  C   -0.38911864179292      0.12331370307492      0.20703948649869
  N   2.00465001646587      0.59081158730128     -0.19422909525584
  H   2.05255329637268      1.17140408013269      0.62900412355487
  H   2.84667433902946      0.13652021287692     -0.50688148007931
  C   0.88912468567885     -1.06318580258769     -1.43755105499870
  N   0.97966116634305     -1.87000169879517     -2.28936074952125
  C   -1.64752596526117     -0.60627081217687     -0.13459360341879
  H   -1.48802674717636     -1.28849870239793     -0.96882708183584
  H   -2.00716905765018     -1.17525217067866      0.72519703311378
  H   -2.43428996084517      0.10137787640380     -0.40405053023192
  N   -0.50890198762827      1.06638605047824      1.29444647625888
  O   -1.61212542174127      1.15996227126230      1.83605632044572
  O   0.48296573592932      1.73119653422758      1.63401978712617
