14
Coordinates from ORCA-job run
  C   0.82374471816369     -0.05490343381135     -0.40961643279200
  C   -0.38826303373689      0.11281128645535      0.21394083574289
  N   1.97088181930365      0.66998961106408     -0.26917714114452
  H   2.82361984540852      0.24210412461445     -0.58984597720286
  H   2.01499690466343      1.27925756641499      0.53317162362609
  C   0.89589687521033     -1.06973169125647     -1.42850522832828
  N   0.99824666206888     -1.89900600287213     -2.25711418685123
  C   -1.62205595881759     -0.68143750438368     -0.06870464205218
  H   -2.44691947702469     -0.01684435300639     -0.33409798421776
  H   -1.93052455413277     -1.24041850351343      0.81718158663378
  H   -1.45669354766560     -1.38037620994623     -0.88789981057795
  N   -0.52032935471530      1.08519889021299      1.27375527245290
  O   0.44933522749207      1.80462869183236      1.56237308595846
  O   -1.61093612621773      1.14772752819548      1.84453899875266
