14
Coordinates from ORCA-job run
  C   0.84867925638683     -0.27006589487321     -0.23443131520666
  C   -0.38268103741340      0.20997991837880      0.13841429770683
  N   2.08610104909898      0.10816625872631      0.19773911413852
  H   2.11175865440478      0.66437266955067      1.03849677169366
  H   2.84646022341831     -0.52736339043301      0.02229531911047
  C   0.87433960155705     -1.24300076052733     -1.29560427903578
  N   0.93768284802695     -2.04858443923284     -2.15107680656226
  C   -1.68849644267299     -0.20840521710346     -0.45518326230499
  H   -2.32057640296789     -0.67865813342325      0.30096566239827
  H   -1.53699915493360     -0.90935054699934     -1.27530147144577
  H   -2.23030635407527      0.66169728579103     -0.83143004027589
  N   -0.48343776400514      1.15873887953304      1.22300770119425
  O   -1.61676287064881      1.50834359956760      1.55822960130715
  O   0.55323839382421      1.57412977104498      1.76487870728220
