14
Coordinates from ORCA-job run
  C   0.82479557870907     -0.11440461536916     -0.36836889073634
  C   -0.32298112364383     -0.02981469690240      0.36056461051239
  N   0.95360097135380      0.35460219691350     -1.66271568603240
  H   1.89767533240468      0.53733615734450     -1.96341009936657
  H   0.28454345721279      1.03849864044132     -1.97416747660976
  C   2.00876887824020     -0.79827878931849      0.07874246969851
  N   3.05461781719075     -1.30319389658386      0.26909253261744
  C   -1.59573706666855      0.59889871956076     -0.09932954789174
  H   -2.02245619594512      1.21593044335951      0.69264376594142
  H   -1.44620330328119      1.22658214187432     -0.97960462247156
  H   -2.33504254636947     -0.16612776261597     -0.34929415570428
  N   -0.40065652399308     -0.68598409082513      1.66030160708653
  O   -1.53865832996081     -0.87421371952726      2.09714228809152
  O   0.63673305475074     -1.00083072835164      2.24040320486484
