14
Coordinates from ORCA-job run
  C   0.84989926172334     -0.25795379542018     -0.24562432083367
  C   -0.38779138478501      0.13249263367682      0.20322547653168
  N   2.07800785119301     -0.01264508744201      0.29614574372098
  H   2.87496114990364     -0.13412134742787     -0.30643922369751
  H   2.11644050950134      0.71231603592358      0.99610286875623
  C   0.88152196409075     -1.12550094644812     -1.39440930682073
  N   0.94905419708883     -1.82401679920940     -2.33904444326533
  C   -1.69224967761226     -0.25973128998172     -0.41102280741936
  H   -2.22501073587809      0.62128841336278     -0.77473795266848
  H   -2.33261379868388     -0.73947577564716      0.33201922548998
  H   -1.54016465167417     -0.94929284206412     -1.24062664278497
  N   -0.49083080902390      1.03518444440571      1.32623197044576
  O   -1.62273712974150      1.40056111458864      1.64928641621222
  O   0.54251325389789      1.40089524168303      1.90889299633321
