14
Coordinates from ORCA-job run
  C   0.82109868343923     -0.17250667151685     -0.29942757974036
  C   -0.38377347591881     -0.10276352832851      0.33036160480907
  N   1.10890905523967      0.61814848730148     -1.40128661270639
  H   1.88035633297812      0.29067945848850     -1.96133619703655
  H   0.31209358033087      0.90522908908081     -1.94825155659680
  C   1.94936806543393     -0.93106357697502      0.16318351554182
  N   2.97316757966323     -1.45952931636075      0.40177470057642
  C   -1.46282717272731      0.81127717196682     -0.14486817309974
  H   -2.34471534926415      0.72044338366537      0.48294613843170
  H   -1.74932880987745      0.57136063296102     -1.17460404554442
  H   -1.13110573103094      1.85442561541308     -0.11790420230456
  N   -0.59844665854537     -0.84542098368885      1.56568342081595
  O   0.15441242066641     -1.78425001122303      1.82217431191799
  O   -1.53020852038745     -0.47702975078408      2.28255467493585
