14
Coordinates from ORCA-job run
  C   0.72622376560496      0.32359693058344     -0.41462439769447
  C   -0.34546779064102      0.04245213397457      0.37825546963667
  N   0.96867957753493     -0.38005724333835     -1.58114107904608
  H   0.55719000950014     -1.30007589591902     -1.63591003582875
  H   1.92208601944870     -0.34666567934521     -1.91038271063744
  C   1.65360739488189      1.40440105173435     -0.21906311342581
  N   2.51980184986634      2.20108497920308     -0.21626615711443
  C   -1.26158941159676     -1.09909979770922      0.08936735395005
  H   -1.95201919460025     -1.24730607891082      0.91598040726153
  H   -0.70285683471224     -2.03107877568285     -0.04944216539301
  H   -1.84728156207672     -0.91416734319546     -0.81742806128019
  N   -0.65574726123140      0.89252319829144      1.52278637088609
  O   0.10019591875570      1.82476011523569      1.78650712365756
  O   -1.68282248073426      0.62963240507838      2.15136099502828
