14
Coordinates from ORCA-job run
  C   0.84809946238352     -0.23466958334629     -0.27286869249622
  C   -0.38368141576226      0.19368032244574      0.15731981409548
  N   2.08766130642262      0.17701188592550      0.12091263642270
  H   2.12699993840515      0.71418341472050      0.97348971989831
  H   2.86111312766866     -0.42910711000013     -0.09686397166917
  C   0.86560850657823     -1.18335714987850     -1.35596120978584
  N   0.92104382546629     -1.96892385359148     -2.23033957828671
  C   -1.69627986196392     -0.25651320635419     -0.39676816544955
  H   -1.55214095538768     -0.93453289317138     -1.23731978329135
  H   -2.28019761671130      0.60237266147578     -0.73397089279489
  H   -2.28379370126949     -0.76386933182024      0.37127751641625
  N   -0.47485066501669      1.11336774338979      1.26730076582741
  O   0.56711528796017      1.55332916178224      1.77889409170443
  O   -1.60569723877328      1.41602793842266      1.65289774940913
