14
Coordinates from ORCA-job run
  C   0.79301607368734     -0.21921260617313     -0.36094556114828
  C   -0.37997492288631     -0.11223022895328      0.32010522146644
  N   0.99728341996865      0.41335726921348     -1.57702228614712
  H   1.95958818809570      0.46134562860347     -1.87321334269114
  H   0.49355970710237      1.27516410407354     -1.71682883861746
  C   1.90182007972943     -1.03276866803069      0.05394052748729
  N   2.90442539988261     -1.61710332777110      0.24908912963945
  C   -1.51083417440988      0.74098723657687     -0.14659970533411
  H   -2.44669569201176      0.40179454352976      0.29429816403169
  H   -1.37865419811935      1.78945178559564      0.14254353630501
  H   -1.59870114008047      0.68184739375349     -1.23499270595065
  N   -0.53193035261248     -0.76658881678870      1.61006492291329
  O   -1.39102518000817     -0.29323454421154      2.35742123352801
  O   0.18912279166230     -1.72580976941782      1.88113970451759
