16

C	-0.305611	0.026082	-1.479661
C	0.0	0.0	0.0
Br	-2.255573	0.209848	-1.874575
H	1.099295	0.0	0.0
H	0.120158	0.947095	-1.885583
C	0.256415	-1.178114	-2.200324
H	-0.221384	-2.097953	-1.856926
H	1.325078	-1.214135	-1.952025
H	0.126149	-1.093321	-3.281618
C	-0.475204	-1.218282	0.632927
N	-0.847405	-2.200588	1.162719
C	-0.435231	1.240833	0.769898
H	-0.028429	2.125349	0.271233
H	-0.013285	1.207911	1.777496
H	-1.522204	1.333299	0.83441
H	2.730449	0.0	0.0
