12

C	-0.372537	-0.005895	-1.448076
C	0.0	0.0	0.0
Br	-2.342785	-0.006046	-1.775208
H	1.093327	0.0	0.0
H	-0.019799	0.908805	-1.922287
H	-0.396277	-0.844775	0.558332
C	0.163223	-1.175787	-2.128977
N	0.569571	-2.122228	-2.695434
N	-0.45506	1.22527	0.651832
O	-0.763774	1.156679	1.842511
O	-0.446517	2.270226	-0.003142
F	2.484703	0.0	0.0
