12

C	-0.381533	-0.00572	-1.468578
C	0.0	0.0	0.0
Br	0.148431	1.70974	-2.246414
H	1.091378	0.0	0.0
H	0.210171	-0.760172	-1.98442
H	-0.424036	0.835824	0.552629
C	-1.801774	-0.199979	-1.742801
N	-2.949161	-0.355806	-1.944296
N	-0.454578	-1.237991	0.633185
O	-0.658007	-1.223092	1.847824
O	-0.545725	-2.24898	-0.074546
F	2.512055	0.0	0.0
