12

C	-0.338404	0.004599	-1.457551
C	0.0	0.0	0.0
Br	-2.293204	0.026794	-1.848878
H	1.093315	0.0	0.0
H	0.041397	0.917509	-1.913999
H	-0.403708	-0.848936	0.546897
C	0.219585	-1.164269	-2.125913
N	0.632857	-2.109827	-2.68707
N	-0.463131	1.220739	0.653713
O	-0.464046	2.268341	0.00226
O	-0.768881	1.148899	1.845273
F	2.486063	0.0	0.0
