12

C	-0.491611	0.072969	-1.437637
C	0.0	0.0	0.0
Br	-0.534192	-1.745889	-2.182631
H	1.091227	0.0	0.0
H	-1.518746	0.433883	-1.519446
H	-0.375217	-0.878953	0.519993
C	0.348802	0.894186	-2.304959
N	0.951179	1.557666	-3.064247
N	-0.475957	1.169639	0.73204
O	-0.753277	2.189774	0.085905
O	-0.53634	1.094733	1.960019
F	2.494439	0.0	0.0
