12

C	-0.376514	-0.457506	-1.396667
C	0.0	0.0	0.0
Br	0.139341	0.945951	-2.659123
H	1.093123	0.0	0.0
H	0.225653	-1.326313	-1.656829
H	-0.427076	0.963514	0.269853
C	-1.793594	-0.741794	-1.601306
N	-2.938951	-0.956735	-1.754005
N	-0.45007	-0.98682	0.981169
O	-0.652427	-0.602118	2.133114
O	-0.535181	-2.166336	0.61763
F	2.511538	0.0	0.0
