12

C	-0.479607	0.052312	-1.42997
C	0.0	0.0	0.0
Br	0.422281	1.398991	-2.531171
H	1.091642	0.0	0.0
H	-0.17783	-0.894216	-1.883769
H	-0.329698	-0.932372	0.46441
C	-1.922688	0.201507	-1.596298
N	-3.090232	0.25456	-1.719545
N	-0.521011	1.083034	0.83445
O	-0.908575	2.12191	0.291278
O	-0.495738	0.90559	2.053417
F	2.505889	0.0	0.0
