12

C	-0.365754	-0.041851	-1.47245
C	0.0	0.0	0.0
Br	0.132032	1.672842	-2.273523
H	1.094059	0.0	0.0
H	0.253119	-0.788839	-1.965766
H	-0.430052	0.8475	0.529346
C	-1.776223	-0.276731	-1.763777
N	-2.916653	-0.455678	-1.98586
N	-0.454966	-1.224375	0.656447
O	-0.529695	-2.252248	-0.028451
O	-0.677158	-1.18221	1.86712
F	2.511227	0.0	0.0
