12

C	-0.345898	-0.306104	-1.420915
C	0.0	0.0	0.0
Br	-2.29495	-0.205398	-1.829717
H	1.100813	0.0	0.0
H	0.092001	0.492819	-2.021895
H	-0.353281	0.987386	0.292385
C	0.151117	-1.572395	-1.948122
N	0.546437	-2.543498	-2.477454
N	-0.531252	-0.952933	0.966343
O	-0.710387	-0.545272	2.116415
O	-0.724916	-2.116323	0.605213
F	2.485867	0.0	0.0
