12

C	-0.369509	-0.13919	-1.465928
C	0.0	0.0	0.0
Br	0.11657	1.519333	-2.382712
H	1.095188	0.0	0.0
H	0.25339	-0.914372	-1.909742
H	-0.430541	0.879452	0.473565
C	-1.779136	-0.403238	-1.735881
N	-2.918965	-0.608738	-1.937898
N	-0.453119	-1.179556	0.733933
O	-0.525033	-2.250053	0.118695
O	-0.674901	-1.060777	1.939166
F	2.51043	0.0	0.0
