12

C	-0.467227	0.016407	-1.435378
C	0.0	0.0	0.0
Br	0.444812	1.333858	-2.564582
H	1.095707	0.0	0.0
H	-0.1613	-0.941121	-1.862144
H	-0.330843	-0.922478	0.482687
C	-1.908199	0.161785	-1.620757
N	-3.074169	0.213509	-1.758535
N	-0.53415	1.099872	0.802641
O	-0.902667	2.13028	0.231152
O	-0.542148	0.943759	2.025388
F	2.505159	0.0	0.0
