14
Coordinates from ORCA-job run
  C   1.01371113219348      0.14704626738956      0.62622097376608
  C   -0.05424342482712      0.13890416343395     -0.46415703402405
  Br  2.41366041741458      1.43957770670349      0.21327093068900
  H   0.40310996763108     -0.00038793411747     -1.44442712242618
  H   0.56819861189863      0.47379062304793      1.56795139969578
  C   1.60109393210284     -1.17556623718875      0.77431516039302
  N   2.04505866796433     -2.25844508389984      0.87932226038983
  N   -0.68326973874085      1.50221424824992     -0.50704117248872
  O   -0.82238830345205      2.01677566782677     -1.61179873187811
  O   -1.05032236280571      1.97342554624524      0.56631933414360
  C   -1.15362420713919     -0.87671425002694     -0.19508964429084
  H   -1.60174073298892     -0.70331278300388      0.78508610266800
  H   -0.74987889285166     -1.88925411827575     -0.23183206451345
  H   -1.92936506639945     -0.78705381638422     -0.95814039212397
