14
Coordinates from ORCA-job run
  C   0.95990526427289     -0.01100955100244      0.72044230738190
  C   -0.03314419917765      0.27216585334796     -0.40341879820080
  Br  2.29920497647268      1.40163756834121      0.83263520354679
  H   0.49372483540939      0.45869048187487     -1.33997348190806
  H   0.43468231433179     -0.00671776210505      1.67766428837229
  C   1.61935528129623     -1.29011298467843      0.50846260906441
  N   2.12357816556618     -2.33393409302510      0.31631906047051
  N   -0.74273018064042      1.55659779402683     -0.08189839250155
  O   -0.84267035237015      2.37889145083796     -0.98651610459436
  O   -1.20671526582119      1.66069739858653      1.05064387887119
  C   -1.08087778089336     -0.82097086625167     -0.54341182495910
  H   -1.59990239380006     -0.97623901035835      0.40423947430793
  H   -0.61214752934170     -1.75553528970706     -0.85400220151157
  H   -1.81126313530463     -0.53316098988726     -1.30218601833958
