14
Coordinates from ORCA-job run
  C   1.02332954692660      0.02826044913796      0.63236009786739
  C   -0.03194352631408      0.14479318149839     -0.46361857396703
  Br  2.57392196170843      1.13503091341813      0.21844989976316
  H   0.41065509060878     -0.04773583151359     -1.44164873824376
  H   0.61736098275727      0.41496315495727      1.56907316388950
  C   1.44185415020496     -1.35559636402878      0.79242553871991
  N   1.74902107974530     -2.48416995647621      0.90558310034804
  N   -0.50034534297585      1.57150587650681     -0.51221037433273
  O   -0.77729909051788      2.10023891616710      0.56121621481344
  O   -0.61971204235511      2.07778802563169     -1.62336383355006
  C   -1.24547644144351     -0.73425493299688     -0.20274362780218
  H   -0.96429703710491     -1.78749308820400     -0.23905503646726
  H   -1.99982422010864     -0.55178697977147     -0.97073595207518
  H   -1.67624511113136     -0.51054336432640      0.77526812103678
