14
Coordinates from ORCA-job run
  C   1.18204340586804     -0.45551322291237      0.17432539799184
  C   -0.15108194869472     -0.24716353957293     -0.54812756360398
  Br  1.37594059923539     -2.35255972295071      0.60275044175275
  H   -0.22035526498877     -0.96392643596022     -1.37055690095821
  H   2.01465316254548     -0.21513799518895     -0.48584885794633
  C   1.28468064588324      0.33078957120618      1.39513689585910
  N   1.34063389223616      0.95730272128602      2.38726399362017
  N   -0.13491695291286      1.10594603442693     -1.22425147600370
  O   0.82906930195980      1.84367695889030     -1.02856425624410
  O   -1.10465384109765      1.35994186852376     -1.92894229201508
  C   -1.37667008281064     -0.32478438991044      0.34317853306371
  H   -1.35050716354947      0.46114232131248      1.10073718491920
  H   -1.41213611078079     -1.29332337153682      0.84285039977508
  H   -2.27569964289321     -0.20639079761322     -0.25995150021046
