14
Coordinates from ORCA-job run
  C   0.92859714148273     -0.52439505482528      0.59832560855595
  C   -0.15513889384201     -0.14494385653113     -0.41821690958727
  Br  0.46111272985524     -0.26717837139081      2.47298354897333
  H   0.17030171657781     -0.54829335823916     -1.38068308596529
  H   1.08582518932012     -1.60195600187688      0.50246046961424
  C   2.18477275554255      0.15509843193940      0.30828297566045
  N   3.19307050786426      0.69454377939795      0.03838601857257
  N   -0.19174957487187      1.33957532606842     -0.63761331530872
  O   -0.14904890489980      1.72223909122579     -1.80448252965213
  O   -0.29636573779374      2.04878231456836      0.35794794563603
  C   -1.54968816049912     -0.62702684243397     -0.06998965524984
  H   -1.91683014815133     -0.12095700342405      0.82195299926662
  H   -1.53933768967470     -1.70338668623104      0.11412258580728
  H   -2.22452093091013     -0.42310176824759     -0.90347665632321
