15
Coordinates from ORCA-job run
  C   0.83951449957716      0.41480148845403      0.02174910391453
  C   -0.58732787966452      0.17083861605654      0.56722844555208
  Br  1.44668348860758      2.20542477810162      0.76328599470832
  H   -0.56324619444498      0.35164339351082      1.64586535132687
  N   0.86843614641699      0.34148323297624     -1.38648651441541
  H   1.80567649195712      0.41845498531055     -1.76037889613578
  H   0.26776258422094      1.03980954216015     -1.81075703325081
  C   1.76688567634285     -0.55652790844779      0.60035557781101
  N   2.49115630302990     -1.35715566681444      1.06516419673276
  C   -1.06869387025398     -1.25642419921647      0.28066150527438
  H   -0.41458787743496     -1.97926400300537      0.77114537200941
  H   -2.08004137413770     -1.38539846077731      0.67004667026994
  H   -1.07168205512799     -1.45012166425382     -0.79134653667334
  C   -1.48958126347326      1.14795173315711     -0.04439437022873
  N   -2.21195467561516      1.89448413278812     -0.59213886689521
