15
Coordinates from ORCA-job run
  C   0.84060161562881      0.31031706831636     -0.10422074907473
  C   -0.66848385679915      0.24486188836226      0.22623981921169
  Br  1.80903209945402      0.59912741501897      1.66241684156625
  H   -0.92149625293103      1.20058009414300      0.70243850040046
  N   1.10418561202513      1.32719559811185     -1.04262790098283
  H   2.07529654878965      1.36154900319282     -1.32504700130712
  H   0.80296137048365      2.23677466166434     -0.71462390305447
  C   1.32698542309420     -0.97601803458030     -0.60013044312408
  N   1.70135856501973     -2.01327648832405     -1.00717343451236
  C   -1.07136391127195     -0.90968977526451      1.14629433177218
  H   -0.80707860265883     -1.86831052888003      0.69580626481563
  H   -2.15188307821871     -0.88970559239166      1.29655514227335
  H   -0.58176011587468     -0.82136062338030      2.11490057839303
  C   -1.41088929156829      0.15406838505941     -1.03633920633704
  N   -2.04846612517252      0.04588692895184     -2.01648884003996
