15
Coordinates from ORCA-job run
  C   0.90228898426096      0.36203094702334      0.00286907788729
  C   -0.63095641817075      0.22992826259289      0.24670689014808
  Br  1.73259044808040      0.79580021791562      1.73654576533547
  H   -0.94900445827361      1.17984123390558      0.69361091082978
  N   1.30259040839966      1.38225495267613     -0.92596469893060
  H   1.00517648928605      1.14514653346104     -1.86684072057655
  H   0.91766388095792      2.28161418495521     -0.66025022087382
  C   1.43767156346497     -0.92690337694636     -0.44212452776269
  N   1.81791818902983     -1.97521088241508     -0.81337815215190
  C   -1.04954107589706     -0.93589222087721      1.14380503284180
  H   -2.13533637504251     -0.94383619566325      1.25371535479239
  H   -0.60071769080616     -0.83397901479483      2.13142270652136
  H   -0.74144307773771     -1.88772224759239      0.70746960519673
  C   -1.26316202536018      0.11691558178524     -1.07142828046517
  N   -1.74573884219179      0.00901202397409     -2.13715874279217
