17
Coordinates from ORCA-job run
  C   -0.77299612492304      0.27601746859747     -0.10184261611978
  C   0.62171886279114     -0.28411483513602      0.20774478819801
  Cl  -1.04806891320647      1.82034486041464      0.76091755169677
  H   0.66593799750873     -1.21787631456980     -0.39243787928063
  N   -1.75832155478476     -0.65967301402721      0.43650604619399
  H   -2.67988877323088     -0.23736552636816      0.43242275204351
  H   -1.78259043029879     -1.47832837118163     -0.16395492118881
  N   -0.85531175399965      0.57934982352691     -1.51621187532559
  H   -1.77112691376783      0.95317285351218     -1.73786407072893
  H   -0.71633700403548     -0.27393070613967     -2.04804867134788
  N   0.73391435578016     -0.52759607753621      1.63477923525611
  H   -0.07512490289380     -1.04811393090113      1.95052511614941
  H   1.57139603081425     -1.06267978382612      1.82605383661316
  C   1.75183669392916      0.62306767670211     -0.24748225265250
  H   1.67912967754400      0.85210601171768     -1.30975797335774
  H   2.71241190300351      0.13565007724025     -0.05637460571766
  H   1.72242084976974      1.55096978797469      0.32402553956855
