17
Coordinates from ORCA-job run
  C   -0.79305029639155     -0.03643148608222     -0.35840409979220
  C   0.61767358104983     -0.43423991630081      0.07871921429403
  Cl  -1.76641043100504     -1.80045947694273     -0.29578990979040
  H   0.95430460958160     -1.21892759138328     -0.61399908002761
  N   -0.84844327202559      0.40885013970184     -1.68813119327152
  H   -1.76561178312754      0.76030528823608     -1.93192436803831
  H   -0.60145997543238     -0.33533081786287     -2.32690907386601
  N   -1.37531806005207      0.84015368106538      0.54603039453560
  H   -1.17867224141350      0.52526708793962      1.48908930484873
  H   -2.36562546592917      0.97735568097578      0.39885729601142
  N   0.55353152475193     -0.88610684580652      1.46473357298819
  H   1.48458640407846     -0.91285435519264      1.86022227821383
  H   0.15927172773200     -1.81802678154416      1.50744078628304
  C   1.55567655693050      0.76230801046816     -0.01720808034413
  H   2.57698676543910      0.45171337843406      0.22328502574983
  H   1.24717180411168      1.53589591085937      0.68698738652891
  H   1.54638855170174      1.18152809343496     -1.02199945432340
