17
Coordinates from ORCA-job run
  C   -0.81884922241981     -0.04016479593812     -0.35593763026904
  C   0.59448741744293     -0.46806417392742      0.07415116180472
  Cl  -1.79985017268695     -1.74574636656978     -0.37441336043424
  H   0.89220775877230     -1.28000808899702     -0.59579638796216
  N   -0.85424422183066      0.49875206457534     -1.65874828993030
  H   -0.55580773060664     -0.19490029918298     -2.33289835509492
  H   -1.78832722913088      0.79856620787192     -1.91019591628024
  N   -1.38854741912361      0.81055559530100      0.59582824262588
  H   -1.31006291322305      0.36287521027007      1.50211047102878
  H   -2.35499155881316      1.02964565222220      0.39206129102473
  N   0.52036850911835     -0.95554252749466      1.45100240153162
  H   0.62647561859396     -1.95761098387800      1.50041056367377
  H   1.23776711017677     -0.52392857364706      2.01825960139006
  C   1.56951916467867      0.69786976038183     -0.05815905890486
  H   1.24532828713827      1.52104219934803      0.58285223957185
  H   1.61770238830968      1.07258106957274     -1.07954003304810
  H   2.56782421360383      0.37507805009191      0.24901305927246
