17
Coordinates from ORCA-job run
  C   -0.87316218513361     -0.22910480074729     -0.31321562047947
  C   0.60457818805944     -0.43409161183113      0.06909254243279
  Cl  -1.63710751045330     -1.94018837669452     -0.14214676943210
  H   1.01565930108012     -1.18719802420025     -0.62226417695776
  N   -1.00066294983385      0.25131145280921     -1.63761701769377
  H   -0.55701345409398     -0.37386815672233     -2.29847949725699
  H   -1.98293088531618      0.33661977086610     -1.87106620374751
  N   -1.62442907849361      0.62052340451682      0.55300998857974
  H   -1.38088752775699      1.58159699858901      0.34370584769559
  H   -1.37061076465940      0.40744936318467      1.51138359252385
  N   0.66365547624966     -0.85255319317556      1.46568441738123
  H   1.61557979010609     -0.77960598709053      1.80240795434238
  H   0.37293415487098     -1.81826704072017      1.55580467276999
  C   1.38730780326019      0.86252687350434     -0.08386001433491
  H   1.02820349403111      1.60317112820288      0.63396107543843
  H   1.29312439066628      1.26860355779573     -1.08970884407019
  H   2.44676175741703      0.68307464171301      0.12130805280870
