17
Coordinates from ORCA-job run
  C   -0.79913893808886      0.19708526582546     -0.24687786981482
  C   0.55869038963337     -0.41019755905090      0.13479623434278
  Cl  -0.97758469190810      1.78113661304970      0.72021284279006
  H   0.62042876238809     -1.30766282477787     -0.49387781456819
  N   -1.81700777933044     -0.73248711392035      0.06713986872705
  H   -1.65520634287308     -1.11543870741390      0.99189824712032
  H   -2.73898031924890     -0.32189767794893     -0.00515896132356
  N   -0.81145093909188      0.60099932652263     -1.63705280113307
  H   -1.44905370102510      1.37318676170026     -1.78052237471021
  H   -1.14221305407677     -0.19420446816685     -2.17288655566128
  N   0.48395072061435     -0.87240907769472      1.52225931774778
  H   0.63876794354834     -0.08384218534664      2.14163334435869
  H   1.21981540972109     -1.54526475557036      1.69812728110118
  C   1.74276548829624      0.49208949681811     -0.18028231912716
  H   1.69462987345989      0.84943220035254     -1.20850798070163
  H   2.67266477659935     -0.06562738596523     -0.03890343230802
  H   1.75892240138240      1.35610209158705      0.48700297316008
