12
Coordinates from ORCA-job run
  C   0.05101262611729     -0.05781245477384     -0.38701437145697
  C   -1.23440276991401     -0.47604781379980      0.31877588857028
  Br  0.46524703720612     -1.39671605374968     -1.77287424948242
  H   -1.48287411641603      0.26625581962772      1.08268581295033
  H   -1.09073833962161     -1.44617004436051      0.79775797454977
  H   -2.06306489460645     -0.54851939498248     -0.38590502014139
  C   1.23507564790714      0.02761694776593      0.57026100378617
  H   1.02430788365281      0.77882993072839      1.33677387622733
  H   1.38757090847916     -0.93991911089565      1.05172723655856
  H   2.14679225849072      0.30805966154130      0.04246642758188
  C   -0.13893072886849      1.21842717909317     -1.07412794795858
  N   -0.30099551242667      2.26699533380546     -1.57952663118495
