18

C	-0.460097	-0.082496	-1.463668
C	0.0	0.0	0.0
Br	0.197834	1.624064	-2.367851
H	1.094268	0.0	0.0
C	0.237524	-1.21139	-2.199829
H	0.029963	-1.150381	-3.270903
H	1.315942	-1.143908	-2.036166
H	-0.136387	-2.16913	-1.826643
N	-1.875821	-0.182901	-1.561602
H	-2.320841	0.609963	-1.11257
H	-2.16217	-0.201955	-2.533268
C	-0.42306	-1.24163	0.803369
H	-1.502253	-1.397054	0.771869
H	0.085916	-2.122136	0.410868
H	-0.100461	-1.114913	1.838829
C	-0.547281	1.189217	0.644441
N	-1.084596	2.088974	1.175717
Br	3.509371	0.0	0.0
