18

C	-0.446326	-0.036131	-1.471394
C	0.0	0.0	0.0
Br	-0.044895	1.71371	-2.293808
H	1.096033	0.0	0.0
C	0.36931	-1.066723	-2.246577
H	0.135208	-1.004083	-3.312214
H	0.108516	-2.072303	-1.899214
H	1.439348	-0.906517	-2.089364
N	-1.891192	-0.193248	-1.561727
H	-2.170905	-0.116139	-2.533217
H	-2.123191	-1.132377	-1.25233
C	-0.425196	-1.259345	0.774437
H	-1.510492	-1.326474	0.887585
H	-0.041251	-2.159049	0.291114
H	0.019389	-1.215239	1.770257
C	-0.518968	1.168285	0.705334
N	-0.960789	2.053476	1.338601
Br	3.528244	0.0	0.0
