18

C	-0.241118	-0.020323	-1.524285
C	0.0	0.0	0.0
Br	-2.197852	-0.185669	-1.890857
H	1.100215	0.0	0.0
C	0.263545	1.258678	-2.163853
H	0.123561	1.198994	-3.244635
H	1.333038	1.342843	-1.934406
H	-0.253443	2.13523	-1.771662
N	0.403857	-1.137006	-2.178702
H	1.406709	-1.043898	-1.997526
H	0.099769	-2.008363	-1.760386
C	-0.47484	-1.226672	0.773517
H	-0.139415	-1.14892	1.809697
H	-0.027497	-2.131101	0.358564
H	-1.562796	-1.317303	0.754633
C	-0.503549	1.21745	0.620511
N	-0.92704	2.184095	1.137814
Br	3.488189	0.0	0.0
