18

C	-0.442053	-0.04151	-1.473862
C	0.0	0.0	0.0
Br	-0.106004	1.725795	-2.286466
H	1.096086	0.0	0.0
C	0.4167	-1.034236	-2.251049
H	0.206026	-2.050259	-1.898755
H	0.173632	-0.984926	-3.315547
H	1.479363	-0.826288	-2.097664
N	-1.879919	-0.255779	-1.569637
H	-2.1626	-0.163251	-2.539617
H	-2.070619	-1.213883	-1.288747
C	-0.42558	-1.262385	0.769414
H	-1.51085	-1.324351	0.885566
H	0.02489	-1.226819	1.763267
H	-0.048321	-2.160974	0.278168
C	-0.522041	1.165093	0.706979
N	-0.930043	2.063689	1.344006
Br	3.533036	0.0	0.0
