18

C	-0.382424	0.033832	-1.506
C	0.0	0.0	0.0
Br	0.02679	-1.750753	-2.268676
H	1.096794	0.0	0.0
C	-1.854365	0.300037	-1.767988
H	-2.122707	1.287947	-1.381024
H	-2.484531	-0.447956	-1.285139
H	-2.035584	0.279622	-2.843023
N	0.427264	0.978583	-2.240113
H	1.405451	0.839093	-1.983183
H	0.166895	1.915249	-1.943116
C	-0.529935	-1.144837	0.859379
H	-1.62192	-1.208459	0.831767
H	-0.216935	-0.989547	1.894645
H	-0.105161	-2.087102	0.516145
C	-0.424254	1.285094	0.560001
N	-0.805001	2.314359	0.982493
Br	3.489172	0.0	0.0
