18

C	-0.49401	-0.039386	-1.463908
C	0.0	0.0	0.0
Br	0.195647	1.589221	-2.342512
H	1.095164	0.0	0.0
C	0.098122	-1.232236	-2.194542
H	1.177358	-1.2728	-2.029033
H	-0.117887	-1.14673	-3.259699
H	-0.358767	-2.156895	-1.824004
N	-1.932201	-0.00492	-1.650511
H	-2.323416	0.780009	-1.13816
H	-2.326331	-0.861019	-1.270553
C	-0.417377	-1.248988	0.791052
H	0.08395	-2.129535	0.389115
H	-1.500036	-1.405249	0.791157
H	-0.089208	-1.133429	1.825671
C	-0.526069	1.181665	0.675532
N	-1.031158	2.086077	1.230788
Br	3.508587	0.0	0.0
