18

C	-0.236488	-0.031026	-1.526527
C	0.0	0.0	0.0
Br	-2.183512	-0.250359	-1.903031
H	1.100072	0.0	0.0
C	0.231129	1.262935	-2.165009
H	-0.324598	2.121232	-1.788703
H	0.114602	1.191392	-3.246903
H	1.291317	1.387645	-1.918108
N	0.446889	-1.128853	-2.172171
H	1.442204	-1.011675	-1.967975
H	0.156702	-2.009635	-1.763476
C	-0.467991	-1.225237	0.780967
H	-1.555638	-1.318896	0.771828
H	-0.123589	-1.142696	1.813677
H	-0.021632	-2.129887	0.36461
C	-0.510683	1.218121	0.614236
N	-0.951936	2.180232	1.125638
Br	3.4681	0.0	0.0
