13
Coordinates from ORCA-job run
  C   -0.85389644422860      0.55141956639111      0.19509539324025
  C   0.55767364546940      0.21493037589068      0.64851737733063
  Cl  -0.82384360621546      1.87555599477031     -1.02401173597068
  H   0.46455894771763     -0.49842341674953      1.47829681644607
  H   -1.40881576584279      0.98690598044717      1.03485027424923
  H   1.00415852299921      1.12134784491700      1.06610121269209
  N   -1.48936398651516     -0.59608129420549     -0.40837405350694
  H   -1.47498762503972     -1.36830771631130      0.24861939510157
  H   -2.45355009187285     -0.38807461258719     -0.63715474340075
  C   1.44774090883372     -0.36662557668515     -0.44325898388766
  H   2.43352903345429     -0.60570556647339     -0.03802143286996
  H   1.57994249526005      0.34724499773858     -1.25690363948174
  H   1.01485396598029     -1.27418657714279     -0.86275587994211
