13
Coordinates from ORCA-job run
  C   -0.86241471781692      0.47205178010794      0.39402216010185
  C   0.61033788305831      0.22112051099165      0.66877761003938
  Cl  -0.99839848081105      1.90794805032243     -0.77573107122926
  H   0.65165996664368     -0.46560692250265      1.52076325814741
  H   -1.35593266704197      0.84452059178649      1.29139262778519
  H   1.06541539475921      1.16343437799520      0.98216914539964
  N   -1.53766176741961     -0.68626373646130     -0.06086484280999
  H   -1.17886513731551     -1.00029805576572     -0.95274163226043
  H   -2.53155916381814     -0.52396331748214     -0.15317480488979
  C   1.37896289078257     -0.36871661268102     -0.50787695054644
  H   1.28641895697470      0.25836128162353     -1.39636304022090
  H   2.44012128180721     -0.44690406483151     -0.26383494594127
  H   1.03091556019751     -1.37568388310290     -0.74853751357538
