13

C	-0.357681	0.045015	-1.466516
C	0.0	0.0	0.0
Cl	-2.133082	0.29006	-1.769083
H	1.098606	0.0	0.0
H	0.138102	0.925426	-1.875789
C	0.064365	-1.148574	-2.193836
N	0.377409	-2.111611	-2.789038
C	-0.54299	-1.173326	0.668825
N	-0.983403	-2.089326	1.262228
N	-0.356179	1.265982	0.632438
H	-1.233097	1.209397	1.13394
H	0.389682	1.487528	1.281141
F	2.516188	0.0	0.0
