13

C	-0.454659	0.027639	-1.459629
C	0.0	0.0	0.0
Cl	0.299033	1.390701	-2.330306
H	1.094072	0.0	0.0
H	-0.110092	-0.882413	-1.954953
C	-1.908341	0.135271	-1.590773
N	-3.078314	0.216053	-1.658488
C	-0.474606	-1.240663	0.60267
N	-0.871807	-2.228436	1.104974
N	-0.431068	1.192977	0.713463
H	-1.221861	1.021511	1.318958
H	0.355171	1.51167	1.26464
F	2.532561	0.0	0.0
