13

C	-0.198971	0.043467	-1.506687
C	0.0	0.0	0.0
Cl	-1.889172	0.489561	-2.025709
H	1.09698	0.0	0.0
H	0.447256	0.837694	-1.884235
C	0.154788	-1.20984	-2.164435
N	0.410212	-2.223493	-2.699908
C	-0.633296	-1.160999	0.600779
N	-1.141712	-2.101207	1.091433
N	-0.357463	1.228478	0.686886
H	0.454795	1.83241	0.655838
H	-1.155091	1.689528	0.266503
F	2.513795	0.0	0.0
