13

C	-0.329427	0.052569	-1.473681
C	0.0	0.0	0.0
Cl	-2.09879	0.285236	-1.818113
H	1.095921	0.0	0.0
H	0.170183	0.939925	-1.863738
C	0.124784	-1.131486	-2.198185
N	0.46734	-2.086778	-2.789703
C	-0.551496	-1.17743	0.653276
N	-0.99693	-2.099577	1.233328
N	-0.363901	1.263271	0.631742
H	0.370097	1.481526	1.291613
H	-1.246801	1.2063	1.120161
F	2.514745	0.0	0.0
