13

C	-0.408379	0.115357	-1.474988
C	0.0	0.0	0.0
Cl	0.023821	-1.343208	-2.419133
H	1.09514	0.0	0.0
H	-1.493388	0.229064	-1.58485
C	0.22412	1.291509	-2.075109
N	0.662594	2.256912	-2.580244
C	-0.611609	-1.179688	0.593112
N	-1.114163	-2.128375	1.073581
N	-0.360253	1.201036	0.745941
H	0.432623	1.830132	0.69515
H	-1.185679	1.667399	0.387939
F	2.522909	0.0	0.0
