15

C	-0.3496	-0.039157	-1.495823
C	0.0	0.0	0.0
F	-1.688627	-0.370001	-1.668285
H	1.092605	0.0	0.0
C	-0.19876	1.272053	-2.179643
N	-0.125445	2.208557	-2.886106
N	0.458692	-1.068733	-2.05519
H	1.421956	-0.978481	-1.72675
H	0.439799	-1.034585	-3.06627
C	-0.517167	-1.189081	0.656419
N	-0.912053	-2.151895	1.199914
N	-0.503627	1.236799	0.672583
O	-1.401519	1.127122	1.50591
O	0.036982	2.283196	0.329091
Cl	3.150085	0.0	0.0
