15

C	-0.350243	-0.050813	-1.499738
C	0.0	0.0	0.0
F	-1.727147	-0.168242	-1.622736
H	1.092453	0.0	0.0
C	0.060516	1.157892	-2.243935
N	0.335075	2.048005	-2.957571
N	0.260156	-1.179771	-2.138041
H	0.010315	-2.024674	-1.632298
H	1.272087	-1.068306	-2.084466
C	-0.495871	-1.209627	0.6397
N	-0.884216	-2.228773	1.076333
N	-0.503544	1.204644	0.727633
O	-0.385122	2.279708	0.151068
O	-0.959712	1.040691	1.855852
Cl	3.114933	0.0	0.0
