15

C	-0.544489	0.032729	-1.43182
C	0.0	0.0	0.0
F	-1.921882	0.364267	-1.337216
H	1.091654	0.0	0.0
C	0.058468	1.077615	-2.280323
N	0.437381	1.848925	-3.079727
N	-0.335883	-1.214373	-2.048637
H	-0.776651	-1.970542	-1.541866
H	-0.619316	-1.20574	-3.018009
C	-0.511494	-1.176228	0.686361
N	-0.924637	-2.175073	1.14679
N	-0.409841	1.232697	0.750741
O	-0.726099	1.103037	1.929527
O	-0.338072	2.290201	0.135664
Cl	3.112077	0.0	0.0
