15

C	-0.540889	0.023698	-1.433429
C	0.0	0.0	0.0
F	-1.918548	0.355086	-1.346124
H	1.091687	0.0	0.0
C	0.065134	1.063175	-2.286567
N	0.443801	1.827277	-3.093082
N	-0.329628	-1.227175	-2.04157
H	-0.773973	-1.980076	-1.532678
H	-0.607152	-1.224079	-3.012866
C	-0.512495	-1.17201	0.692991
N	-0.928812	-2.166986	1.158954
N	-0.411651	1.237703	0.741003
O	-0.730511	1.116388	1.919438
O	-0.340527	2.290554	0.11853
Cl	3.111471	0.0	0.0
