15

C	-0.323232	0.003985	-1.507105
C	0.0	0.0	0.0
F	-0.040561	-1.308296	-1.94046
H	1.092471	0.0	0.0
C	-1.75691	0.207414	-1.811974
N	-2.888884	0.348803	-2.088648
N	0.469494	0.984582	-2.117048
H	1.436607	0.907205	-1.800004
H	0.406229	0.953416	-3.126421
C	-0.575963	-1.137981	0.689024
N	-1.027361	-2.06694	1.247151
N	-0.491381	1.281187	0.61054
O	0.276549	2.234926	0.594652
O	-1.640646	1.280386	1.053117
Cl	3.178327	0.0	0.0
