15

C	-0.493235	-0.026293	-1.458214
C	0.0	0.0	0.0
F	-0.089007	1.20316	-2.002495
H	1.090983	0.0	0.0
C	0.206776	-1.083028	-2.216112
N	0.672313	-1.934539	-2.876951
N	-1.883796	-0.242492	-1.57764
H	-2.171554	-0.197708	-2.546256
H	-2.396652	0.417998	-1.007492
C	-0.52983	-1.114259	0.768344
N	-0.93311	-2.015901	1.403833
N	-0.476668	1.288612	0.633811
O	-1.698002	1.464031	0.684412
O	0.369038	2.062059	1.052208
Cl	3.178142	0.0	0.0
