15

C	-0.516185	0.119898	-1.443145
C	0.0	0.0	0.0
F	0.253731	1.069593	-2.10632
H	1.103577	0.0	0.0
C	-0.287617	-1.166017	-2.139648
N	-0.167433	-2.165973	-2.741502
N	-1.906069	0.413196	-1.497
H	-2.23278	0.380966	-2.454391
H	-2.054087	1.341405	-1.119181
C	-0.510413	-1.201063	0.640091
N	-0.902522	-2.192811	1.133682
N	-0.37042	1.189051	0.843883
O	-0.278236	1.043219	2.055279
O	-0.669566	2.23738	0.272309
Cl	3.115124	0.0	0.0
