15

C	-0.524554	0.241231	-1.428642
C	0.0	0.0	0.0
F	0.033989	1.415354	-1.890829
H	1.103516	0.0	0.0
C	-0.0414	-0.838895	-2.32073
N	0.220076	-1.693045	-3.083594
N	-1.94309	0.348136	-1.453442
H	-2.391512	0.029801	-0.607292
H	-2.365094	-0.059202	-2.272888
C	-0.513848	-1.264392	0.503504
N	-0.932002	-2.30028	0.866714
N	-0.502602	1.127804	0.860202
O	0.162182	2.153369	0.865949
O	-1.563433	0.946874	1.465021
Cl	3.148722	0.0	0.0
