15

C	-0.360239	-0.125104	-1.482727
C	0.0	0.0	0.0
F	-1.681449	-0.499327	-1.661222
H	1.102263	0.0	0.0
C	-0.212806	1.169087	-2.197895
N	-0.08798	2.126898	-2.867375
N	0.479211	-1.158261	-1.992352
H	1.442505	-1.0287	-1.676474
H	0.450971	-1.179824	-3.003965
C	-0.495147	-1.138634	0.757126
N	-0.891393	-2.030221	1.410809
N	-0.515203	1.244546	0.659612
O	0.021651	1.551853	1.717721
O	-1.454903	1.831382	0.122867
Cl	3.154757	0.0	0.0
