15

C	-0.498069	0.297374	-1.424223
C	0.0	0.0	0.0
F	0.243757	1.355605	-1.934604
H	1.10933	0.0	0.0
C	-0.196344	-0.875234	-2.275917
N	0.003959	-1.789635	-2.984308
N	-1.897902	0.540807	-1.469582
H	-2.201975	0.634701	-2.430183
H	-2.090425	1.398113	-0.966409
C	-0.508603	-1.279334	0.467605
N	-0.905707	-2.326537	0.821188
N	-0.400968	1.059827	0.987028
O	-0.729752	2.164059	0.552691
O	-0.313078	0.760248	2.170697
Cl	3.107217	0.0	0.0
