17

C	-0.392284	0.055902	-1.477152
C	0.0	0.0	0.0
F	-1.786501	0.175923	-1.591747
H	1.096768	0.0	0.0
C	0.250748	1.232203	-2.1895
H	0.033739	1.180824	-3.258434
H	1.331143	1.207067	-2.022169
H	-0.162494	2.160666	-1.793691
C	-0.030581	-1.200922	-2.163767
N	0.20112	-2.193625	-2.745744
C	-0.51049	-1.21877	0.620543
N	-0.949902	-2.165864	1.158884
C	-0.464637	1.232337	0.781046
H	-0.234285	1.090314	1.838058
H	0.083764	2.113418	0.445748
H	-1.53808	1.397315	0.669306
Br	3.434085	0.0	0.0
