17

C	-0.399886	0.08851	-1.475937
C	0.0	0.0	0.0
F	-1.776213	0.347894	-1.577262
H	1.096846	0.0	0.0
C	0.358298	1.185533	-2.200996
H	1.431313	1.037688	-2.054586
H	0.069089	2.154963	-1.794478
H	0.113386	1.164438	-3.264272
C	-0.177456	-1.20612	-2.147235
N	-0.027812	-2.235113	-2.692421
C	-0.537601	-1.210984	0.614406
N	-0.981104	-2.16278	1.141535
C	-0.445924	1.229271	0.801593
H	0.064088	2.120908	0.435809
H	-1.526318	1.372888	0.749391
H	-0.152415	1.092564	1.843238
Br	3.453674	0.0	0.0
