17

C	-0.387422	-0.018939	-1.487866
C	0.0	0.0	0.0
F	-0.00611	1.205568	-2.033461
H	1.096991	0.0	0.0
C	0.334226	-1.116692	-2.243028
H	1.404475	-0.999034	-2.054713
H	0.12508	-1.025651	-3.310783
H	0.011258	-2.099085	-1.893464
C	-1.854774	-0.105359	-1.655886
N	-3.019578	-0.172526	-1.791013
C	-0.472174	-1.231223	0.625841
N	-0.886376	-2.208019	1.131188
C	-0.51653	1.232293	0.738386
H	-0.123207	2.12641	0.255662
H	-1.609638	1.271415	0.746673
H	-0.154487	1.213513	1.767545
Br	3.481596	0.0	0.0
