17

C	-0.493633	0.011875	-1.455996
C	0.0	0.0	0.0
F	0.047411	-1.08815	-2.106572
H	1.096166	0.0	0.0
C	-2.005688	-0.075873	-1.606714
H	-2.254201	-0.137078	-2.667683
H	-2.3601	-0.976332	-1.102604
H	-2.494805	0.799864	-1.178352
C	-0.007989	1.228134	-2.138491
N	0.319919	2.226351	-2.663161
C	-0.468814	-1.224677	0.641505
N	-0.916427	-2.167228	1.181389
C	-0.443549	1.227775	0.798866
H	-0.087289	2.134647	0.30711
H	0.023748	1.18784	1.783391
H	-1.527905	1.280866	0.928032
Br	3.447194	0.0	0.0
