17

C	-0.484008	0.019214	-1.450838
C	0.0	0.0	0.0
F	0.06031	-1.077498	-2.106172
H	1.096169	0.0	0.0
C	-1.993647	-0.07032	-1.611434
H	-2.349487	-0.975808	-1.116537
H	-2.238679	-0.125487	-2.673754
H	-2.488574	0.800548	-1.17856
C	0.008574	1.241351	-2.120347
N	0.301009	2.246909	-2.651776
C	-0.470158	-1.226427	0.639978
N	-0.907108	-2.191094	1.149296
C	-0.447612	1.225181	0.802697
H	-1.53235	1.27566	0.925681
H	0.015106	1.17962	1.789535
H	-0.092006	2.135063	0.315743
Br	3.438675	0.0	0.0
