17

C	-0.387559	-0.025979	-1.487836
C	0.0	0.0	0.0
F	-0.018306	1.200896	-2.036448
H	1.09698	0.0	0.0
C	0.345789	-1.118835	-2.239202
H	0.034697	-2.103352	-1.884791
H	1.414988	-0.988539	-2.052358
H	0.134102	-1.034991	-3.307054
C	-1.854005	-0.128434	-1.656266
N	-3.017939	-0.209987	-1.79275
C	-0.470598	-1.229504	0.630801
N	-0.884069	-2.204419	1.140314
C	-0.519188	1.234699	0.732355
H	-0.161232	1.218888	1.763012
H	-0.123616	2.127021	0.248077
H	-1.612333	1.274012	0.735944
Br	3.481452	0.0	0.0
