17

C	-0.486169	0.011391	-1.45517
C	0.0	0.0	0.0
F	0.046384	-1.095589	-2.10172
H	1.096156	0.0	0.0
C	-1.997819	-0.063477	-1.612122
H	-2.243364	-0.126546	-2.673787
H	-2.364557	-0.958892	-1.107143
H	-2.482099	0.8182	-1.19025
C	0.00702	1.222732	-2.141716
N	0.294607	2.21129	-2.706342
C	-0.481432	-1.219837	0.642875
N	-0.931162	-2.173601	1.161331
C	-0.442137	1.234092	0.792999
H	-0.088647	2.138703	0.293939
H	-1.526117	1.286298	0.92264
H	0.027047	1.199077	1.777261
Br	3.447947	0.0	0.0
