15

C	-0.459179	-0.045186	-1.45027
C	0.0	0.0	0.0
F	-1.858829	-0.219318	-1.478254
H	1.093429	0.0	0.0
H	-0.359965	0.92869	0.461144
C	-0.212615	1.250463	-2.113385
N	-0.062749	2.283591	-2.650361
C	0.18568	-1.180295	-2.213323
H	-0.193846	-1.216565	-3.236694
H	-0.054474	-2.105068	-1.689553
H	1.269273	-1.040439	-2.213058
N	-0.450081	-1.212305	0.680649
H	-1.318668	-1.04913	1.168309
H	0.255486	-1.481823	1.351981
Cl	3.459788	0.0	0.0
