15

C	-0.454412	-0.076716	-1.4513
C	0.0	0.0	0.0
F	-1.850082	-0.275882	-1.481201
H	1.093473	0.0	0.0
H	-0.362346	0.937375	0.441878
C	-0.227747	1.210975	-2.135624
N	-0.091741	2.237142	-2.688961
C	0.21405	-1.214336	-2.190069
H	-0.011815	-2.133649	-1.65062
H	-0.158855	-1.276036	-3.214765
H	1.294886	-1.055951	-2.185072
N	-0.448384	-1.200852	0.700547
H	0.240336	-1.43734	1.402247
H	-1.336566	-1.040842	1.155068
Cl	3.461591	0.0	0.0
