15

C	-0.428446	-0.0708	-1.453623
C	0.0	0.0	0.0
F	-0.139198	-1.356962	-1.931014
H	1.093673	0.0	0.0
H	-0.345737	0.955139	0.407919
C	-1.890108	0.105931	-1.596425
N	-3.038389	0.31234	-1.73173
C	0.334541	0.922622	-2.305544
H	1.40059	0.759203	-2.140932
H	0.085118	0.781218	-3.358789
H	0.083814	1.943495	-2.01315
N	-0.616185	-1.095695	0.750803
H	-0.127233	-1.942024	0.48579
H	-0.417059	-0.952941	1.733845
Cl	3.52959	0.0	0.0
