15

C	-0.460787	-0.047052	-1.44334
C	0.0	0.0	0.0
F	-1.840775	-0.346144	-1.473203
H	1.093522	0.0	0.0
H	-0.3179	-0.953841	0.443753
C	-0.322985	1.267779	-2.098141
N	-0.22703	2.279617	-2.684443
C	0.278728	-1.113519	-2.225341
H	0.10481	-2.08182	-1.750096
H	-0.080691	-1.151756	-3.255452
H	1.350131	-0.902799	-2.20061
N	-0.527296	1.16499	0.69961
H	0.212149	1.576807	1.251363
H	-1.285902	0.910256	1.314742
Cl	3.464919	0.0	0.0
