15

C	-0.560335	-0.019973	-1.414735
C	0.0	0.0	0.0
F	0.016385	1.021463	-2.137517
H	1.098477	0.0	0.0
H	-0.344857	0.934722	0.454895
C	-0.219243	-1.288605	-2.091307
N	-0.021488	-2.321477	-2.613351
C	-2.067116	0.171546	-1.447948
H	-2.544214	-0.60752	-0.855416
H	-2.434232	0.142742	-2.47582
H	-2.298247	1.148145	-1.015586
N	-0.562993	-1.140122	0.74498
H	-0.480376	-0.933095	1.732953
H	0.05427	-1.930371	0.586513
Cl	3.520829	0.0	0.0
