18

C	-0.295734	-0.068236	-1.51205
C	0.0	0.0	0.0
Cl	-2.077691	-0.340788	-1.800741
H	1.093924	0.0	0.0
C	0.095443	1.195934	-2.258724
H	-0.051153	1.035029	-3.330232
H	1.151861	1.393883	-2.058252
H	-0.491531	2.062	-1.954755
N	0.395533	-1.25727	-1.962811
H	1.378479	-1.160933	-1.696398
H	0.346437	-1.303263	-2.975388
N	-0.471009	-1.080975	0.797397
H	-1.333246	-1.459892	0.428455
H	0.238059	-1.801099	0.806294
N	-0.518356	1.296692	0.553421
O	-1.636371	1.283567	1.065108
O	0.188171	2.296218	0.426405
Br	3.476514	0.0	0.0
