18

C	-0.464739	0.029534	-1.458697
C	0.0	0.0	0.0
Cl	-2.376615	0.304117	-1.382978
H	1.091619	0.0	0.0
C	0.080663	1.155457	-2.307685
H	1.169499	1.140116	-2.209755
H	-0.298117	2.123664	-1.99546
H	-0.20107	0.982239	-3.350151
N	-0.155565	-1.211765	-2.009586
H	-0.488398	-1.328606	-2.954726
H	-0.403387	-1.972157	-1.391443
N	-0.472417	-1.168254	0.665242
H	0.144784	-1.380401	1.439186
H	-1.410041	-1.014578	1.017645
N	-0.407334	1.27747	0.718808
O	-1.171561	1.180285	1.679122
O	0.075153	2.330095	0.312788
Br	3.470753	0.0	0.0
