18

C	-0.531575	0.043099	-1.430338
C	0.0	0.0	0.0
Cl	0.193176	1.519597	-2.256738
H	1.092776	0.0	0.0
C	0.020838	-1.157811	-2.178443
H	-0.412103	-2.065751	-1.760818
H	-0.229257	-1.072399	-3.239593
H	1.105926	-1.188258	-2.067812
N	-1.962054	0.051757	-1.460196
H	-2.296618	0.945774	-1.122343
H	-2.282548	-0.086338	-2.410833
N	-0.445162	-1.196088	0.645296
H	0.072877	-1.330325	1.503103
H	-1.442468	-1.174759	0.813906
N	-0.413932	1.216493	0.831532
O	0.073866	1.263804	1.957218
O	-1.237327	2.029602	0.39756
Br	3.500433	0.0	0.0
