18

C	-0.520492	-0.015212	-1.441871
C	0.0	0.0	0.0
Cl	-0.089141	1.624194	-2.183328
H	1.090121	0.0	0.0
C	0.255902	-1.056905	-2.222765
H	-0.036621	-1.029014	-3.276199
H	0.032235	-2.036077	-1.800977
H	1.325513	-0.861567	-2.135215
N	-1.922632	-0.258495	-1.499494
H	-2.430756	0.479129	-1.027362
H	-2.222345	-0.313861	-2.464893
N	-0.438665	-1.177376	0.675942
H	-1.435076	-1.161643	0.842205
H	0.08487	-1.30188	1.532399
N	-0.4858	1.260273	0.704919
O	-1.711334	1.353648	0.87123
O	0.33312	2.079761	1.098378
Br	3.553863	0.0	0.0
