18

C	-0.47894	0.152866	-1.446645
C	0.0	0.0	0.0
Cl	-2.379913	0.475253	-1.326673
H	1.089524	0.0	0.0
C	0.092971	1.320288	-2.217908
H	-0.249565	2.273731	-1.829815
H	1.181197	1.2628	-2.133636
H	-0.203329	1.233662	-3.267121
N	-0.217328	-1.053542	-2.093553
H	-0.576129	-1.086478	-3.036117
H	-0.486536	-1.846933	-1.527804
N	-0.472111	-1.217627	0.573553
H	-1.390383	-1.078482	0.978005
H	0.1697	-1.506568	1.301379
N	-0.395346	1.213785	0.82885
O	-1.125101	1.034535	1.803716
O	0.062282	2.299627	0.489193
Br	3.456465	0.0	0.0
