16

C	-0.453177	-0.01137	-1.467624
C	0.0	0.0	0.0
Br	0.247262	1.586643	-2.414511
H	1.10074	0.0	0.0
C	0.049882	-1.182265	-2.187783
N	0.44705	-2.117469	-2.779557
C	-1.910667	0.037674	-1.588745
N	-3.082826	0.019644	-1.682616
C	-0.485346	-1.25213	0.706944
H	-0.137299	-2.152826	0.197026
H	-0.041967	-1.263011	1.70763
H	-1.577076	-1.28104	0.797562
N	-0.552768	1.203885	0.626962
H	0.153144	1.930568	0.534648
H	-0.634147	1.02047	1.620976
H	2.800979	0.0	0.0
