16

C	-0.419612	0.016408	-1.493801
C	0.0	0.0	0.0
Br	0.292106	-1.542935	-2.490719
H	1.095577	0.0	0.0
C	-1.876245	-0.029436	-1.626097
N	-3.052906	-0.056141	-1.648444
C	0.075432	1.221767	-2.164525
N	0.447192	2.179133	-2.737235
C	-0.551644	-1.198876	0.742054
H	-0.11121	-1.181549	1.740267
H	-1.64242	-1.156039	0.843337
H	-0.273479	-2.13809	0.261386
N	-0.39166	1.236712	0.649791
H	-1.329887	1.545581	0.419941
H	0.283133	1.961786	0.433633
H	2.773714	0.0	0.0
