16

C	-0.512739	-0.146029	-1.443522
C	0.0	0.0	0.0
Br	0.197968	-1.786821	-2.300909
H	1.112145	0.0	0.0
C	-1.97224	-0.256286	-1.471099
N	-3.140956	-0.382387	-1.430108
C	-0.102156	0.984247	-2.27861
N	0.17266	1.865298	-3.006345
C	-0.490983	-1.102013	0.917153
H	-1.574501	-1.051897	1.085562
H	0.023614	-0.983422	1.87495
H	-0.241166	-2.092464	0.531925
N	-0.416204	1.334767	0.424625
H	-1.067389	1.288673	1.198281
H	0.418875	1.828204	0.727728
H	2.752087	0.0	0.0
