16

C	-0.447091	0.152134	-1.468062
C	0.0	0.0	0.0
Br	0.314287	1.796964	-2.253985
H	1.110165	0.0	0.0
C	-0.000511	-0.968091	-2.297808
N	0.312668	-1.893152	-2.95274
C	-1.901341	0.271948	-1.567278
N	-3.076091	0.331063	-1.600253
C	-0.469418	-1.330772	0.567014
H	-0.038156	-1.430986	1.567118
H	-1.562962	-1.390644	0.643009
H	-0.108558	-2.172566	-0.028119
N	-0.469408	1.153524	0.747515
H	0.32969	1.543839	1.237127
H	-1.172456	0.889095	1.42588
H	2.756457	0.0	0.0
