16

C	-0.437374	0.000883	-1.435726
C	0.0	0.0	0.0
Br	-2.49467	0.040643	-1.624457
H	1.097531	0.0	0.0
C	0.014503	1.195939	-2.141745
N	0.371276	2.15823	-2.715713
C	-0.029516	-1.200412	-2.15876
N	0.289809	-2.167024	-2.747244
C	-0.430177	-1.237811	0.763054
H	0.058626	-1.211305	1.740388
H	-0.106277	-2.153436	0.260332
H	-1.516	-1.276698	0.905089
N	-0.372665	1.265987	0.605456
H	-1.186579	1.161166	1.200391
H	0.415681	1.578292	1.164987
H	2.63293	0.0	0.0
