16

C	-0.511961	0.049027	-1.451362
C	0.0	0.0	0.0
Br	0.241831	1.609168	-2.397904
H	1.104849	0.0	0.0
C	-0.145069	-1.138671	-2.223987
N	0.098037	-2.106621	-2.845824
C	-1.967655	0.199305	-1.472306
N	-3.140383	0.28012	-1.433562
C	-0.456696	-1.278199	0.686109
H	-0.143842	-2.168838	0.136141
H	-1.54497	-1.310957	0.828887
H	0.032088	-1.312935	1.664424
N	-0.448283	1.207974	0.675663
H	-1.089435	0.991276	1.429226
H	0.373047	1.657165	1.069063
H	2.75474	0.0	0.0
