16

C	-0.515171	0.105729	-1.447703
C	0.0	0.0	0.0
Br	0.114316	-1.403919	-2.564188
H	1.109115	0.0	0.0
C	-1.978064	0.073813	-1.475451
N	-3.151955	0.020654	-1.426241
C	-0.050612	1.33709	-2.09014
N	0.276772	2.313311	-2.656695
C	-0.500761	-1.233323	0.723226
H	-0.249843	-2.149713	0.187031
H	0.005658	-1.270495	1.691142
H	-1.585006	-1.206576	0.889935
N	-0.405131	1.250588	0.635601
H	-1.083017	1.092691	1.370232
H	0.427127	1.676833	1.034633
H	2.756483	0.0	0.0
