16

C	-0.510004	0.086538	-1.451285
C	0.0	0.0	0.0
Br	0.219574	1.69205	-2.341984
H	1.109588	0.0	0.0
C	-0.117274	-1.069026	-2.258944
N	0.160095	-2.012401	-2.903576
C	-1.967687	0.21031	-1.474662
N	-3.143033	0.255737	-1.437823
C	-0.457555	-1.29454	0.650955
H	-1.544582	-1.328907	0.798066
H	-0.149862	-2.169042	0.074088
H	0.035988	-1.359582	1.62445
N	-0.453372	1.187319	0.709233
H	0.37189	1.652715	1.073152
H	-1.053141	0.940314	1.485684
H	2.754634	0.0	0.0
