16

C	-0.491297	-0.064355	-1.459771
C	0.0	0.0	0.0
Br	0.173151	-1.686443	-2.38342
H	1.110647	0.0	0.0
C	-1.952829	-0.113454	-1.516979
N	-3.127764	-0.173599	-1.500282
C	-0.019656	1.089505	-2.228814
N	0.313722	1.999053	-2.894352
C	-0.507044	-1.146573	0.849888
H	-0.027682	-1.064124	1.829513
H	-0.230845	-2.115605	0.430319
H	-1.596317	-1.11553	0.983348
N	-0.416356	1.311954	0.483221
H	0.409839	1.788925	0.83214
H	-1.100735	1.238973	1.224911
H	2.755153	0.0	0.0
