16

C	-0.454695	-0.001496	-1.434976
C	0.0	0.0	0.0
Br	-2.50532	0.017505	-1.599361
H	1.09752	0.0	0.0
C	-0.023743	1.200886	-2.141294
N	0.342154	2.154579	-2.722519
C	-0.03914	-1.194714	-2.167745
N	0.298489	-2.155316	-2.755825
C	-0.425663	-1.235511	0.768623
H	-0.138093	-2.154301	0.250092
H	-1.50708	-1.253981	0.948692
H	0.099763	-1.22485	1.728147
N	-0.371881	1.264765	0.608365
H	0.447797	1.618495	1.093371
H	-1.127705	1.147858	1.272072
H	2.642331	0.0	0.0
