16

C	-0.508906	0.076648	-1.45226
C	0.0	0.0	0.0
Br	0.207595	1.680231	-2.352721
H	1.110142	0.0	0.0
C	-0.10733	-1.083984	-2.25018
N	0.170515	-2.035871	-2.8814
C	-1.968194	0.185262	-1.475121
N	-3.144013	0.21168	-1.433112
C	-0.453727	-1.293782	0.659155
H	-0.146231	-2.170458	0.08449
H	-1.540513	-1.329782	0.809269
H	0.045136	-1.352573	1.631104
N	-0.451482	1.19182	0.703309
H	0.37435	1.639577	1.088683
H	-1.071222	0.950628	1.46538
H	2.759272	0.0	0.0
