18

C	-0.557942	0.002142	-1.415111
C	0.0	0.0	0.0
Br	0.425004	1.457302	-2.416627
H	1.089268	0.0	0.0
N	-0.155783	-1.244208	-2.207702
O	0.886717	-1.789142	-1.896907
O	-0.901123	-1.555607	-3.133451
N	-1.952616	0.136299	-1.48728
H	-2.267669	-0.059009	-2.430051
H	-2.234276	1.065441	-1.206252
N	-0.42493	-1.256008	0.716538
O	-1.001054	-2.144748	0.091209
O	-0.150219	-1.307138	1.912534
C	-0.489396	1.18427	0.819588
H	0.032787	1.17881	1.77437
H	-1.566167	1.125176	1.005253
H	-0.248157	2.114349	0.30492
Br	3.45854	0.0	0.0
