18

C	-0.51772	0.003679	-1.435178
C	0.0	0.0	0.0
Br	0.545983	1.438234	-2.395557
H	1.0867	0.0	0.0
N	-0.10864	-1.268266	-2.178526
O	-0.680684	-1.471538	-3.24577
O	0.749363	-1.969861	-1.663499
N	-1.894483	0.139125	-1.608527
H	-2.257587	0.952594	-1.134722
H	-2.136929	0.14176	-2.590507
N	-0.432313	-1.259949	0.71256
O	-1.631394	-1.547078	0.688594
O	0.429408	-1.878497	1.324943
C	-0.527535	1.163313	0.823661
H	-1.607747	1.08827	0.973847
H	-0.273774	2.108788	0.344043
H	-0.03542	1.139783	1.797767
Br	3.524031	0.0	0.0
