18

C	-0.412895	0.002953	-1.462377
C	0.0	0.0	0.0
Br	0.496553	-1.388538	-2.465446
H	1.090157	0.0	0.0
N	-1.950232	-0.297915	-1.602428
O	-2.344757	-1.451442	-1.691764
O	-2.660906	0.695038	-1.424767
N	-0.102124	1.259995	-2.047551
H	-0.125672	1.207848	-3.058778
H	-0.773068	1.950549	-1.732741
N	-0.408891	-1.289237	0.644653
O	0.468784	-2.129665	0.831475
O	-1.57991	-1.394303	1.026562
C	-0.554481	1.155406	0.806329
H	-0.142714	2.093867	0.430067
H	-1.645074	1.192341	0.794613
H	-0.222037	1.048222	1.842553
Br	2.75491	0.0	0.0
