18

C	-0.468017	0.02279	-1.460461
C	0.0	0.0	0.0
Br	0.404022	-1.314447	-2.546535
H	1.090121	0.0	0.0
N	-2.014057	-0.312385	-1.475542
O	-2.757614	0.670877	-1.474788
O	-2.375979	-1.47993	-1.432089
N	-0.219925	1.293292	-2.026379
H	-0.323736	1.265581	-3.033065
H	-0.856804	1.976853	-1.634102
N	-0.474019	-1.255216	0.66575
O	-1.517143	-1.185406	1.325798
O	0.192719	-2.273973	0.50493
C	-0.465129	1.214928	0.784902
H	0.07439	2.086903	0.410763
H	-0.177825	1.079204	1.828347
H	-1.544206	1.372257	0.739382
Br	3.457319	0.0	0.0
