18

C	-0.461248	-0.012339	-1.448766
C	0.0	0.0	0.0
Br	-0.076248	1.815571	-2.246327
H	1.090288	0.0	0.0
N	0.423289	-0.909988	-2.347948
O	-0.156036	-1.575204	-3.199145
O	1.619544	-0.882082	-2.163151
N	-1.775565	-0.441043	-1.603587
H	-2.435357	0.122522	-1.086409
H	-2.048875	-0.574881	-2.566344
N	-0.419406	-1.346737	0.509902
O	-1.325179	-1.413297	1.347193
O	0.223003	-2.310115	0.088379
C	-0.566206	1.094688	0.872129
H	-0.29661	0.893882	1.911021
H	-0.135122	2.054293	0.587565
H	-1.656749	1.160237	0.826676
Br	2.733686	0.0	0.0
