16

C	-0.414426	0.062433	-1.478115
C	0.0	0.0	0.0
Br	-0.009886	-1.727641	-2.338781
H	1.100836	0.0	0.0
N	-1.827244	0.234887	-1.594591
H	-2.077591	1.010334	-0.988173
H	-2.091781	0.426024	-2.553256
N	0.38456	1.092763	-2.059745
H	1.377202	0.90192	-1.91105
H	0.203934	1.175076	-3.054077
C	-0.547397	-1.156572	0.698842
N	-0.949711	-2.065571	1.323507
N	-0.513872	1.238128	0.632953
H	0.062626	1.986415	0.25775
H	-0.302085	1.18075	1.624113
Br	3.497106	0.0	0.0
