16

C	-0.206369	0.025039	-1.514043
C	0.0	0.0	0.0
Br	-2.116987	0.036207	-1.996261
H	1.108771	0.0	0.0
N	0.340695	1.293344	-1.976677
H	0.1641	1.398624	-2.971731
H	1.351158	1.25239	-1.818018
N	0.361675	-1.190332	-2.034895
H	1.340762	-1.221402	-1.747983
H	0.313394	-1.188416	-3.045782
C	-0.500773	-1.23075	0.604973
N	-0.869072	-2.202464	1.151143
N	-0.573164	1.168906	0.65947
H	-0.402959	1.945174	0.026949
H	-0.023165	1.340915	1.495971
Br	3.486514	0.0	0.0
