16

C	-0.412411	0.069964	-1.472402
C	0.0	0.0	0.0
Br	0.120254	-1.818386	-2.302499
H	1.099397	0.0	0.0
N	-1.799703	0.248884	-1.650279
H	-2.310308	-0.375686	-1.038668
H	-2.072593	0.059193	-2.606445
N	0.353592	1.070579	-2.093713
H	0.13197	1.168326	-3.075728
H	1.348362	0.888548	-1.965012
C	-0.540279	-1.182369	0.673533
N	-1.01838	-2.075337	1.268112
N	-0.523264	1.201786	0.686546
H	0.133977	1.402029	1.434757
H	-0.433731	1.96256	0.020156
Br	3.474874	0.0	0.0
