16

C	-0.404342	0.072981	-1.489687
C	0.0	0.0	0.0
Br	-0.072685	-1.775986	-2.289612
H	1.101098	0.0	0.0
N	-1.789742	0.358243	-1.764758
H	-2.347104	-0.448673	-1.51003
H	-2.033181	1.11518	-1.128535
N	0.406797	1.068728	-2.059937
H	1.39576	0.889818	-1.892332
H	0.204105	1.183075	-3.043328
C	-0.582745	-1.137243	0.698248
N	-1.091657	-1.994294	1.319769
N	-0.508337	1.244282	0.62519
H	-0.307845	1.188965	1.618889
H	0.08002	1.986206	0.255873
Br	3.47577	0.0	0.0
