16

C	-0.353526	0.054119	-1.498802
C	0.0	0.0	0.0
Br	0.119618	-1.868153	-2.286432
H	1.094613	0.0	0.0
N	-1.738137	0.273408	-1.717442
H	-2.263233	-0.53112	-1.39392
H	-1.934425	0.405052	-2.703058
N	0.457792	1.01992	-2.112015
H	0.383019	0.996662	-3.120133
H	1.431532	0.876072	-1.840858
C	-0.602044	-1.156664	0.662126
N	-1.166798	-2.037574	1.195858
N	-0.41638	1.222753	0.685661
H	0.332249	1.895822	0.581245
H	-1.240495	1.589496	0.221633
Br	3.44943	0.0	0.0
