15

C	-0.399087	-0.001695	-1.45889
C	0.0	0.0	0.0
Br	0.10947	-1.72477	-2.241722
H	1.093065	0.0	0.0
H	-0.370269	-0.885244	0.517908
N	-1.921676	0.038877	-1.61929
O	-2.588883	-0.584817	-0.799927
O	-2.378195	0.683575	-2.560858
C	0.264212	1.11758	-2.219698
H	-0.102363	2.075666	-1.842363
H	1.337313	1.038211	-2.010873
H	0.062788	1.053416	-3.287399
C	-0.500873	1.19812	0.652318
N	-0.885867	2.179917	1.172593
H	2.714146	0.0	0.0
