15

C	-0.334765	-0.039175	-1.466606
C	0.0	0.0	0.0
Br	-2.297267	-0.020789	-1.840126
H	1.095793	0.0	0.0
H	-0.358001	0.914435	0.472301
N	0.149302	1.276889	-2.082009
O	0.635679	1.22939	-3.206646
O	-0.015415	2.296516	-1.422932
C	0.318647	-1.206116	-2.153819
H	0.150717	-1.188675	-3.228523
H	1.390996	-1.1355	-1.923364
H	-0.075561	-2.13148	-1.7315
C	-0.489404	-1.170176	0.696736
N	-0.858067	-2.127373	1.271566
H	2.667346	0.0	0.0
