15

C	-0.33164	-0.038058	-1.467718
C	0.0	0.0	0.0
Br	-2.292869	-0.025418	-1.848671
H	1.095644	0.0	0.0
H	-0.358553	0.913922	0.472845
N	0.150656	1.279918	-2.081845
O	-0.016996	2.299221	-1.422357
O	0.638011	1.233621	-3.2059
C	0.326017	-1.202328	-2.155027
H	-0.063724	-2.129864	-1.732371
H	0.156356	-1.185589	-3.22844
H	1.397641	-1.126939	-1.925765
C	-0.489607	-1.170803	0.695526
N	-0.856795	-2.127877	1.271424
H	2.665153	0.0	0.0
