15

C	-0.334339	-0.02193	-1.467332
C	0.0	0.0	0.0
Br	-2.296446	0.000112	-1.840337
H	1.095443	0.0	0.0
H	-0.35789	0.908826	0.482978
N	0.148939	1.301532	-2.068137
O	0.630444	1.267259	-3.195837
O	-0.011519	2.31352	-1.395556
C	0.319607	-1.179761	-2.169095
H	-0.074097	-2.110374	-1.757569
H	0.151468	-1.149735	-3.243449
H	1.391986	-1.110943	-1.938486
C	-0.489454	-1.178289	0.683052
N	-0.857027	-2.143141	1.245529
H	2.667965	0.0	0.0
