16

C	-0.21129	0.002055	-1.498472
C	0.0	0.0	0.0
F	-1.577988	0.050927	-1.858469
H	1.09721	0.0	0.0
H	0.162423	-0.958983	-1.867397
C	0.551979	1.132947	-2.150461
H	0.119671	2.095295	-1.86659
H	1.573784	1.057666	-1.758944
H	0.542095	1.047524	-3.240575
C	-0.543412	-1.246753	0.688488
H	-0.331893	-1.213882	1.759837
H	-1.622643	-1.362522	0.545037
H	-0.033515	-2.123114	0.278317
C	-0.516609	1.21462	0.603835
N	-0.947542	2.18327	1.112185
F	2.622985	0.0	0.0
