16

C	-0.332963	-0.143436	-1.48576
C	0.0	0.0	0.0
F	-0.19316	1.108444	-2.100755
H	1.096497	0.0	0.0
H	-1.381296	-0.436164	-1.651946
C	0.653662	-1.094452	-2.138861
H	1.643842	-0.858861	-1.729804
H	0.625949	-0.967921	-3.22405
H	0.405384	-2.133907	-1.906849
C	-0.415258	-1.250113	0.78081
H	0.220078	-2.081957	0.475632
H	-1.466912	-1.519853	0.629439
H	-0.250121	-1.094072	1.848247
C	-0.608064	1.188721	0.564049
N	-1.134492	2.122925	1.0473
F	2.640855	0.0	0.0
