16

C	-0.397636	0.051565	-1.473395
C	0.0	0.0	0.0
F	-0.030671	-1.164573	-2.067013
H	1.096132	0.0	0.0
H	0.213501	0.822165	-1.955016
C	-1.870562	0.259382	-1.768174
H	-2.043538	0.235547	-2.847717
H	-2.208225	1.221704	-1.377173
H	-2.46468	-0.534368	-1.308339
C	-0.469721	-1.260617	0.721493
H	-0.065261	-1.258202	1.73592
H	-1.559726	-1.362879	0.779592
H	-0.054282	-2.124339	0.201616
C	-0.478412	1.201072	0.656212
N	-0.879461	2.175441	1.18152
F	2.582286	0.0	0.0
