16

C	-0.397827	-0.008489	-1.474329
C	0.0	0.0	0.0
F	-0.03055	-1.247767	-2.017831
H	1.096063	0.0	0.0
H	0.21322	0.741963	-1.986805
C	-1.870843	0.186611	-1.777708
H	-2.04405	0.11829	-2.855167
H	-2.208618	1.163853	-1.426936
H	-2.464577	-0.587455	-1.285545
C	-0.46951	-1.230904	0.771886
H	-0.064714	-1.187557	1.785152
H	-0.054102	-2.11449	0.28684
H	-1.55937	-1.331033	0.834484
C	-0.478607	1.226629	0.607434
N	-0.87922	2.22095	1.094444
F	2.582066	0.0	0.0
