15

C	-0.448706	-0.008928	-1.473433
C	0.0	0.0	0.0
Cl	0.259165	1.435377	-2.27903
H	1.096591	0.0	0.0
C	0.084163	-1.204607	-2.136093
N	0.427563	-2.179187	-2.696357
C	-1.965018	0.042651	-1.639596
H	-2.415925	-0.829338	-1.158798
H	-2.346278	0.949848	-1.167545
H	-2.230622	0.050179	-2.698624
C	-0.470109	-1.19839	0.666831
N	-0.854111	-2.174031	1.20181
C	-0.491044	1.179833	0.683393
N	-0.853403	2.151123	1.240718
H	2.452584	0.0	0.0
