15

C	-0.430715	-0.01114	-1.479839
C	0.0	0.0	0.0
Cl	0.266728	1.443763	-2.277133
H	1.096506	0.0	0.0
C	0.118004	-1.198152	-2.146
N	0.437572	-2.166019	-2.730802
C	-1.944062	0.020483	-1.672149
H	-2.189695	0.025694	-2.7364
H	-2.345144	0.922325	-1.205986
H	-2.39023	-0.859577	-1.202027
C	-0.461685	-1.202654	0.666094
N	-0.832093	-2.177112	1.213509
C	-0.491889	1.179577	0.682616
N	-0.837517	2.15527	1.243678
H	2.459735	0.0	0.0
