15

C	-0.359344	0.020482	-1.501793
C	0.0	0.0	0.0
Cl	0.234499	-1.51391	-2.23094
H	1.097295	0.0	0.0
C	-1.806597	0.067293	-1.722461
N	-2.966175	0.14696	-1.899646
C	0.352872	1.191597	-2.168473
H	-0.049396	2.132892	-1.786587
H	1.412891	1.113603	-1.908537
H	0.212193	1.150969	-3.24985
C	-0.507762	-1.164491	0.699079
N	-0.863353	-2.120386	1.285717
C	-0.447214	1.224682	0.638105
N	-0.794843	2.239188	1.123166
H	2.509258	0.0	0.0
