15

C	-0.354491	0.015676	-1.503335
C	0.0	0.0	0.0
Cl	0.222518	-1.529961	-2.220875
H	1.097324	0.0	0.0
C	-1.799721	0.081023	-1.730449
N	-2.957714	0.177386	-1.917641
C	0.375093	1.174032	-2.174044
H	1.432846	1.084724	-1.908034
H	0.239377	1.128124	-3.255542
H	-0.017137	2.122654	-1.799735
C	-0.513752	-1.158421	0.704848
N	-0.871971	-2.109017	1.298382
C	-0.447159	1.228736	0.631239
N	-0.793832	2.243358	1.116196
H	2.510873	0.0	0.0
