15

C	-0.314099	-0.00873	-1.4982
C	0.0	0.0	0.0
Cl	-2.103643	-0.112637	-1.820102
H	1.098516	0.0	0.0
C	0.134833	1.255178	-2.087526
N	0.46937	2.25284	-2.610397
C	0.395225	-1.182587	-2.154206
H	1.452573	-1.112589	-1.869652
H	0.278082	-1.144735	-3.238073
H	-0.02377	-2.117263	-1.777156
C	-0.43516	-1.221928	0.647462
N	-0.740203	-2.239899	1.152376
C	-0.498638	1.173445	0.688097
N	-0.848457	2.142534	1.256329
H	2.48583	0.0	0.0
