15

C	-0.407357	-0.039428	-1.486817
C	0.0	0.0	0.0
Cl	0.262185	1.425731	-2.287436
H	1.096579	0.0	0.0
C	0.186999	-1.217417	-2.130873
N	0.53577	-2.181752	-2.705736
C	-1.916281	-0.054351	-1.705758
H	-2.142447	-0.064076	-2.774342
H	-2.353006	0.837853	-1.253832
H	-2.343969	-0.944546	-1.237759
C	-0.460331	-1.196465	0.677722
N	-0.829777	-2.16775	1.231307
C	-0.506781	1.18578	0.658083
N	-0.867835	2.164171	1.204808
H	2.456178	0.0	0.0
