15

C	-0.367254	0.019385	-1.499622
C	0.0	0.0	0.0
Cl	0.23393	-1.510664	-2.233765
H	1.097282	0.0	0.0
C	-1.816513	0.05462	-1.711707
N	-2.977581	0.118909	-1.890007
C	0.330708	1.196946	-2.170236
H	0.183424	1.155152	-3.25052
H	-0.077417	2.13479	-1.785852
H	1.393495	1.128609	-1.91865
C	-0.506412	-1.163939	0.701844
N	-0.850872	-2.121618	1.292301
C	-0.444926	1.224604	0.640589
N	-0.778891	2.24565	1.121575
H	2.506581	0.0	0.0
