15

C	-0.354572	0.02229	-1.503349
C	0.0	0.0	0.0
Cl	0.220598	-1.521189	-2.227001
H	1.097321	0.0	0.0
C	-1.800031	0.090479	-1.731168
N	-2.956438	0.193122	-1.918019
C	0.37639	1.18271	-2.168711
H	0.240832	1.141324	-3.250667
H	-0.015278	2.129746	-1.790655
H	1.433895	1.091878	-1.902218
C	-0.515489	-1.160948	0.699309
N	-0.879161	-2.113049	1.287221
C	-0.443124	1.226987	0.636649
N	-0.77575	2.247966	1.118503
H	2.510066	0.0	0.0
