15

C	-0.311233	-0.004794	-1.500982
C	0.0	0.0	0.0
Cl	-2.101203	-0.110575	-1.826356
H	1.098598	0.0	0.0
C	0.13693	1.259573	-2.089622
N	0.490969	2.273696	-2.566481
C	0.401149	-1.17793	-2.156065
H	-0.020934	-2.113793	-1.787829
H	0.295756	-1.13432	-3.240158
H	1.455591	-1.110302	-1.860633
C	-0.441775	-1.225588	0.634241
N	-0.739611	-2.245351	1.139619
C	-0.502533	1.170124	0.690075
N	-0.862582	2.14013	1.25017
H	2.485269	0.0	0.0
