15

C	-0.475646	0.076245	-1.448384
C	0.0	0.0	0.0
Cl	0.070423	-1.398201	-2.303377
H	1.095041	0.0	0.0
H	-1.565885	0.064131	-1.489575
C	0.130123	1.298044	-2.115824
H	-0.250131	2.211581	-1.651391
H	-0.129799	1.310798	-3.175732
H	1.216969	1.266973	-2.007617
N	-0.523573	-1.224317	0.706763
O	-1.623827	-1.643505	0.352539
O	0.159925	-1.67419	1.617179
C	-0.498682	1.148542	0.748857
N	-0.928502	2.105398	1.279207
Br	3.394709	0.0	0.0
