15

C	-0.404392	0.050231	-1.473059
C	0.0	0.0	0.0
Cl	-2.190797	-0.11477	-1.642798
H	1.097048	0.0	0.0
H	-0.176536	1.069762	-1.791423
C	0.321454	-0.931311	-2.370992
H	0.125855	-0.673935	-3.414751
H	1.393454	-0.857544	-2.164827
H	-0.003625	-1.952781	-2.187222
N	-0.445495	-1.263896	0.673723
O	-1.151749	-1.177739	1.673129
O	-0.051459	-2.30945	0.169935
C	-0.505013	1.15319	0.731346
N	-0.89599	2.104472	1.298248
Br	3.357443	0.0	0.0
