15

C	-0.493142	-0.103215	-1.438802
C	0.0	0.0	0.0
Cl	0.150507	-1.607645	-2.160802
H	1.090376	0.0	0.0
H	-1.579557	-0.198749	-1.457899
C	0.004032	1.089483	-2.237778
H	1.090287	1.160018	-2.14833
H	-0.448394	2.011648	-1.864306
H	-0.263641	0.970311	-3.288933
N	-0.49137	-1.13427	0.866749
O	0.118089	-1.31734	1.912705
O	-1.485007	-1.753693	0.491067
C	-0.494649	1.223092	0.623761
N	-0.925238	2.211254	1.091926
Br	3.378335	0.0	0.0
