17

C	0.0	0.0	0.0
C	-0.182821	-0.148677	-1.57993
Cl	1.849175	0.0	0.0
H	0.373739	0.676152	-2.02746
C	-0.388455	1.383241	0.322704
N	-0.598782	2.508956	0.579738
N	-0.60662	-0.89541	0.88315
H	-0.415927	-1.837785	0.561765
H	-1.64998	-0.653674	0.701045
C	-1.560925	-0.242167	-2.205685
H	-2.070832	-1.145063	-1.883116
H	-2.187882	0.573709	-1.862046
H	-1.421894	-0.23615	-3.293166
N	0.557141	-1.363308	-2.059479
O	0.310874	-2.440576	-1.515348
O	1.322849	-1.224474	-3.011574
F	-2.809537	0.0	0.0
