17

C	0.0	0.0	0.0
C	-0.203405	-0.111934	-1.584756
Cl	1.806443	0.0	0.0
H	0.415067	0.67185	-2.022986
C	-0.402544	1.375746	0.344741
N	-0.617756	2.497818	0.61562
N	-0.618012	-0.911739	0.867389
H	-0.456271	-1.846225	0.507544
H	-1.659528	-0.650392	0.699966
C	-1.582256	-0.080633	-2.211275
H	-1.444878	-0.169207	-3.296441
H	-2.221638	-0.856089	-1.806959
H	-2.077793	0.853853	-1.962653
N	0.449245	-1.370841	-2.074497
O	1.245837	-1.272253	-3.007627
O	0.110388	-2.437231	-1.560776
F	-2.82519	0.0	0.0
