17

C	0.0	0.0	0.0
C	-0.307712	-0.015092	-1.563041
Cl	1.801623	0.0	0.0
H	0.598757	0.343169	-2.046459
C	-0.361737	1.332635	0.534167
N	-0.563411	2.38837	1.011123
N	-0.601245	-1.096026	0.655931
H	-1.646518	-0.853271	0.486946
H	-0.405477	-1.023543	1.650076
C	-1.48851	0.743124	-2.130712
H	-1.438014	0.672559	-3.223964
H	-1.391694	1.795456	-1.849644
H	-2.413746	0.361166	-1.701328
N	-0.361961	-1.459868	-1.979368
O	0.715405	-1.995866	-2.250335
O	-1.453786	-2.012247	-2.035265
F	-2.790022	0.0	0.0
