10
Coordinates from ORCA-job run
  C   -0.50640519284963      0.36943063138145      0.27960566041449
  C   0.71272701935810     -0.21033461298287      0.33735834542651
  H   1.32149555094878     -0.21598890422973      1.23336505663593
  C   -1.37581300461211      0.38126432203346     -0.85787018089547
  N   -2.17010974940705      0.43813897595528     -1.72474961294126
  C   -0.99135625015223      1.02914855789418      1.45768156874948
  N   -1.38518990700123      1.57139069442790      2.42512289467409
  N   1.30654339038576     -0.93349275876865     -0.77764538618756
  O   2.25938153335346     -1.65212981581263     -0.47349910764016
  O   0.82972660997616     -0.77842708989840     -1.89836923823604
