10
Coordinates from ORCA-job run
  C   -0.51569125446000      0.40508228528240      0.20138861189603
  C   0.75194587406806     -0.04884380091179      0.31384946299157
  H   1.42358396749022      0.26643839670482      1.10298879621090
  C   -1.46497504301399      0.00323254740645     -0.79209378359844
  N   -2.32506062794398     -0.26508136689613     -1.54975927195367
  C   -0.96918300762726      1.37133590223388      1.16010640506617
  N   -1.33864355811090      2.16522711770863      1.94638942095467
  N   1.32437627320112     -1.04604527075545     -0.57868647168670
  O   0.75625276203796     -1.27714556228183     -1.64234371610671
  O   2.35639461435877     -1.57420024849098     -0.16283945377382
