10
Coordinates from ORCA-job run
  C   -0.64728770141293      0.17900549261330      0.14025009943251
  C   0.28276407016587     -0.74024003900568     -0.19965002714944
  H   0.03666449360426     -1.76401303757293     -0.45387708022803
  C   -2.01800709091354     -0.24085770895272      0.19407540739895
  N   -3.14162005263274     -0.58780320742637      0.23958518241191
  C   -0.39250134470146      1.55404383815642      0.44761590464758
  N   -0.29839748682503      2.69938343447162      0.70272409490652
  N   1.70070247538877     -0.43271668922657     -0.31923889210951
  O   2.35589352678110     -1.27030712739261     -0.94046017673844
  O   2.12178911054569      0.60250504433553      0.18897548742795
