10
Coordinates from ORCA-job run
  C   -0.50823546105399      0.37810700322478      0.26411314441263
  C   0.66677567287529     -0.27867226802268      0.38052419049949
  H   1.19101813419150     -0.38969213519154      1.32187017021635
  C   -1.26841153859581      0.52828270933237     -0.93980498872328
  N   -1.97625286878953      0.69797254191962     -1.86488512614937
  C   -1.06272890096010      0.97633600010252      1.44434083293947
  N   -1.51607572931440      1.47091305661092      2.41123172815544
  N   1.31917541255053     -0.95061497395653     -0.73414219346529
  O   0.95503774732142     -0.68321347592844     -1.87565784239510
  O   2.19969753177510     -1.74741845809102     -0.40758991549034
