10
Coordinates from ORCA-job run
  C   -0.66177070783385      0.15952970641347      0.08069048882214
  C   0.34621174069416     -0.73904592632238      0.03687245176276
  H   0.21035539747950     -1.79011252238929      0.26118878023674
  C   -1.97297479599332     -0.31907654976676      0.41223648119096
  N   -3.04721757177869     -0.71507612250978      0.68462498506205
  C   -0.54360925726610      1.56474918839956     -0.16674939855199
  N   -0.56121486301693      2.72921784375604     -0.33871848182134
  N   1.72525292523709     -0.37628719045038     -0.25525311511351
  O   2.55704029930398     -1.22780909645494      0.06027505217390
  O   1.94792683317416      0.71391066932447     -0.77416724376171
