10
Coordinates from ORCA-job run
  C   -0.66370146622328      0.16197740253279      0.05480203096424
  C   0.33850476173318     -0.74373920428091      0.02874626246858
  H   0.18521794347447     -1.79980128916773      0.21484886914565
  C   -1.99243955835385     -0.31327698119724      0.31279046713872
  N   -3.08216928854586     -0.70461157616104      0.52330994105161
  C   -0.52326589723167      1.57346927880020     -0.14087795740315
  N   -0.52159911109176      2.74330182148376     -0.27142814987404
  N   1.73173678671151     -0.38415761872710     -0.19071133650830
  O   2.54252781913532     -1.25183037701413      0.13554823549801
  O   1.98518801039195      0.71866854373142     -0.66702836248132
