10
Coordinates from ORCA-job run
  C   -0.49643850135643      0.40025909506146      0.25130192197547
  C   0.67029093805882     -0.26799636210236      0.38405541944970
  H   1.20510084684005     -0.34163338272016      1.32312452582471
  C   -1.27312329412392      0.50045809483112     -0.94745104939416
  N   -1.99475250786680      0.63431060723504     -1.86773801833648
  C   -1.02578967865931      1.06463781264721      1.40728380723008
  N   -1.45834041503819      1.61091144726852      2.35572912394300
  N   1.29313452129336     -1.00726229327015     -0.70395322246769
  O   0.92874491613404     -0.77756192638217     -1.85370595929481
  O   2.15117317471837     -1.81612309256851     -0.34864654892981
