10
Coordinates from ORCA-job run
  C   -0.53635802727536      0.35219507295715      0.24258635435359
  C   0.72985688787932     -0.10665289265158      0.35110036721988
  H   1.38726991841192      0.16264101129567      1.16876060546678
  C   -1.44213124420000      0.06695529472072     -0.82895903837124
  N   -2.25935452893850     -0.09023788098414     -1.66154054990355
  C   -1.03030054515286      1.21032000702668      1.28077525439408
  N   -1.43413374265231      1.91320086933204      2.13387665142371
  N   1.35757341795722     -0.95859126265647     -0.64860871406744
  O   0.64169056512995     -1.52797524027437     -1.46747585554917
  O   2.58488729884062     -1.02285497876568     -0.56951507496663
