10
Coordinates from ORCA-job run
  C   -0.66220568615495      0.15742712887049      0.08429641930708
  C   0.34760174878093     -0.73856503592187      0.02830583451475
  H   0.21443446023100     -1.79243630266529      0.24052048819885
  C   -1.97223601461287     -0.32815004173569      0.41031430314730
  N   -3.04608363094131     -0.72863564012946      0.67755120854564
  C   -0.54716239358332      1.56572890928010     -0.14629353205482
  N   -0.56420807257982      2.73255289941331     -0.30127314627711
  N   1.72541785270526     -0.36997645910601     -0.26288067003699
  O   2.55894025875364     -1.22650817310665      0.03448091144322
  O   1.94550147740142      0.72856271510107     -0.76502181678792
