10
Coordinates from ORCA-job run
  C   -0.51343024784099      0.41092332415575      0.19455809682471
  C   0.76094875816844     -0.02636493716111      0.29655253009464
  H   1.44849799121529      0.32897102741025      1.05445055197999
  C   -1.48216197805506     -0.04431092251119     -0.75635014764403
  N   -2.35707680948284     -0.35397203040655     -1.48050021639008
  C   -0.95444971524753      1.41462726985943      1.11986590692188
  N   -1.31415432305363      2.23868612553443      1.87911917254545
  N   1.32014122071992     -1.06061368628162     -0.56179053589949
  O   2.36300077941469     -1.56512827758464     -0.14375814787623
  O   0.73068432416171     -1.34281789301476     -1.60114721055683
