10
Coordinates from ORCA-job run
  C   -0.54155272405460      0.32597259468930      0.26638116885987
  C   0.75007182129278     -0.06738899350510      0.31646644602647
  H   1.43046510102442      0.23876038597049      1.10175675489044
  C   -1.48056241333213     -0.00939731407640     -0.76107156295448
  N   -2.32698553459499     -0.21145235647254     -1.55385904996135
  C   -1.02976130223899      1.16290817647791      1.32436294522159
  N   -1.42957657532505      1.84793978422073      2.19374112999990
  N   1.37300059053486     -0.89162456334627     -0.70902327597838
  O   0.64955537483618     -1.50057846603241     -1.49208044218729
  O   2.60434566185751     -0.89413924792570     -0.68667411391678
