10
Coordinates from ORCA-job run
  C   -0.66010972197920      0.17842741408352      0.05166420433915
  C   0.31447892925569     -0.75263952025579     -0.04299840524818
  H   0.12149072076938     -1.81696275619135      0.01512768777797
  C   -2.01138647389096     -0.27821523712184      0.20527045796921
  N   -3.11952771834121     -0.65412923675569      0.33030851855557
  C   -0.46974916471362      1.59712436425632      0.02156676464813
  N   -0.42731810074321      2.77355877607518      0.02353882040469
  N   1.72567380040909     -0.42006320692626     -0.17292341028320
  O   2.03151273408955      0.72306979935139     -0.50015308180627
  O   2.49593499514448     -1.35017039651547      0.06859844364294
