10
Coordinates from ORCA-job run
  C   -0.64473337731749      0.17228446020599      0.15991001102239
  C   0.28227581025051     -0.73379977535651     -0.22110260875620
  H   0.03537132496508     -1.75282488857345     -0.49346357242343
  C   -2.01162460496546     -0.25673939949519      0.23326759188619
  N   -3.13173113084741     -0.61270094560822      0.29213585080169
  C   -0.39008725737663      1.54177749514493      0.49100424592902
  N   -0.29728598341451      2.68156339322164      0.77052006753087
  N   1.69515937362333     -0.41518656977153     -0.36624964597825
  O   2.12434268111935      0.60610179765337      0.16349800703646
  O   2.33831316396324     -1.22947556742104     -1.02951994704874
