10
Coordinates from ORCA-job run
  C   -0.49669021781797      0.40957090230598      0.23663642985639
  C   0.69651455270552     -0.21013591008430      0.37078972488776
  H   1.28632988473947     -0.16486989539504      1.27816589521748
  C   -1.34173401913503      0.36147867673529     -0.91818743210096
  N   -2.11585490948122      0.38152052063605     -1.80478590220748
  C   -0.97910489612089      1.18302557206096      1.34441240350378
  N   -1.37178258647858      1.81870923734397      2.25366431322889
  N   1.28385537065958     -1.04433417691686     -0.66767396494874
  O   0.83045814699682     -0.97033592077226     -1.80620996345354
  O   2.20700867393230     -1.76462900591380     -0.28581150398358
