10
Coordinates from ORCA-job run
  C   -0.66497278762990      0.16790685944421      0.02783248661302
  C   0.32953614395437     -0.74666067840197      0.02144146623837
  H   0.15717468454680     -1.80705681342157      0.15865893615455
  C   -0.50078882942884      1.58364319955852     -0.10950981411644
  N   -0.48092368834545      2.75710898486311     -0.20143909286033
  C   -2.00904267289035     -0.30225097609908      0.20004688125748
  N   -3.11090344133251     -0.69047490326213      0.34166300534425
  N   1.73579394345055     -0.39629063291915     -0.11646045338118
  O   2.51956043925527     -1.28722482422620      0.21271023191218
  O   2.02456620842004      0.72129978446426     -0.53494364716189
