10
Coordinates from ORCA-job run
  C   -0.54419793523622      0.33601832296685      0.24789279576035
  C   0.72043777630524     -0.12529136026588      0.36388307169154
  H   1.35348000547059      0.09499801916223      1.21479223328046
  C   -1.41864832026105      0.11411742751346     -0.86390833144080
  N   -2.21225353264430      0.00565907006273     -1.72655821457660
  C   -1.07053473516713      1.12810519268571      1.32203819741901
  N   -1.50114532094402      1.77611179783429      2.20499160452662
  N   1.37942165163286     -0.91420355377761     -0.66682210026029
  O   0.68968559649540     -1.43076248969914     -1.54129786838962
  O   2.60375481434865     -0.98475242648265     -0.55401138801069
