10
Coordinates from ORCA-job run
  C   -0.52373801472053      0.37531213407259      0.23670828603937
  C   0.73303492106215     -0.10945171271840      0.34226945593044
  H   1.41036430123054      0.17622990590751      1.13788393646085
  C   -0.97834618230573      1.28643303781303      1.24724985585308
  N   -1.34935131158554      2.03444777403139      2.07662882279848
  C   -1.45409636089325      0.07017316327027     -0.80791562254075
  N   -2.28823313292357     -0.10152002529525     -1.62055003643220
  N   1.32258118012559     -1.01749253109646     -0.63053340230148
  O   0.57873857958584     -1.60259365460680     -1.41274214075601
  O   2.54904602042450     -1.11053809137787     -0.56799915505178
