10
Coordinates from ORCA-job run
  C   -0.53314583962227      0.35647442792496      0.24477763061219
  C   0.73648512124457     -0.09664807564722      0.33676139515130
  H   1.40678411479093      0.18629435459446      1.13923597178494
  C   -1.45814215011958      0.05213679105334     -0.80486452341678
  N   -2.28957596653193     -0.12410924341794     -1.61924751039326
  C   -1.01042236245892      1.22660201484836      1.28074621242332
  N   -1.40037364168702      1.93658233869869      2.13454904435743
  N   1.34903526915669     -0.96386647522569     -0.65887864761635
  O   0.62183062213160     -1.53689675419809     -1.46516431035211
  O   2.57652483309592     -1.03656937863088     -0.58991526255068
