10
Coordinates from ORCA-job run
  C   -0.64855015602384      0.20677129058571      0.12107939697137
  C   0.24950359401461     -0.76415595481286     -0.14750987915754
  H   -0.03139043509335     -1.78440886546595     -0.37305176009083
  C   -2.03766032132398     -0.14754742829174      0.13494783077356
  N   -3.18664936317737     -0.40874819836970      0.10600553355718
  C   -0.33276433183536      1.58226187097268      0.36322038424305
  N   -0.16155555357838      2.73852204213469      0.48550336081188
  N   1.68658287128707     -0.52087294478171     -0.21267859217614
  O   2.32393349601882     -1.35639685798265     -0.85494643276266
  O   2.13955019971180      0.45457504601153      0.37843015783012
