10
Coordinates from ORCA-job run
  C   -0.54173082216005      0.34340418734970      0.24336379709229
  C   0.71978515495094     -0.12493282423840      0.36513896584839
  H   1.35550796858433      0.10449553530864      1.21159851383879
  C   -1.41908351744446      0.11052258208765     -0.86383139923237
  N   -2.21434898895607     -0.00572529128851     -1.72395651265545
  C   -1.06069454365134      1.15633864203655      1.30549869897561
  N   -1.48527207386359      1.82185245100652      2.17830287018196
  N   1.37181693511503     -0.93468582945549     -0.65375171857653
  O   0.67717594155790     -1.46068954219033     -1.51869465981731
  O   2.59584394586731     -1.01157991061634     -0.54166855565537
