10
Coordinates from ORCA-job run
  C   -0.64583234881258      0.19215242249106      0.12900019775336
  C   0.27944815130915     -0.75320203592485     -0.14622320445326
  H   0.02794312542432     -1.79216174219645     -0.32109813233443
  C   -2.01747246253260     -0.21847290464015      0.22016116250511
  N   -3.14194268430189     -0.55727876605496      0.29594664863023
  C   -0.38598275697470      1.58539657200808      0.33200152157659
  N   -0.28805018448989      2.74610880612699      0.50210069035369
  N   1.69802128537850     -0.46183191162933     -0.29364755154382
  O   2.12377036994738      0.61015406201866      0.12696372757469
  O   2.34909750505232     -1.34986450219903     -0.84520506006217
