10
Coordinates from ORCA-job run
  C   -0.64661544566579      0.20761144068444      0.09438308654096
  C   0.26958961789402     -0.76139099350569     -0.12272547410832
  H   0.00406692418666     -1.79731458193277     -0.29501955001504
  C   -2.03011328635517     -0.17088196396781      0.12288798516721
  N   -3.16459395598901     -0.48288854073276      0.14775234145131
  C   -0.36594404692749      1.59762114192288      0.29185236654489
  N   -0.25162170177605      2.75810012979947      0.45310875080103
  N   1.69985812103890     -0.50289746071189     -0.20352339391614
  O   2.12814481145887      0.56620667227472      0.22176005091226
  O   2.35722896213505     -1.41316584383059     -0.70947616337815
