10
Coordinates from ORCA-job run
  C   -0.53076168222506      0.37636571255254      0.21570017354414
  C   0.72447655030635     -0.10096272311863      0.36427471727474
  H   1.37856655397741      0.19939223502722      1.17377155211236
  C   -1.43137134545271      0.04979025222760     -0.84832175169391
  N   -2.24483643218608     -0.13792765448696     -1.67827697337045
  C   -1.01747920212853      1.30214109071917      1.19763181457581
  N   -1.41618983223047      2.06012604526727      2.00479133903311
  N   1.34428178712728     -1.02162599294478     -0.57763965960504
  O   0.62589991370178     -1.61726882111017     -1.37539602196267
  O   2.56841368911003     -1.11103014413326     -0.47653518990809
