10
Coordinates from ORCA-job run
  C   -0.66414425397444      0.16052824359961      0.06096183511413
  C   0.34049949572413     -0.74220215854149      0.02689536315318
  H   0.19119924951594     -1.79883991956996      0.21303076941297
  C   -0.52895122105432      1.57240927885048     -0.13502609388848
  N   -0.52933235586224      2.74223268522824     -0.26640420803893
  C   -1.98953058537180     -0.31964180996198      0.32702547832707
  N   -3.07667652245501     -0.71526892261541      0.54293163464746
  N   1.73117237781872     -0.37895597092712     -0.20337442152873
  O   2.54660131696830     -1.24626235750792      0.11221157056174
  O   1.97816249869074      0.72600093144556     -0.67825192776040
