10
Coordinates from ORCA-job run
  C   -0.51828995250719      0.42427880442846      0.14795176922140
  C   0.76180575372977      0.01833777724753      0.29602490379267
  H   1.44434426897696      0.46475141826801      1.00885932689442
  C   -1.48039214601384     -0.14929794002750     -0.74380441237943
  N   -2.34942985358796     -0.55253423866678     -1.42781226299839
  C   -0.97315785879961      1.52020994444142      0.95429545015245
  N   -1.34423850353695      2.42039583711199      1.61525762530953
  N   1.33264249726523     -1.09998060286152     -0.44047586399930
  O   2.36923643045898     -1.55632341745594      0.04300307729659
  O   0.75747936401462     -1.49083758248566     -1.45229961328995
