10
Coordinates from ORCA-job run
  C   -0.66736961946910      0.14488314902890      0.06438343301915
  C   0.35259166073920     -0.73594201954643     -0.03335860413465
  H   0.21844649608704     -1.80700047823047      0.05791622751997
  C   -0.55345511064392      1.57033403580835     -0.00550055608187
  N   -0.57384213019421      2.74695268896392     -0.03467067006577
  C   -1.98785896536679     -0.37776342001373      0.26788349046152
  N   -3.07045747365516     -0.80862030965792      0.43337135965859
  N   1.74014990803331     -0.33293746938732     -0.20976714818059
  O   1.97564371095117      0.81417151074574     -0.57837994609289
  O   2.56515152351846     -1.21307768771103      0.03812241389654
