10
Coordinates from ORCA-job run
  C   -0.66261488547559      0.17322669419331      0.04505519646343
  C   0.33275340345319     -0.73907034959361      0.09524049004156
  H   0.17134579109944     -1.77307550103726      0.37475085773289
  C   -1.99267283043405     -0.26827099243955      0.35216091603449
  N   -3.08302580117850     -0.63127648131011      0.60602836069497
  C   -0.51377371110475      1.55917118016981     -0.28177942697265
  N   -0.50304334311834      2.71059425530254     -0.52622941522520
  N   1.72779834064622     -0.41383889536103     -0.16278591577171
  O   1.98923158156457      0.64584787192212     -0.72505798819842
  O   2.53200145454780     -1.26330778184621      0.22261692520064
