10
Coordinates from ORCA-job run
  C   -0.54184455162165      0.37223906901236      0.29427992342283
  C   0.69904703762360     -0.16185067810654      0.36372735370582
  H   1.38071130138941      0.05217432061002      1.17835556846263
  C   -1.41464064817907      0.17927918907178     -0.82440405907806
  N   -2.04860260823252      0.06693988103984     -1.81111041708464
  C   -0.93425996694076      1.28577467440526      1.33098794948168
  N   -1.22913453465527      2.06192061316084      2.16481080576329
  N   1.22465960568397     -1.06501740984215     -0.64799318558362
  O   0.45984721259330     -1.90685250791205     -1.11145303718530
  O   2.40521715233898     -0.88460715143936     -0.93620090190464
