10
Coordinates from ORCA-job run
  C   -0.54354101351760      0.31607143538145      0.27392131837074
  C   0.72541677266290     -0.14206623699654      0.34761760941145
  H   1.36629826629179      0.02919314903142      1.20387803855357
  C   -1.42878813074453      0.15725523147922     -0.84016185403328
  N   -2.23150227369158      0.09698783338769     -1.69911549272772
  C   -1.06349756007710      1.03634469956258      1.40042071610283
  N   -1.48899157586158      1.62521226434894      2.32625660480823
  N   1.37816771306146     -0.86086804733108     -0.73694947606679
  O   0.68256122823297     -1.32521054120105     -1.63576929080855
  O   2.60387657364327     -0.93191978766264     -0.64009817361049
