10
Coordinates from ORCA-job run
  C   -0.48002712706192      0.42403893878676      0.24311663759516
  C   0.62188881346206     -0.34058417193786      0.40613193365180
  H   1.09624877523106     -0.49418859798257      1.36774886206026
  C   -1.17706230877308      0.63921116626082     -0.98887606230918
  N   -1.83151948826872      0.87563676658606     -1.93833951807109
  C   -1.01765013143618      1.08194048824846      1.39916296182570
  N   -1.45480406418582      1.62605706196247      2.34657560218009
  N   1.24962408059740     -1.07752231130878     -0.68092421894983
  O   2.04332982686088     -1.94725723000007     -0.31968890229350
  O   0.95097162357432     -0.78733211061529     -1.83590729568940
