14
Coordinates from ORCA-job run
  C   0.87367704878773     -0.43456155554071      0.13149644677826
  C   -0.41766288717460      0.30137581782108     -0.24325892130019
  Cl  1.05383016734376     -1.85313070919507     -1.02995289961952
  H   -0.30667884193605      0.65742546057920     -1.27538331898104
  H   0.76734493450459     -0.90350987842976      1.11069270330953
  N   1.98251218176329      0.43871051582688      0.13598391222493
  H   2.82229309183729     -0.01317759202507      0.47172670929171
  H   2.15817938874746      0.83241268831210     -0.77991651777658
  C   -0.55733964534974      1.47411112542246      0.62632262440095
  N   -0.73451762664948      2.39689290750109      1.33009591206596
  C   -1.67546838663453     -0.56623949466725     -0.14096177548614
  H   -2.56177183994726      0.03490661435515     -0.34846287666815
  H   -1.77069240450553     -0.97725348786106      0.86662557157763
  H   -1.63470518078693     -1.38796241209902     -0.85400756981734
