14
Coordinates from ORCA-job run
  C   0.88736015387365     -0.43321178138343     -0.04679671605574
  C   -0.45453409248430      0.27101963901315     -0.28665085018707
  Cl  1.10020366115793     -1.71135723997504     -1.27974950365195
  H   -0.41835566572928      0.67125890118330     -1.30545819128389
  H   0.84604193016068     -0.96788329265570      0.91143262556006
  N   1.97263398648980      0.50649035193840     -0.18669032536137
  H   2.86064958555958      0.02697216511943     -0.10177101071848
  H   1.91758380853132      1.20443183996096      0.54756772292600
  C   -0.54058190635708      1.40192847698512      0.64188568810518
  N   -0.58962617073023      2.28171244479566      1.41835977010366
  C   -1.66812351826782     -0.64397857680438     -0.11061026069686
  H   -1.63830371103100     -1.45434084179989     -0.83820732529419
  H   -2.59046115303166     -0.07997212525037     -0.25649098275712
  H   -1.68448690814158     -1.07206996112724      0.89417935931178
