14
Coordinates from ORCA-job run
  C   1.08390089043729      0.03529239348428     -0.34763736440351
  C   -0.45238404385527      0.20514986734860     -0.41444873143286
  Cl  1.75193272259880      1.19779074114503      0.83553528512042
  H   -0.78997106830554     -0.51722831532832     -1.16996717519181
  H   1.50279885143833      0.31645634365980     -1.31632568202685
  N   1.55649304418568     -1.28107609617342     -0.02287904204551
  H   1.31462768506346     -1.94036689201622     -0.75215647228952
  H   1.19656476214607     -1.60225761751811      0.86594487684494
  C   -0.79544500275513      1.53590223062017     -0.91923146324541
  N   -1.07610682155607      2.60190639010935     -1.32346297751471
  C   -1.18198737743469     -0.08212811262956      0.89843543128981
  H   -0.96360342366424     -1.09408597230634      1.24476706994672
  H   -2.26008037638085     -0.00571866951699      0.75021978750832
  H   -0.88773984191786      0.62836370912172      1.67020645744002
