14
Coordinates from ORCA-job run
  C   0.86483481007226     -0.49897986441596     -0.38974506343446
  C   -0.50900101910562      0.15918949974886     -0.54715030765862
  Cl  1.89644616326530      0.01401519679935     -1.82205591718444
  H   -0.83760127386872      0.00447204983705     -1.57895435304719
  H   0.75562245975322     -1.57681461650141     -0.51595690633689
  N   1.43504375466206     -0.22007216519201      0.87284104844005
  H   2.28905507068306     -0.74018484469098      1.02263825006372
  H   1.62581002748139      0.76902742846299      0.98610035757954
  C   -0.38575535481477      1.60235122685364     -0.32894158714413
  N   -0.27870048233519      2.74806332359241     -0.09583951582592
  C   -1.52619161586274     -0.44900476558847      0.42330302992346
  H   -1.20129260903066     -0.30477078303567      1.45270244670261
  H   -1.62201549094063     -1.52060119109599      0.23294381341579
  H   -2.50525443995896      0.01330950522619      0.28711470450650
