14
Coordinates from ORCA-job run
  C   1.11153459943262      0.08131804255720     -0.23432369628144
  C   -0.41511313025425      0.21488215211296     -0.44697138467725
  Cl  1.62309800362217      1.19824835088823      1.06487231995838
  H   -0.65356046925012     -0.47666453723945     -1.26649488388542
  H   1.61558311884233      0.42249947409061     -1.14119423872818
  N   1.58976465089484     -1.23761859783826      0.07195381684665
  H   1.15272693145745     -1.61299924334501      0.90315411525120
  H   1.44063622678875     -1.86418200234443     -0.70926024161866
  C   -0.74702074870606      1.56000961277966     -0.91954967649923
  N   -1.01824591776203      2.63761444150484     -1.29866762543904
  C   -1.26195086371310     -0.15838848959307      0.77036374663548
  H   -2.32195118538603     -0.10066325732675      0.51902985358314
  H   -1.04904413770059     -1.18152662022596      1.08584946548336
  H   -1.06645707826598      0.51747067397946      1.60223842937102
