14
Coordinates from ORCA-job run
  C   0.92737570850729     -0.47740013897978     -0.50385994437512
  C   -0.47513618352435      0.16453230830898     -0.57108989946427
  Cl  1.85539479952361      0.08912895371485     -1.93251172909488
  H   -0.87480086661445      0.00254273299646     -1.57726943248426
  H   0.80710749988481     -1.55605007733822     -0.62935916061911
  N   1.68874187884901     -0.24003016522586      0.68134338422839
  H   1.34787494625299     -0.78246804110653      1.46258947971508
  H   1.72899131664901      0.74353572573562      0.91874910010180
  C   -0.36313614712718      1.60713356090939     -0.35243731020174
  N   -0.25816359327904      2.75285298952008     -0.11761835228241
  C   -1.41660082426811     -0.45927520855786      0.46324867946952
  H   -2.41817721789029     -0.03604061797755      0.37400958772150
  H   -1.06206900241697     -0.27201376535137      1.47811755847680
  H   -1.48540231454637     -1.53844825664820      0.30508803880869
