14

C	-0.474111	-0.056086	-1.425629
C	0.0	0.0	0.0
Br	0.005411	-1.868565	-2.178773
H	1.091942	0.0	0.0
H	-0.332083	-0.881909	0.546048
N	-2.02642	-0.124358	-1.506544
O	-2.577297	0.527473	-2.39386
O	-2.59744	-0.828161	-0.686374
N	0.00719	0.971122	-2.209717
H	0.584539	1.629789	-1.70808
H	-0.653255	1.350547	-2.868837
C	-0.523046	1.198662	0.626869
N	-0.93508	2.184866	1.118265
F	2.509715	0.0	0.0
