14

C	-0.037013	0.013972	-1.526538
C	0.0	0.0	0.0
Br	-0.2803	-2.078276	-2.105804
H	1.093778	0.0	0.0
H	-0.460455	-0.876048	0.4431
N	-1.295726	0.537797	-2.198495
O	-2.341071	0.468037	-1.564523
O	-1.169466	0.993556	-3.331903
N	1.079639	0.593941	-2.001349
H	1.170349	0.665014	-3.002472
H	1.93139	0.404275	-1.383328
C	-0.498226	1.239953	0.565728
N	-0.885107	2.239074	1.047778
F	2.664084	0.0	0.0
