14

C	-0.366286	0.017606	-1.438969
C	0.0	0.0	0.0
Br	-2.478419	0.522644	-1.635706
H	1.093977	0.0	0.0
H	-0.338221	0.906285	0.498324
N	0.20205	1.236873	-2.149271
O	0.402427	1.121063	-3.355099
O	0.383366	2.243023	-1.481113
N	-0.060842	-1.105236	-2.146124
H	-0.2742	-1.066211	-3.129874
H	-0.301176	-1.969531	-1.685145
C	-0.519165	-1.186749	0.636072
N	-0.923189	-2.185982	1.107926
F	2.479351	0.0	0.0
