14

C	-0.542463	-0.001948	-1.403386
C	0.0	0.0	0.0
Br	0.351969	1.514855	-2.384076
H	1.089304	0.0	0.0
H	-0.283851	0.957066	0.453311
N	-0.107846	-1.239252	-2.187692
O	0.719882	-1.977424	-1.677389
O	-0.649623	-1.396074	-3.280926
N	-1.946336	0.036329	-1.50934
H	-2.317802	0.798571	-0.960423
H	-2.243004	0.104994	-2.474594
C	-0.560758	-1.083417	0.785397
N	-0.993959	-1.951683	1.449481
F	2.51771	0.0	0.0
