15

C	-0.518067	-0.017741	-1.47253
C	0.0	0.0	0.0
Br	-2.461166	-0.212375	-1.478036
H	1.11535	0.0	0.0
N	-0.163183	1.254814	-2.189524
O	-0.617832	1.243488	-3.423841
O	1.124142	1.517348	-2.115832
C	0.149362	-1.16458	-2.282361
N	1.414503	-1.222394	-2.31498
N	-0.422811	-1.192407	0.767109
O	0.111859	-2.286003	0.25497
O	-0.154438	-1.061133	2.047549
C	-0.384198	1.289486	0.76811
N	0.331679	1.662538	1.697741
Br	2.589954	0.0	0.0
