15

C	-0.509126	-0.01383	-1.479237
C	0.0	0.0	0.0
Br	-0.056559	1.702308	-2.360041
H	1.114236	0.0	0.0
N	0.175084	-1.063611	-2.289421
O	-0.322572	-1.113346	-3.499856
O	1.478382	-0.892441	-2.286074
C	-2.055646	-0.120724	-1.507837
N	-2.738616	0.832879	-1.080804
N	-0.42766	-1.201692	0.747068
O	0.053287	-2.293379	0.169009
O	-0.082745	-1.123233	2.015211
C	-0.373391	1.275025	0.791144
N	0.348486	1.611482	1.743492
Br	2.590802	0.0	0.0
