15

C	-0.441527	0.012908	-1.470559
C	0.0	0.0	0.0
Br	0.305418	-1.507002	-2.37823
H	1.092748	0.0	0.0
N	-2.003141	0.010641	-1.604022
O	-2.520483	1.047266	-1.212102
O	-2.55803	-0.972989	-2.054801
C	0.003045	1.240678	-2.113441
N	0.324159	2.239166	-2.645003
N	-0.500526	-1.262957	0.664651
O	0.332135	-2.034122	1.117523
O	-1.723872	-1.400062	0.697083
C	-0.49651	1.137394	0.758952
N	-0.837279	2.048814	1.418166
Br	3.287102	0.0	0.0
