15

C	0.0	0.0	0.0
C	-0.4551	0.04628	-1.469323
Br	1.915413	0.0	0.0
H	-1.548659	0.09899	-1.418414
H	-0.45815	-0.773704	0.614023
N	-0.294606	1.486127	0.735288
O	0.504689	2.396662	0.398983
O	-1.17876	1.589991	1.588613
N	0.025063	-1.208937	-2.122329
H	-0.368226	-1.987502	-1.595616
H	-0.444839	-1.229611	-3.024532
N	0.062761	1.210256	-2.155785
H	0.999205	1.048862	-2.515824
H	-0.556255	1.46123	-2.914026
F	-2.556093	0.0	0.0
