15

C	0.0	0.0	0.0
C	-0.497251	-0.014788	-1.479908
Br	1.924935	0.0	0.0
H	0.384801	-0.007942	-2.125775
H	-0.346188	-0.879805	0.525036
N	-0.387913	1.1591	0.881952
O	-0.196157	2.29714	0.475607
O	-0.788293	0.858641	2.002869
N	-1.294462	1.152561	-1.814467
H	-1.522683	1.068389	-2.801495
H	-2.144291	0.999986	-1.242412
N	-1.134461	-1.329911	-1.606308
H	-1.414221	-1.436626	-2.576846
H	-1.989959	-1.185512	-1.039863
F	-2.714066	0.0	0.0
