15

C	0.0	0.0	0.0
C	-0.519433	-0.037468	-1.432793
Br	1.927392	0.0	0.0
H	-1.612113	0.013408	-1.226199
H	-0.363735	-0.875964	0.520337
N	-0.459414	1.169274	0.818819
O	-0.571226	2.263645	0.270985
O	-0.606777	0.96888	2.017355
N	-0.168968	-1.345488	-1.969055
H	-0.919954	-1.66427	-2.567058
H	0.671629	-1.23686	-2.527309
N	0.040712	1.030225	-2.27532
H	-0.070531	1.901473	-1.766909
H	-0.573579	1.096938	-3.081707
F	-2.671334	0.0	0.0
