15

C	0.0	0.0	0.0
C	-0.349798	0.039243	-1.572651
Br	1.925101	0.0	0.0
H	0.537389	-0.449727	-2.007462
H	-0.359113	-0.919619	0.447145
N	-0.442435	1.088496	0.924698
O	-0.820093	0.727764	2.0327
O	-0.291845	2.253094	0.570933
N	-0.502497	1.408746	-2.024913
H	0.30845	1.96906	-1.794562
H	-0.619577	1.356624	-3.028738
N	-1.488314	-0.697505	-2.022173
H	-2.238044	-0.427272	-1.305827
H	-1.287469	-1.685339	-1.894588
F	-2.670168	0.0	0.0
