15

C	0.0	0.0	0.0
C	-0.46848	-0.177951	-1.529653
Br	1.932829	0.0	0.0
H	0.454087	-0.220133	-2.115761
H	-0.359318	-0.801328	0.633548
N	-0.388005	1.253364	0.728697
O	-0.711526	1.126845	1.903551
O	-0.28093	2.3262	0.137957
N	-1.310619	0.857237	-2.062899
H	-2.119426	0.830778	-1.424935
H	-0.8468	1.747884	-1.942112
N	-1.160329	-1.448182	-1.64963
H	-1.971351	-1.296234	-1.03178
H	-0.577301	-2.176684	-1.248801
F	-2.621931	0.0	0.0
