16

C	-0.558423	-0.048198	-1.503165
C	0.028678	-0.100101	-0.078512
Cl	-2.403634	-0.126986	-1.412987
H	1.095107	-0.313287	-0.187204
N	-0.061296	1.073435	-2.147812
H	-0.563531	1.304152	-2.992291
H	-0.040164	1.817813	-1.447679
N	-0.20916	-1.270995	-2.346643
O	0.303551	-2.23064	-1.780507
O	-0.451863	-1.191213	-3.54614
C	-0.564483	-1.179314	0.718356
N	-1.033576	-1.987524	1.431027
N	-0.060624	1.209675	0.511918
H	0.997151	1.350881	0.944021
H	-0.766156	1.227481	1.240282
H	2.224386	1.244311	1.194779
