16

C	-0.59937	-0.037473	-1.477853
C	0.018864	-0.206689	-0.080792
Cl	-0.058522	-1.421998	-2.575263
H	1.103769	-0.271654	-0.199444
N	-1.989294	0.111681	-1.418723
H	-2.389564	0.355926	-2.313525
H	-2.419496	-0.717871	-1.030777
N	0.011114	1.202166	-2.125056
O	-0.76838	2.075567	-2.507405
O	1.228054	1.22256	-2.210611
C	-0.506643	-1.480487	0.46096
N	-0.98719	-2.460401	0.899207
N	-0.243111	0.896995	0.784819
H	-1.065603	1.407761	0.484299
H	0.687457	1.486403	0.767482
H	2.00098	1.867198	0.585692
