16

C	0.0	0.0	0.0
C	-0.287022	-0.373332	-1.48506
F	1.409951	0.0	0.0
H	0.3154	0.363201	-2.030835
N	-0.520793	1.30934	0.208209
H	-0.307647	1.569945	1.167679
H	-1.552701	1.094508	0.169608
C	-0.417884	-1.053409	1.005841
H	-0.066	-0.734206	1.992547
H	0.026359	-2.025031	0.776988
H	-1.509201	-1.075296	0.97462
C	-1.642506	-0.289248	-2.061379
N	-2.460973	-0.270655	-2.907251
C	0.273676	-1.694829	-1.797727
N	0.734724	-2.742733	-2.058135
F	-2.762693	0.0	0.0
