16

C	0.0	0.0	0.0
C	-0.305354	0.028507	-1.529141
F	1.384114	0.0	0.0
H	0.367076	-0.732783	-1.944277
N	-0.523366	1.173151	0.610608
H	-1.552443	0.997091	0.49073
H	-0.321292	1.119353	1.605236
C	-0.436485	-1.318037	0.615332
H	-0.030677	-2.171716	0.062459
H	-1.529333	-1.297727	0.60177
H	-0.055605	-1.357954	1.64158
C	0.146704	1.30758	-2.09712
N	0.540569	2.282184	-2.618829
C	-1.639737	-0.300836	-2.064419
N	-2.44092	-0.634242	-2.859085
F	-2.774654	0.0	0.0
