16

C	0.0	0.0	0.0
C	-0.290263	-0.181546	-1.518399
F	1.409889	0.0	0.0
H	0.308102	0.62063	-1.968636
N	-0.518152	1.272387	0.375987
H	-1.548827	1.066972	0.311261
H	-0.302186	1.408383	1.358729
C	-0.415639	-1.173723	0.864216
H	-1.506712	-1.192833	0.835865
H	0.027601	-2.107737	0.509735
H	-0.058262	-0.98529	1.882232
C	-1.648583	-0.030624	-2.075471
N	-2.461851	0.090566	-2.918539
C	0.27421	-1.45104	-1.997431
N	0.737715	-2.454916	-2.393623
F	-2.758738	0.0	0.0
