16

C	0.0	0.0	0.0
C	-0.338188	0.123883	-1.514401
F	1.384069	0.0	0.0
H	0.404859	-0.522565	-1.999875
N	-0.518947	1.121864	0.704064
H	-1.547779	0.95961	0.563419
H	-0.32576	0.976611	1.691007
C	-0.419871	-1.362446	0.52697
H	-0.009318	-1.476033	1.536437
H	-1.511566	-1.356178	0.542711
H	-0.023922	-2.171947	-0.096289
C	-0.061331	1.483404	-1.997026
N	0.20008	2.528086	-2.464095
C	-1.638419	-0.343199	-2.033045
N	-2.386411	-0.808597	-2.814243
F	-2.763565	0.0	0.0
