14

C	0.0	0.0	0.0
C	-0.374262	0.106689	-1.485329
F	1.385058	0.0	0.0
H	-1.460031	0.228519	-1.602953
H	-0.408464	0.823302	0.588602
H	-0.409589	-0.94557	0.389955
C	0.177541	-1.049097	-2.285177
H	-0.232844	-1.980979	-1.862883
H	1.275879	-1.082368	-2.239857
H	-0.126637	-0.982764	-3.336816
N	0.195812	1.429044	-1.997148
O	0.891274	1.416913	-3.012761
O	-0.146591	2.435921	-1.392037
Cl	-3.151788	0.0	0.0
