14

C	0.0	0.0	0.0
C	-0.387027	0.632906	-1.343049
F	1.386286	0.0	0.0
H	0.559241	0.709162	-1.890916
H	-0.356284	0.597405	0.83657
H	-0.364511	-1.018484	0.084214
C	-1.02017	2.005188	-1.260468
H	-0.345273	2.650791	-0.68754
H	-1.984191	1.926788	-0.760446
H	-1.151251	2.431556	-2.253971
N	-1.156779	-0.304193	-2.245492
O	-1.811688	0.204985	-3.147815
O	-0.94748	-1.506937	-2.12575
Cl	-3.345978	0.0	0.0
