14

C	0.0	0.0	0.0
C	-0.385384	0.465602	-1.411773
F	1.386435	0.0	0.0
H	0.563414	0.4764	-1.962027
H	-0.360283	-1.002418	0.205211
H	-0.360207	0.692867	0.757043
C	-1.017533	1.83835	-1.499354
H	-1.157191	2.133489	-2.538841
H	-0.338279	2.55129	-1.020795
H	-1.976818	1.828086	-0.985686
N	-1.151487	-0.577062	-2.193315
O	-0.918811	-1.755094	-1.938706
O	-1.826388	-0.183544	-3.138238
Cl	-3.342397	0.0	0.0
