14

C	0.0	0.0	0.0
C	-0.371859	-0.020817	-1.570177
Cl	1.782602	0.0	0.0
H	-1.450237	-0.084027	-1.701968
H	-0.25653	-0.918598	0.505906
C	-0.433211	1.194793	0.717685
N	-0.688013	2.151259	1.361626
C	0.026641	-1.27036	-2.175847
N	0.176399	-2.313044	-2.692213
C	-0.042679	1.257837	-2.301963
H	-0.46143	2.093465	-1.731875
H	1.022443	1.39993	-2.461217
H	-0.572225	1.230992	-3.259882
Br	-2.679387	0.0	0.0
