14

C	0.0	0.0	0.0
C	-0.410418	0.067981	-1.512605
Cl	1.785751	0.0	0.0
H	0.519693	0.254946	-2.057193
H	-0.364579	-0.9182	0.45646
C	-0.411595	1.155534	0.795062
N	-0.568343	2.111846	1.460166
C	-1.246647	1.212511	-1.889261
N	-1.721387	2.179876	-2.359157
C	-0.951329	-1.274873	-2.005117
H	-0.199379	-2.051482	-1.822857
H	-1.140125	-1.224447	-3.080684
H	-1.881918	-1.500972	-1.485963
Br	-3.415877	0.0	0.0
