14

C	0.0	0.0	0.0
C	-0.405525	0.008635	-1.517175
Cl	1.785583	0.0	0.0
H	0.523284	0.191722	-2.067076
H	-0.367215	-0.898864	0.491647
C	-0.413949	1.187693	0.74578
N	-0.553993	2.171959	1.371976
C	-1.253216	1.130309	-1.934728
N	-1.715289	2.079597	-2.451851
C	-0.929467	-1.3572	-1.955988
H	-1.870927	-1.56015	-1.448052
H	-0.185241	-2.122149	-1.71272
H	-1.091002	-1.365348	-3.036127
Br	-3.37686	0.0	0.0
