14

C	0.0	0.0	0.0
C	-0.54477	0.520506	-1.338045
Cl	1.7821	0.0	0.0
H	-0.126342	-0.129493	-2.115081
H	-0.332751	-1.030691	0.140524
C	-0.448498	0.817616	1.127674
N	-0.767247	1.491697	2.035468
C	-0.042294	1.873253	-1.598166
N	0.361199	2.94688	-1.84813
C	-2.074639	0.469983	-1.365186
H	-2.531065	1.078071	-0.585184
H	-2.446113	-0.543189	-1.214288
H	-2.448995	0.827726	-2.326021
Br	-5.22231	0.0	0.0
