14

C	0.0	0.0	0.0
C	-0.554434	0.463703	-1.354054
Cl	1.781844	0.0	0.0
H	-0.172037	-0.244055	-2.099813
H	-0.329949	-1.02536	0.17784
C	-0.450796	0.852153	1.099106
N	-0.764812	1.548031	1.991318
C	-0.025134	1.786743	-1.694721
N	0.369907	2.863471	-1.948498
C	-2.086085	0.453379	-1.343681
H	-2.484572	-0.519917	-1.055975
H	-2.472492	0.691493	-2.335534
H	-2.504196	1.169833	-0.637974
Br	-5.227494	0.0	0.0
