16

C	0.0	0.0	0.0
C	-0.527077	-0.136831	-1.443569
Cl	1.786595	0.0	0.0
H	-1.615901	-0.265983	-1.319474
N	-0.506874	1.212807	0.571376
H	-0.254842	1.247153	1.554042
H	-1.532911	1.139552	0.51578
C	-0.345801	-1.22187	0.766684
N	-0.56911	-2.180952	1.409065
C	0.01467	-1.333653	-2.082071
N	0.459811	-2.266079	-2.641255
C	-0.260392	1.105519	-2.292294
H	-0.732862	1.968954	-1.826611
H	-0.68821	0.958178	-3.286419
H	0.81126	1.292045	-2.391208
Br	-3.679811	0.0	0.0
