16

C	0.0	0.0	0.0
C	-0.31098	0.49872	-1.45066
Cl	1.841433	0.0	0.0
H	0.352	-0.050269	-2.126849
N	-0.547266	0.741504	1.077997
H	-1.538374	0.517933	1.180313
H	-0.439531	1.738132	0.924882
C	-0.385728	-1.411848	0.116345
N	-0.675089	-2.546603	0.204421
C	0.070256	1.911251	-1.525791
N	0.337456	3.053359	-1.587574
C	-1.759338	0.304743	-1.878577
H	-2.474322	0.75252	-1.191919
H	-1.906836	0.735961	-2.87146
H	-2.004124	-0.756842	-1.918691
Br	-4.569637	0.0	0.0
