16

C	0.0	0.0	0.0
C	-0.282078	0.24204	-1.536318
Cl	1.798706	0.0	0.0
H	0.424764	-0.39394	-2.078185
N	-0.582314	0.901325	0.93023
H	-0.44497	1.859395	0.626376
H	-1.587132	0.709629	0.979748
C	-0.393151	-1.379896	0.32427
N	-0.628397	-2.507258	0.553988
C	0.084084	1.629709	-1.831229
N	0.344989	2.749286	-2.074095
C	-1.689304	-0.056453	-2.037216
H	-2.447219	0.577068	-1.583878
H	-1.967931	-1.083479	-1.801438
H	-1.697629	0.072487	-3.124337
Br	-4.339468	0.0	0.0
