17

C	-0.085483	0.069507	-1.54629
C	0.0	0.0	0.0
Cl	-0.006557	-1.593053	-2.222149
H	1.096188	0.0	0.0
N	-1.44794	0.633431	-1.973599
O	-1.471682	1.777033	-2.420394
O	-2.436434	-0.059335	-1.750541
N	0.962871	0.844851	-2.104493
H	0.726848	1.826277	-2.018259
H	1.795219	0.633907	-1.514577
C	-0.635781	-1.167964	0.733822
H	-0.102268	-2.085195	0.48992
H	-0.5447	-1.002642	1.809986
H	-1.692708	-1.286896	0.48202
C	-0.433399	1.283028	0.52501
N	-0.7883	2.31493	0.965105
F	2.609179	0.0	0.0
