17

C	-0.445747	-0.173564	-1.415982
C	0.0	0.0	0.0
Cl	-2.354405	0.01455	-1.536908
H	1.104868	0.0	0.0
N	-0.00331	0.968531	-2.332797
O	0.312042	2.02854	-1.816495
O	-0.027176	0.730423	-3.537463
N	-0.014593	-1.351427	-2.006908
H	-0.342685	-1.442425	-2.957124
H	-0.215859	-2.162974	-1.445291
C	-0.305671	-1.24273	0.844712
H	-1.346675	-1.577164	0.776671
H	-0.078717	-1.010387	1.885984
H	0.382049	-2.040339	0.554586
C	-0.54257	1.178018	0.64166
N	-0.967886	2.081924	1.262333
F	2.498326	0.0	0.0
