17

C	-0.518896	0.086217	-1.440289
C	0.0	0.0	0.0
Cl	0.403856	1.317202	-2.319454
H	1.105793	0.0	0.0
N	-0.231238	-1.283905	-2.06417
O	0.911316	-1.536567	-2.414783
O	-1.178863	-2.069388	-2.070927
N	-1.91795	0.347811	-1.66943
H	-2.126262	1.248242	-1.253555
H	-2.457027	-0.365204	-1.191479
C	-0.390449	-1.292243	0.72015
H	-0.063123	-1.205813	1.757523
H	0.161243	-2.125301	0.281426
H	-1.462819	-1.518669	0.708205
C	-0.514783	1.152545	0.708272
N	-0.964592	2.075459	1.283708
F	2.514159	0.0	0.0
