17

C	-0.075812	0.107865	-1.545034
C	0.0	0.0	0.0
Cl	0.058238	-1.529588	-2.264951
H	1.096214	0.0	0.0
N	-1.443707	0.648303	-1.973433
O	-2.417705	-0.074092	-1.782101
O	-1.486193	1.80305	-2.387331
N	0.964799	0.920821	-2.070998
H	0.724486	1.892971	-1.915591
H	1.799893	0.681883	-1.492865
C	-0.64025	-1.182887	0.705226
H	-0.12267	-2.098642	0.421662
H	-0.530684	-1.053611	1.787519
H	-1.705221	-1.280338	0.464831
C	-0.433745	1.270923	0.553518
N	-0.776956	2.29732	1.014918
F	2.609844	0.0	0.0
