14

C	-0.472677	-0.03334	-1.413925
C	0.0	0.0	0.0
Cl	-2.215114	-0.314255	-1.624817
H	1.091897	0.0	0.0
H	-0.305288	-0.928738	0.486781
N	-0.069059	1.268801	-2.115133
O	1.127735	1.364382	-2.340495
O	-0.93781	2.1049	-2.324878
N	0.204012	-1.166086	-2.187201
O	0.518072	-2.149755	-1.538354
O	0.290847	-1.023955	-3.399964
C	-0.551871	1.137189	0.702796
N	-0.970169	2.061493	1.297523
F	2.473144	0.0	0.0
