14

C	-0.474139	0.02044	-1.413333
C	0.0	0.0	0.0
Cl	-2.227006	0.258237	-1.616125
H	1.09187	0.0	0.0
H	-0.313969	0.926287	0.485472
N	0.170666	1.160973	-2.199129
O	0.524999	2.136873	-1.555852
O	0.20022	1.029538	-3.416415
N	-0.041696	-1.270637	-2.118616
O	-0.892774	-2.119872	-2.350355
O	1.159956	-1.34269	-2.325101
C	-0.540674	-1.145401	0.698587
N	-0.949615	-2.084377	1.276289
F	2.472728	0.0	0.0
