14

C	-0.466587	0.042416	-1.41551
C	0.0	0.0	0.0
Cl	-2.207788	0.321384	-1.634571
H	1.09183	0.0	0.0
H	-0.30518	0.926342	0.490908
N	0.211097	1.180743	-2.179332
O	0.529845	2.15916	-1.522417
O	0.294456	1.048	-3.393665
N	-0.05736	-1.253354	-2.123289
O	-0.922295	-2.092767	-2.332049
O	1.138846	-1.342322	-2.35271
C	-0.555156	-1.140198	0.693988
N	-0.978094	-2.06636	1.282391
F	2.473077	0.0	0.0
