14

C	-0.33625	-0.011815	-1.451712
C	0.0	0.0	0.0
Cl	-0.009981	1.497982	-2.252978
H	1.094866	0.0	0.0
H	-0.326412	-0.945244	0.438111
N	0.451132	-1.165088	-2.10191
O	1.255848	-0.932299	-2.982689
O	0.149259	-2.259847	-1.63948
N	-1.795828	-0.398143	-1.787397
O	-2.031077	-0.650743	-2.963433
O	-2.598015	-0.417871	-0.863211
C	-0.569936	1.120116	0.708772
N	-0.99276	2.039298	1.307423
F	2.477667	0.0	0.0
