14

C	-0.428099	0.008272	-1.423898
C	0.0	0.0	0.0
Cl	-0.040186	-1.457423	-2.278941
H	1.094864	0.0	0.0
H	-0.333599	0.929603	0.465996
N	-1.939342	0.292675	-1.639345
O	-2.649183	0.345243	-0.645136
O	-2.292569	0.473558	-2.800207
N	0.209206	1.230575	-2.103056
O	-0.184959	2.293721	-1.633757
O	1.003664	1.075605	-3.011216
C	-0.517548	-1.140903	0.722494
N	-0.888381	-2.07582	1.331366
F	2.474898	0.0	0.0
