17

C	0.0	0.0	0.0
C	-0.550724	0.004992	-1.438047
F	1.351161	0.0	0.0
H	-1.653585	-0.010769	-1.217916
N	-0.33825	1.357249	0.677599
O	0.173219	2.342995	0.141369
O	-0.99084	1.374372	1.706886
N	-0.527696	-1.006528	0.830198
H	-0.309396	-1.901198	0.404296
H	-1.56007	-0.826179	0.739968
C	-0.155534	-1.271431	-2.025356
N	0.158881	-2.294715	-2.512697
C	-0.147779	1.146535	-2.374309
H	-0.462594	0.902477	-3.392107
H	-0.638407	2.069325	-2.073982
H	0.932174	1.310589	-2.370632
F	-2.794856	0.0	0.0
