17

C	0.0	0.0	0.0
C	-0.430342	-0.194969	-1.472553
F	1.397572	0.0	0.0
H	0.489408	-0.005878	-2.037468
N	-0.204398	1.508234	0.413352
O	-0.495441	1.73353	1.583061
O	0.061588	2.361259	-0.428631
N	-0.548096	-0.880507	0.894952
H	-1.602102	-0.680586	0.709835
H	-0.298783	-0.588177	1.83333
C	-1.41725	0.73873	-2.024779
N	-2.075885	1.426716	-2.712693
C	-0.902962	-1.628078	-1.732146
H	-1.854569	-1.747864	-1.219564
H	-0.174771	-2.345873	-1.351228
H	-1.036976	-1.778001	-2.807107
F	-2.686371	0.0	0.0
