17

C	0.0	0.0	0.0
C	-0.230029	0.160819	-1.571455
F	1.355952	0.0	0.0
H	-0.041236	-0.868722	-1.908381
N	-0.395813	1.296663	0.715271
O	-0.677049	1.241532	1.903169
O	-0.307801	2.323613	0.047445
N	-0.614248	-1.060515	0.647752
H	-0.440652	-1.904532	0.11519
H	-1.655611	-0.7953	0.550429
C	0.84528	0.960736	-2.181158
N	1.66153	1.570971	-2.766169
C	-1.554095	0.622609	-2.183518
H	-1.65959	1.698856	-2.044654
H	-1.531008	0.40406	-3.255715
H	-2.378747	0.140545	-1.657442
F	-2.862779	0.0	0.0
