17

C	0.0	0.0	0.0
C	-0.362535	0.105538	-1.496448
F	1.368555	0.0	0.0
H	0.452964	0.705991	-1.910876
N	-0.266712	1.393522	0.676643
O	-0.163102	2.395962	-0.024129
O	-0.451472	1.394811	1.889149
N	-0.558974	-1.052591	0.681773
H	-1.616708	-0.817124	0.518803
H	-0.327509	-0.958661	1.664485
C	-1.580594	0.796286	-1.932097
N	-2.348909	1.365008	-2.618015
C	-0.302237	-1.29034	-2.118283
H	-1.141261	-1.878322	-1.752138
H	0.62803	-1.783798	-1.830223
H	-0.350241	-1.209862	-3.207916
F	-2.672893	0.0	0.0
