17

C	0.0	0.0	0.0
C	-0.291053	-0.137807	-1.543095
F	1.365172	0.0	0.0
H	-0.245931	-1.227672	-1.661767
N	-0.282721	1.461923	0.478586
O	-0.234552	2.36058	-0.353819
O	-0.445756	1.618631	1.685069
N	-0.630259	-0.950627	0.766501
H	-0.47034	-0.730023	1.74369
H	-1.672337	-0.738516	0.539753
C	0.843251	0.403793	-2.308587
N	1.682842	0.806574	-3.025792
C	-1.567289	0.362776	-2.234248
H	-1.585045	1.452167	-2.235827
H	-1.537525	0.008482	-3.270186
H	-2.435763	0.007185	-1.67692
F	-2.874378	0.0	0.0
