17

C	0.0	0.0	0.0
C	-0.258531	0.201565	-1.561846
F	1.364564	0.0	0.0
H	-0.208589	-0.836316	-1.922556
N	-0.36374	1.289855	0.751313
O	-0.232922	2.330009	0.109744
O	-0.646272	1.217621	1.937516
N	-0.609989	-1.067542	0.636772
H	-0.431534	-1.905638	0.094458
H	-1.651682	-0.798537	0.535194
C	0.877596	0.888411	-2.198553
N	1.728362	1.434827	-2.797273
C	-1.539028	0.827585	-2.126553
H	-1.545338	1.897817	-1.922067
H	-1.540903	0.674647	-3.210979
H	-2.397791	0.377478	-1.623254
F	-2.8436	0.0	0.0
