17

C	0.0	0.0	0.0
C	-0.433965	-0.04467	-1.484122
F	1.397397	0.0	0.0
H	0.483514	0.204857	-2.030407
N	-0.203495	1.460167	0.560011
O	0.089216	2.388943	-0.186992
O	-0.518101	1.571355	1.739635
N	-0.548308	-0.965845	0.802302
H	-0.295136	-0.774223	1.765398
H	-1.600737	-0.749266	0.641462
C	-1.423626	0.940454	-1.931178
N	-2.062263	1.703854	-2.557542
C	-0.914446	-1.442864	-1.885817
H	-1.038092	-1.488995	-2.971179
H	-1.873518	-1.594957	-1.397012
H	-0.203777	-2.204282	-1.564115
F	-2.688373	0.0	0.0
