17

C	0.0	0.0	0.0
C	-0.44493	0.08799	-1.480478
F	1.368868	0.0	0.0
H	0.466726	0.398276	-2.005554
N	-0.226464	1.400612	0.692317
O	0.018525	2.400877	0.023502
O	-0.505562	1.398334	1.886548
N	-0.545709	-1.040597	0.713704
H	-0.287551	-0.934159	1.68851
H	-1.594837	-0.815156	0.58087
C	-1.452772	1.092827	-1.84299
N	-2.119345	1.855652	-2.439297
C	-0.903448	-1.27373	-2.008728
H	-0.16675	-2.044902	-1.778627
H	-1.850215	-1.496365	-1.522743
H	-1.046767	-1.213131	-3.091471
F	-2.684459	0.0	0.0
