17

C	0.0	0.0	0.0
C	-0.240661	0.028521	-1.549974
F	1.389132	0.0	0.0
H	0.053545	-0.997744	-1.804702
N	-0.288975	1.392483	0.636718
O	-0.467614	2.360126	-0.093186
O	-0.25942	1.424495	1.864734
N	-0.636264	-1.027611	0.644658
H	-1.69057	-0.763825	0.450836
H	-0.455253	-0.936914	1.640775
C	0.765491	0.892304	-2.192744
N	1.527489	1.53525	-2.815457
C	-1.585601	0.320927	-2.220739
H	-1.86102	1.361705	-2.064342
H	-1.46133	0.128939	-3.291349
H	-2.370221	-0.274062	-1.76401
F	-2.854941	0.0	0.0
