17

C	0.0	0.0	0.0
C	-0.554916	-0.079591	-1.426707
F	1.350104	0.0	0.0
H	-1.653499	-0.120524	-1.234759
N	-0.26974	1.429486	0.641659
O	0.046409	2.42797	-0.00213
O	-0.664051	1.446115	1.80203
N	-0.563553	-1.002522	0.770122
H	-0.310503	-0.869663	1.742196
H	-1.600978	-0.81704	0.64211
C	-0.0936	-1.353811	-1.97647
N	0.2767	-2.335555	-2.506194
C	-0.195829	1.039407	-2.408688
H	-0.748963	1.943729	-2.17071
H	-0.467995	0.718364	-3.417174
H	0.871645	1.267521	-2.392758
F	-2.814263	0.0	0.0
