14
Coordinates from ORCA-job run
  C   0.88293165760790     -0.35019553221477     -0.00870323042447
  C   -0.47064329446985      0.27741482838838     -0.30289420679429
  F   1.53915260031247     -0.45392286825584     -1.26065296257805
  H   -1.11991159161795     -0.44782765700369     -0.80677979034149
  H   1.48113205513381      0.33474871709201      0.59205075551087
  N   0.73100251235825     -1.58008674857821      0.65052779745523
  H   0.24533401739558     -2.26264404569021      0.08435625951924
  H   1.61096866608959     -1.95677473338449      0.97174323895428
  N   -0.32096885767635      1.53741542930105     -0.95642255894523
  H   0.48127744325573      1.51799696704009     -1.56984563070992
  H   -1.14250260294079      1.77951368032808     -1.49232787114241
  N   -1.13963027644742      0.48596696719417      1.04028419324560
  O   -2.22735443340360     -0.06383407660353      1.20270287735156
  O   -0.55078789559736      1.18222907238695      1.85696112889911
