14
Coordinates from ORCA-job run
  C   0.39869619368910     -0.77336034603173      0.22363563538026
  C   -0.44538345001880      0.36301603263781     -0.36235455943495
  F   0.53460660943069     -0.54964649998069      1.58017999510620
  H   -0.51715847103633      0.22774789563535     -1.44422668327988
  H   -0.11229393111474     -1.73823994284932      0.11620140197288
  N   1.71746979273425     -0.70171454105650     -0.35295604147956
  H   1.69545698552723     -1.04240880736194     -1.30731081391852
  H   2.34036373930153     -1.30057149519851      0.17648315504508
  N   -0.01073429164411      1.68799237694083     -0.04840085633108
  H   0.93977975931775      1.78631628799396     -0.38638611196823
  H   0.00300048044263      1.79993715075115      0.95855643086681
  N   -1.84435197023948      0.15257729181315      0.14874807861873
  O   -2.46471259879343     -0.77371100919576     -0.36966430617279
  O   -2.23573884759631      0.86306560590222      1.06649467559506
