14
Coordinates from ORCA-job run
  C   0.91439154609233     -0.36833605425135     -0.07498252166683
  C   -0.45662405666633      0.23990209199982     -0.32991591355447
  F   1.54597825317241     -0.38956130942208     -1.31521268730553
  H   -1.03920622882253     -0.47416756107519     -0.92537330216468
  H   1.50718256444337      0.30148095392163      0.55830917271462
  N   0.80597570306431     -1.72963755515110      0.36423491020915
  H   0.49828763825226     -1.73903836945547      1.32848635649109
  H   1.72302116807694     -2.15766243883905      0.31862272411133
  N   -0.32656142173825      1.56725691922795     -0.87022616835608
  H   -1.22048050849830      1.88827250173913     -1.21922045349813
  H   0.33420651736859      1.54352938515990     -1.63610925238414
  N   -1.23010122036922      0.38994196422054      0.95412376356151
  O   -2.36488735599804      0.83630448816442      0.82935648791065
  O   -0.69118259837755      0.09171498376084      2.01890688393150
