14
Coordinates from ORCA-job run
  C   0.38991979848342     -0.77394835307574      0.23423503189935
  C   -0.41899687060145      0.36758060672946     -0.39107423344198
  F   0.39749717576890     -0.59320547354509      1.60443553600044
  H   -0.39002210260505      0.26255331862433     -1.47855452311489
  H   -0.09447448461474     -1.74130897049580      0.05095308678537
  N   1.75334699893220     -0.66439274034445     -0.21493792326274
  H   2.33313041898079     -1.28653940572171      0.33585782167200
  H   1.82469957147888     -0.94761348119787     -1.18532596541766
  N   -0.03442152043901      1.68883492807810     -0.00514579144811
  H   0.94379634075263      1.80532393035047     -0.24343543770316
  H   -0.12246900671339      1.78060701962838      0.99999957160612
  N   -1.85241596521068      0.12326834675396     -0.01238134296362
  O   -2.32593445354445      0.78903717997855      0.90034610752371
  O   -2.40365590066806     -0.80819690576260     -0.59497193813482
