14
Coordinates from ORCA-job run
  C   0.86387577034513     -0.32643479931546      0.02327513804617
  C   -0.49767459328303      0.22573580786962     -0.39193255810697
  F   1.57876309841298     -0.45687576773359     -1.19137801900639
  H   -1.02231799891160     -0.51815145273383     -0.99431558870620
  H   1.40772379155678      0.41177791547005      0.61622893808174
  N   0.73878941965946     -1.52651815253554      0.74123004357557
  H   1.62509715902269     -1.87010846497402      1.08238334762971
  H   0.26598305063574     -2.24695025304077      0.21199885099650
  N   -0.48945841063090      1.48556343405355     -1.07863375141614
  H   -0.07271353847373      1.36389230580687     -1.99214377783547
  H   0.05689849440260      2.16056355373035     -0.55720011526239
  N   -1.29814898055192      0.38893323184846      0.86217486188687
  O   -2.22510477569050     -0.38677978927627      1.06348171551678
  O   -0.93171248649368      1.29635243083060      1.60583091460024
