14
Coordinates from ORCA-job run
  C   0.86999371804645     -0.34911087068937     -0.07671721767404
  C   -0.48730528920278      0.24323215515281     -0.44071907871310
  F   1.55565609086505     -0.48065345222438     -1.27309302866828
  H   -0.97041773168381     -0.42715819662397     -1.15028456243106
  H   1.44283289470789      0.36221126833685      0.53278478082224
  N   0.72083375034367     -1.66451807931865      0.48323878297984
  H   0.43151164535108     -1.59432776737479      1.45171102825019
  H   1.61967127158149     -2.13159953530304      0.46218780924863
  N   -0.47510060667897      1.58750216529654     -0.93330416861759
  H   -0.28239947919844      1.59963213919431     -1.92423185409464
  H   0.21186837979586      2.15140586359280     -0.44930652251492
  N   -1.34148183692511      0.22472566769992      0.79513914234205
  O   -2.47634467703558     -0.22748532113659      0.71744961359587
  O   -0.82031812996679      0.70714396339757      1.80414527547481
