14
Coordinates from ORCA-job run
  C   0.64896488187888     -0.71784608778836     -0.35705112818424
  C   -0.49110909714939      0.28282951391662     -0.53733822548186
  F   0.06952038498113     -1.99772818837224     -0.39027644527345
  H   -0.96111546021520      0.12690470262316     -1.50811979431734
  H   1.29758638897278     -0.65519454299806     -1.23476011952635
  N   1.41197602408030     -0.46614061673169      0.80214031308736
  H   2.22858240252904     -1.05879161065710      0.84702363021713
  H   0.85064330888963     -0.56389760600060      1.63808057752653
  N   -0.10353841601967      1.63194484858647     -0.32657537797346
  H   0.77915509815185      1.69519141113219      0.15950789680412
  H   -0.12669433873859      2.19247643728116     -1.16188907670881
  N   -1.59658482961599     -0.07807111696033      0.44610608224092
  O   -1.30015683636901     -0.07618272605592      1.63879457044858
  O   -2.70722951137577     -0.31549441797529     -0.01564290285913
