16
Coordinates from ORCA-job run
  C   0.62032853924990      0.22927865995911      0.23041895241243
  C   -0.89952011121168      0.40839386354923      0.48648973081833
  Br  1.60645433267368      0.87166850448265      1.77775613675678
  H   -1.05088756525986      1.44047101061087      0.81104753300614
  N   0.97803171226839      1.17758332664685     -0.91234856787148
  O   0.40752624608066      2.26454502373289     -0.92513662014704
  O   1.80959802686024      0.79409390178433     -1.72651231513071
  C   1.03842723926366     -1.18034309588956     -0.10869744828742
  H   2.11109777432096     -1.23185038849527     -0.28177497435892
  H   0.77591164342057     -1.84234060993414      0.71744892990860
  H   0.53403837451381     -1.51256563575194     -1.01905695756679
  C   -1.29310554057903     -0.48526635663291      1.58273832137553
  N   -1.60613932410938     -1.23472252944855      2.43035643986851
  N   -1.75394747275840      0.17515738381221     -0.65457728334294
  H   -1.62202551967045      0.87900443611714     -1.36729388443004
  H   -1.65878835506307     -0.75410749454290     -1.03985799301098
