16
Coordinates from ORCA-job run
  C   0.66277723753106      0.16006886849696      0.16440165186188
  C   -0.82304461377840     -0.02837074998045      0.54138492010563
  Br  1.49103001945940      1.21874972810090      1.56669585811306
  H   -0.81597747630211     -0.42889414555250      1.56713764055205
  N   0.68591834583950      0.93689144775333     -1.15281799658143
  O   0.26020476558915      0.28254977821419     -2.09924191303630
  O   1.08298444130923      2.08893806979239     -1.18191922601478
  C   1.42275256853430     -1.13794816012312     -0.01055740786192
  H   2.46934518716778     -0.93137323746717     -0.23952147368523
  H   0.98281345294649     -1.71566156573362     -0.82366003011497
  H   1.37783668006640     -1.71697133562310      0.91356324964033
  C   -1.46303851150221     -1.04864649859817     -0.29850094258286
  N   -2.03316037649660     -1.87917985770655     -0.90167316324459
  N   -1.52961606249500      1.23271922900553      0.38567405047015
  H   -2.52922595127201      1.08923903296721      0.45539058096847
  H   -1.24359970659699      1.87788939645415      1.11264420141051
