15
Coordinates from ORCA-job run
  C   0.97710122742593     -0.33943258841356      0.10683999516775
  C   -0.41427829125756      0.16614280067209     -0.25617853704254
  Cl  0.93977748938495     -1.46500331908549      1.49282408918485
  H   -0.23210745852896      0.81928536082130     -1.13360097185744
  H   1.36145448337516     -0.93448913911560     -0.73110136606626
  N   1.81927257806680      0.78835525410942      0.46973286607885
  H   1.99660478240869      1.34065597657518     -0.36310537691153
  H   2.71012565114246      0.45939055027277      0.82192765450751
  N   -0.98169588343706      0.87592866716585      0.87564175879400
  H   -0.28703450968476      1.51307999510282      1.24764690295088
  H   -1.79121270478499      1.40819701459936      0.58310774218813
  C   -1.34426705535294     -0.95158325356143     -0.69652967015153
  H   -1.54698348914914     -1.61535184166360      0.14397661285463
  H   -0.91279362019503     -1.52899836274646     -1.51920866219478
  H   -2.29496319941355     -0.53617711473264     -1.04097303750251
