15
Coordinates from ORCA-job run
  C   0.98566743534664      0.21471299685052      0.32311677964328
  C   -0.35711691664969      0.17214875622170     -0.39264395221908
  Cl  2.08584275009692      1.38441910140910     -0.61034902521733
  H   -0.16747399846950     -0.20779398939586     -1.41216188581994
  H   0.86136129550235      0.69860649061965      1.29199900900662
  N   1.56332679634890     -1.06811378081210      0.47003669995988
  H   2.42406441268099     -1.02957684603178      0.99941871781762
  H   1.75612219731054     -1.48674118429843     -0.43179393684832
  N   -0.94089695101614      1.50819783477228     -0.37862057673201
  H   -0.39290633175015      2.13807989816250     -0.95155351874370
  H   -1.87432686420888      1.47006060308528     -0.76932876003647
  C   -1.30308045163091     -0.77806056800344      0.32909819995424
  H   -2.27353715722344     -0.79250977164097     -0.17585370540794
  H   -0.90779568363889     -1.79174544819636      0.35618489961236
  H   -1.45925053269876     -0.43168409274210      1.35345105503078
