15
Coordinates from ORCA-job run
  C   0.92878151455350      0.22829817756817      0.31918686302058
  C   -0.37039547822371      0.13220550465093     -0.48899107890095
  Cl  2.05785158953718      1.41604163596697     -0.55421154886845
  H   -0.10217803740300     -0.26161099859209     -1.47806165528442
  H   0.73971041004796      0.71958807217727      1.27606781943218
  N   1.52872674586813     -1.03435686107716      0.53390149902501
  H   2.36326325345106     -0.96484630317708      1.10086516999018
  H   1.76773135435984     -1.47689838057308     -0.34526317011118
  N   -1.05242822942676      1.39812831300138     -0.70550429762834
  H   -0.42806777816723      2.06723248246148     -1.13806380028328
  H   -1.34923145959419      1.78284937303735      0.18483440599460
  C   -1.33472126981628     -0.83081187324501      0.19295269077805
  H   -1.57320115899024     -0.47795363611744      1.20215282204422
  H   -2.26084405258536     -0.86835631729078     -0.38214785839560
  H   -0.91399740361088     -1.83050918879091      0.28228213918739
