15
Coordinates from ORCA-job run
  C   1.06709280992207     -0.35698929125910     -0.07577425473991
  C   -0.32786303088623      0.20024575876349     -0.35838690827934
  Cl  0.95405005862879     -1.60342896353268      1.28814990459546
  H   -0.20194917851029      0.76973819561108     -1.28785609556419
  H   1.42566129908198     -0.94189360903049     -0.92430682361411
  N   1.95251943512819      0.70377651136318      0.21039128609804
  H   2.88682284188778      0.37340394362174      0.41088374967089
  H   1.58884705660735      1.21760112836940      1.00553746870128
  N   -0.69564493283916      1.11794079377833      0.72100868605754
  H   -0.83282551319062      2.05556224499060      0.37217783376705
  H   -1.54387625586427      0.82158442299806      1.18282622943196
  C   -1.36988387380644     -0.88332322503877     -0.59296791123086
  H   -0.98324410705672     -1.67556703527527     -1.23867498432294
  H   -1.66328479005119     -1.34518300289259      0.35130966414868
  H   -2.25742181905122     -0.45446787246698     -1.06431784471955
