15
Coordinates from ORCA-job run
  C   1.04745360917692     -0.38271630413572      0.01428867827553
  C   -0.29670714200081      0.22419303182022     -0.37417258338863
  Cl  0.78990345767146     -1.43157085156818      1.53847945546477
  H   -0.07125290724166      0.80294705101543     -1.27746429785988
  H   1.37527284398621     -1.11507133510769     -0.72377810411213
  N   2.00561215585980      0.63116531623277      0.18622850756093
  H   1.63292741929317      1.34499296101180      0.80095553303341
  H   2.89054927091638      0.28226821322454      0.52632591459594
  N   -0.67580651130694      1.18658843059491      0.65867643830248
  H   -1.06684501470251      0.69284216629815      1.45323205931298
  H   -1.38559394264967      1.81477643971795      0.30397554768409
  C   -1.35667650672964     -0.81779947363821     -0.71112433124886
  H   -1.63935968112097     -1.38892670998964      0.17477751846310
  H   -0.99853776644197     -1.52031527509802     -1.46971676652124
  H   -2.24993928470977     -0.32437366037831     -1.10268356956247
