15

C	-0.333011	-0.033696	-1.477638
C	0.0	0.0	0.0
Cl	-2.102124	-0.063792	-1.827194
H	1.091648	0.0	0.0
H	0.00413	0.921945	-1.884715
N	0.289051	-1.20924	-2.023615
H	1.245676	-1.262268	-1.67436
H	0.322035	-1.134523	-3.032281
N	-0.526399	-1.189696	0.716515
O	-1.699137	-1.149986	1.082524
O	0.242914	-2.137348	0.843512
N	-0.443785	1.235775	0.699262
O	-0.484901	1.189839	1.922749
O	-0.646497	2.230112	0.009105
Br	3.338538	0.0	0.0
