15

C	-0.330065	-0.014236	-1.489669
C	0.0	0.0	0.0
Cl	-2.100011	0.067129	-1.778509
H	1.09088	0.0	0.0
H	0.076536	0.926891	-1.863015
N	0.270012	-1.092801	-2.218055
H	1.278577	-0.999835	-2.114604
H	-0.016687	-1.973529	-1.808468
N	-0.425901	-1.188542	0.783008
O	-1.039374	-2.088887	0.205824
O	-0.076116	-1.203097	1.957463
N	-0.528751	1.233346	0.640874
O	-0.063908	2.278111	0.193913
O	-1.40594	1.139289	1.49373
Br	3.314829	0.0	0.0
