15

C	-0.473179	0.062099	-1.438071
C	0.0	0.0	0.0
Cl	0.07035	-1.476527	-2.269815
H	1.087626	0.0	0.0
H	-1.560684	0.044768	-1.499589
N	0.076872	1.24472	-1.989933
H	-0.168749	1.34917	-2.963094
H	1.08901	1.246753	-1.887578
N	-0.55582	-1.142623	0.776131
O	-0.006152	-1.363827	1.852445
O	-1.539341	-1.730006	0.33264
N	-0.508026	1.231649	0.695464
O	-1.722738	1.270092	0.895199
O	0.300208	2.102501	0.978421
Br	3.396155	0.0	0.0
