15

C	-0.537938	0.019688	-1.418488
C	0.0	0.0	0.0
Cl	-2.367595	-0.437235	-1.360961
H	1.089724	0.0	0.0
H	-0.586123	1.050695	-1.75549
N	0.228072	-0.772452	-2.272293
H	-0.143176	-0.82525	-3.208208
H	0.450952	-1.679781	-1.890463
N	-0.439541	-1.243908	0.706062
O	-0.008187	-2.277903	0.200406
O	-1.191674	-1.174818	1.667718
N	-0.416401	1.193168	0.796384
O	0.005946	1.228658	1.945876
O	-1.088209	2.065957	0.247928
Br	3.331871	0.0	0.0
