15

C	-0.499962	0.049071	-1.428854
C	0.0	0.0	0.0
Cl	0.059655	-1.483337	-2.263803
H	1.087609	0.0	0.0
H	-1.587195	0.004675	-1.466609
N	0.005114	1.239796	-1.99963
H	1.019517	1.266912	-1.931123
H	-0.278008	1.335221	-2.965177
N	-0.541763	-1.142831	0.786588
O	-1.536468	-1.727058	0.363147
O	0.030588	-1.369459	1.848427
N	-0.508518	1.23039	0.698173
O	-1.715587	1.247735	0.944478
O	0.29246	2.120909	0.938032
Br	3.394077	0.0	0.0
