15

C	-0.470936	0.010927	-1.428667
C	0.0	0.0	0.0
F	-1.845049	-0.028278	-1.525171
H	1.089653	0.0	0.0
H	-0.090129	0.854011	-1.996269
N	0.039881	-1.231751	-2.111939
O	-0.648018	-2.247667	-2.027266
O	1.112647	-1.133063	-2.694709
N	-0.456369	-1.096123	0.775181
H	-1.252116	-1.578366	0.389763
H	0.313092	-1.726345	0.933621
N	-0.450662	1.322491	0.574778
O	-0.251701	2.316931	-0.133854
O	-0.938657	1.364894	1.69932
F	2.517194	0.0	0.0
