15

C	-0.657605	-0.05671	-1.362234
C	0.0	0.0	0.0
F	-0.20157	-1.159013	-2.023282
H	1.096084	0.0	0.0
H	-1.74824	-0.106208	-1.311111
N	-0.362786	1.105434	-2.277989
O	0.80374	1.28586	-2.59615
O	-1.337082	1.740162	-2.685613
N	-0.367843	-1.196648	0.715717
H	-1.02808	-0.97822	1.451817
H	0.482307	-1.532959	1.151944
N	-0.426692	1.227553	0.715058
O	-0.49259	2.274411	0.065211
O	-0.64675	1.159374	1.927867
F	2.495075	0.0	0.0
