15

C	-0.559129	0.003993	-1.394352
C	0.0	0.0	0.0
F	-1.914282	0.236852	-1.409964
H	1.093567	0.0	0.0
H	-0.064414	0.723476	-2.041362
N	-0.334765	-1.356624	-2.00042
O	-1.294886	-2.113032	-2.092515
O	0.813448	-1.58613	-2.360573
N	-0.46286	-1.103626	0.764471
H	-1.388756	-0.955556	1.141592
H	0.185747	-1.2614	1.522838
N	-0.365291	1.340225	0.585838
O	-0.213912	2.333221	-0.126779
O	-0.740141	1.379937	1.758898
F	2.511217	0.0	0.0
