15

C	-0.492604	-0.003345	-1.419222
C	0.0	0.0	0.0
F	-1.869859	-0.052061	-1.489257
H	1.089556	0.0	0.0
H	-0.130694	0.838302	-2.000101
N	0.009084	-1.246779	-2.108218
O	1.046355	-1.134759	-2.751532
O	-0.655697	-2.272714	-1.977951
N	-0.460876	-1.081441	0.792079
H	-1.245564	-1.581702	0.400956
H	0.311169	-1.701128	0.985631
N	-0.430068	1.336071	0.570391
O	-0.262103	2.319023	-0.159747
O	-0.8518	1.394994	1.720679
F	2.517441	0.0	0.0
