15

C	-0.552461	-0.093867	-1.411821
C	0.0	0.0	0.0
F	-0.170048	-1.271653	-1.974713
H	1.09054	0.0	0.0
H	-1.643262	-0.017918	-1.454056
N	-0.043115	1.027776	-2.278848
O	-0.620623	2.10184	-2.110516
O	0.865218	0.801432	-3.06409
N	-0.40391	-1.117669	0.802602
H	0.371256	-1.765586	0.815746
H	-1.250451	-1.574902	0.492619
N	-0.600809	1.2415	0.596135
O	0.121507	2.213472	0.797995
O	-1.811552	1.200149	0.842864
F	2.54586	0.0	0.0
