15

C	-0.625905	-0.113323	-1.37671
C	0.0	0.0	0.0
F	-0.055522	-1.163556	-2.02736
H	1.089558	0.0	0.0
H	-1.705643	-0.27583	-1.3327
N	-0.44887	1.086584	-2.271394
O	-1.453355	1.777037	-2.448567
O	0.649291	1.261456	-2.777581
N	-0.402946	-1.165149	0.742361
H	0.42567	-1.492033	1.225132
H	-1.098036	-0.916837	1.435859
N	-0.422144	1.268765	0.661055
O	-0.899083	1.218126	1.798991
O	-0.218194	2.316478	0.049556
F	2.505634	0.0	0.0
