15

C	-0.63458	-0.061019	-1.363372
C	0.0	0.0	0.0
F	-0.207876	-1.184074	-2.013132
H	1.088253	0.0	0.0
H	-1.727294	-0.059003	-1.357848
N	-0.251463	1.079083	-2.281368
O	-0.919655	1.144488	-3.31298
O	0.694343	1.798199	-1.991471
N	-0.318998	-1.202519	0.734621
H	-1.093292	-1.070055	1.373455
H	0.508694	-1.443822	1.2676
N	-0.503845	1.201391	0.710637
O	-0.227491	1.315661	1.905976
O	-1.192665	2.019534	0.082483
F	2.504185	0.0	0.0
