16

C	-0.481148	0.017702	-1.456898
C	0.0	0.0	0.0
F	-0.10112	-1.135415	-2.122278
H	1.09544	0.0	0.0
C	-1.960759	0.081762	-1.487182
N	-3.134813	0.106102	-1.461878
C	0.048513	1.181976	-2.187737
N	0.448593	2.11552	-2.77601
C	-0.485992	-1.247824	0.718526
H	-1.576665	-1.252962	0.829347
H	-0.028985	-1.270737	1.709874
H	-0.178868	-2.149793	0.187111
N	-0.463474	1.252834	0.58352
H	-1.21275	1.09894	1.245354
H	0.306992	1.711891	1.051408
Br	3.506532	0.0	0.0
