16

C	-0.461684	-0.014086	-1.454565
C	0.0	0.0	0.0
F	0.017905	1.113744	-2.100477
H	1.102099	0.0	0.0
C	0.015597	-1.204163	-2.18438
N	0.378197	-2.141104	-2.791701
C	-1.939225	0.018532	-1.536495
N	-3.111019	-0.000706	-1.608608
C	-0.511962	-1.216646	0.748117
H	-0.093736	-1.205718	1.757674
H	-1.604115	-1.210806	0.818304
H	-0.178806	-2.142402	0.274644
N	-0.54485	1.231623	0.580091
H	0.057433	1.995412	0.289454
H	-0.44354	1.165995	1.587012
Br	3.534725	0.0	0.0
