16

C	-0.489778	0.041957	-1.447644
C	0.0	0.0	0.0
F	-1.890499	0.031652	-1.458129
H	1.096065	0.0	0.0
C	-0.066958	1.276671	-2.129425
N	0.223053	2.245995	-2.724536
C	-0.057478	-1.129858	-2.231418
N	0.219952	-2.086387	-2.853319
C	-0.481029	-1.265413	0.698824
H	-0.073748	-1.270436	1.711973
H	-0.123352	-2.166398	0.195113
H	-1.573956	-1.298429	0.752295
N	-0.447178	1.237262	0.628304
H	-1.240047	1.075621	1.23526
H	0.315727	1.619516	1.171914
Br	3.479916	0.0	0.0
