16

C	-0.395968	-0.044765	-1.494598
C	0.0	0.0	0.0
F	0.058428	-1.201292	-2.095456
H	1.098748	0.0	0.0
C	-1.870335	-0.016024	-1.631926
N	-3.043691	0.011751	-1.68737
C	0.147424	1.11994	-2.218765
N	0.523734	2.07116	-2.795896
C	-0.529392	-1.221939	0.726907
H	-0.101766	-1.218739	1.729782
H	-0.227737	-2.141365	0.222794
H	-1.621554	-1.197972	0.813694
N	-0.437485	1.224648	0.637262
H	-1.404015	1.45549	0.444992
H	0.165555	1.995958	0.387859
Br	3.500673	0.0	0.0
