16

C	-0.493383	-2.1e-05	-1.447588
C	0.0	0.0	0.0
F	-1.893765	-0.029104	-1.454469
H	1.100491	0.0	0.0
C	-0.088982	1.222798	-2.163032
N	0.171701	2.198046	-2.763705
C	-0.044715	-1.185525	-2.20253
N	0.271578	-2.143497	-2.805002
C	-0.478528	-1.24654	0.732814
H	-1.570984	-1.274417	0.798111
H	-0.128562	-2.160325	0.24707
H	-0.061069	-1.229014	1.741767
N	-0.446636	1.252506	0.599642
H	0.329812	1.667221	1.101143
H	-1.212609	1.097076	1.242099
Br	3.474032	0.0	0.0
