16

C	-0.482698	-0.092899	-1.453327
C	0.0	0.0	0.0
F	-0.074116	-1.277311	-2.041537
H	1.101026	0.0	0.0
C	-1.963198	-0.06867	-1.488009
N	-3.136703	-0.11697	-1.474583
C	0.019646	1.032194	-2.262252
N	0.381533	1.909745	-2.952823
C	-0.487105	-1.18657	0.812433
H	-1.576315	-1.172189	0.937396
H	-0.196857	-2.1268	0.340823
H	-0.01538	-1.146175	1.796529
N	-0.474938	1.291063	0.488316
H	0.313021	1.833567	0.819414
H	-1.136513	1.177727	1.244906
Br	3.499397	0.0	0.0
