16

C	-0.428037	-0.064273	-1.476081
C	0.0	0.0	0.0
F	-1.831329	-0.015908	-1.549087
H	1.093969	0.0	0.0
C	0.063036	1.106668	-2.221906
N	0.390575	2.070214	-2.807348
C	-0.011718	-1.303541	-2.150248
N	0.263102	-2.311152	-2.687647
C	-0.521513	-1.207941	0.762224
H	-0.162498	-1.124627	1.787954
H	-0.146768	-2.143311	0.340675
H	-1.61525	-1.230006	0.773806
N	-0.444493	1.238215	0.617972
H	-1.370093	1.501806	0.302462
H	0.209133	1.982082	0.407298
Br	3.487196	0.0	0.0
