16

C	-0.4626	0.125874	-1.449264
C	0.0	0.0	0.0
F	0.013179	1.313294	-1.981284
H	1.102816	0.0	0.0
C	0.015313	-0.987222	-2.290638
N	0.335818	-1.892307	-2.966558
C	-1.940001	0.162559	-1.528438
N	-3.111328	0.14679	-1.60783
C	-0.51209	-1.281446	0.630984
H	-0.090638	-1.366603	1.635671
H	-0.182775	-2.158912	0.071064
H	-1.604034	-1.280178	0.704884
N	-0.544125	1.171474	0.694525
H	-0.447111	1.008371	1.690973
H	0.061262	1.957938	0.481145
Br	3.529853	0.0	0.0
