13

C	-0.349491	-0.149386	-1.439859
C	0.0	0.0	0.0
Cl	-2.108113	-0.168995	-1.807562
H	1.091164	0.0	0.0
H	0.084191	-1.043614	-1.872124
H	-0.414177	0.898332	0.447852
N	0.239611	1.013256	-2.189785
O	-0.05785	2.138262	-1.805058
O	0.960894	0.743963	-3.145255
N	-0.453177	-1.154241	0.766329
O	-0.731929	-0.975031	1.954027
O	-0.472428	-2.256666	0.209638
F	2.488801	0.0	0.0
