13

C	-0.344147	0.009787	-1.447951
C	0.0	0.0	0.0
Cl	-2.098368	0.133248	-1.821853
H	1.09259	0.0	0.0
H	0.034683	-0.866572	-1.960836
H	-0.402239	0.848655	0.54513
N	0.312404	1.196936	-2.097498
O	0.195889	2.281484	-1.538048
O	0.885003	0.991236	-3.163945
N	-0.468983	-1.227085	0.633221
O	-0.507112	-2.260539	-0.041586
O	-0.745745	-1.178032	1.833597
F	2.489067	0.0	0.0
