13

C	-0.634172	0.071518	-1.355716
C	0.0	0.0	0.0
Cl	-0.153929	1.58549	-2.15454
H	1.087142	0.0	0.0
H	-1.722025	0.032201	-1.363742
H	-0.264405	0.89705	0.564214
N	-0.232067	-1.068262	-2.269642
O	-0.988697	-1.26327	-3.220385
O	0.787595	-1.688751	-2.017316
N	-0.548504	-1.126988	0.750311
O	-0.318509	-1.17021	1.956457
O	-1.202456	-1.984974	0.138951
F	2.494122	0.0	0.0
