17

C	0.0	0.0	0.0
C	-0.209817	0.074797	-1.564088
Cl	1.797887	0.0	0.0
H	0.40031	-0.73258	-1.970615
C	-0.462018	1.251475	0.723209
H	-1.556134	1.25375	0.619039
H	-0.200213	1.153551	1.781649
H	-0.00705	2.16199	0.32782
N	-0.579369	-1.215571	0.457743
H	-1.620648	-1.005808	0.359438
H	-0.394547	-1.284091	1.456777
C	0.246174	1.352577	-2.1085
N	0.649633	2.360508	-2.554613
N	-1.579604	-0.219495	-2.163962
O	-2.229099	0.721238	-2.593199
O	-1.854249	-1.405906	-2.260454
H	-2.994714	0.0	0.0
