17

C	0.0	0.0	0.0
C	-0.607743	0.017907	-1.416209
Cl	1.788299	0.0	0.0
H	-1.737863	0.071347	-1.111966
C	-0.422821	1.231402	0.789172
H	-1.514239	1.293899	0.743717
H	0.029857	2.138289	0.393799
H	-0.101864	1.075743	1.819911
N	-0.484913	-1.159477	0.702297
H	-0.26011	-2.000172	0.177986
H	-1.514538	-1.03773	0.691646
C	-0.324134	-1.203783	-2.145319
N	-0.150251	-2.236517	-2.680406
N	-0.249201	1.192605	-2.243508
O	-0.730046	2.274131	-1.903639
O	0.486777	1.026911	-3.220162
H	-2.931668	0.0	0.0
