17

C	0.0	0.0	0.0
C	-0.572043	-0.027114	-1.438788
Cl	1.853841	0.0	0.0
H	-0.388084	0.940814	-1.922903
C	-0.367458	1.279623	0.73828
H	0.052423	2.15656	0.239963
H	-1.455759	1.369157	0.788554
H	0.019828	1.241826	1.759632
N	-0.472332	-1.158723	0.669524
H	-0.384583	-1.915608	-0.059371
H	0.085493	-1.344268	1.494546
C	-2.014118	-0.178249	-1.186543
N	-3.115213	-0.146422	-0.764337
N	0.041885	-1.071278	-2.280943
O	-0.371484	-2.290262	-1.724679
O	-0.258344	-0.796831	-3.57974
H	-4.768241	0.0	0.0
