15
Coordinates from ORCA-job run
  C   -0.66256493362945     -0.26641485776364     -0.00186919232419
  C   0.48244347146464      0.62545716672289     -0.51784609085348
  Cl  -2.19167423746745      0.61964655708372     -0.77611135790909
  H   0.41064485887872      0.72518465056879     -1.60103032604935
  N   -0.72945011444858     -0.26153332115447      1.39612342639344
  H   -1.40688312980379     -0.92114284763661      1.75525117264853
  H   -0.91175247730075      0.65843684218016      1.77464702284730
  N   -0.52355670892103     -1.56795308892645     -0.50987085785935
  H   -0.49654524159897     -1.58499629681203     -1.52053679273269
  H   -1.25702936643469     -2.18395495691279     -0.18345282442861
  N   1.80099588507932     -0.07470006676967     -0.25406726627050
  O   2.24122695737665     -0.72236022468368     -1.19782972109553
  O   2.29251227924027      0.04547219533116      0.85870944002276
  C   0.48299546028319      1.93109129165795      0.12349583903192
  N   0.46759582318898      2.97776688634932      0.65538030430320
