15
Coordinates from ORCA-job run
  C   -0.48351207403593     -0.62180680065154     -0.15801522988599
  C   0.78385102822860      0.25280838583670     -0.42249124756672
  Cl  -0.69944296090092     -1.50316368409282     -1.76773007749705
  H   1.62721306039962     -0.40513047163430     -0.63657035005542
  N   -1.54253049454218      0.21964198833951      0.21605564235958
  H   -2.37171910566575     -0.32372397592327      0.41727976504022
  H   -1.74141469846408      0.95388361199091     -0.45087996866233
  N   -0.35741355106952     -1.64399024596765      0.82569748299561
  H   0.33885447205706     -2.33156760260563      0.57199132194638
  H   -0.13459885946271     -1.23976569518704      1.72723315810194
  N   1.12300923035487      0.98271873477477      0.85728978027451
  O   0.78573092815795      2.15367086248491      0.96454238642339
  O   1.68512934603041      0.29867114458776      1.70936674726677
  C   0.58632568636037      1.21968470639316     -1.49201163717609
  N   0.40051799255222      1.98806904165454     -2.36075777356481
