15
Coordinates from ORCA-job run
  C   -0.53961241075163     -0.34296958613251      0.20299017952348
  C   0.61081961772583      0.51737150907847     -0.37224227760562
  Cl  -0.98437960442425      0.28434029775817      1.84630912751457
  H   0.84369800706262      0.10922433945573     -1.35796830756232
  N   -0.05095411339144     -1.67697717630273      0.38897741150295
  H   -0.64184650104633     -2.20032690903688      1.02216172017173
  H   0.00135453711744     -2.14876320093102     -0.50721660742705
  N   -1.61653695609720     -0.24984677269572     -0.73130216721241
  H   -2.36610257424533     -0.87431336641505     -0.45088143536127
  H   -1.99075974017462      0.69474117753822     -0.78028505992811
  N   1.87552114658501      0.35500882209534      0.43030902651393
  O   1.99516962338626      1.03812337186451      1.43879917819786
  O   2.66812559464383     -0.47152243113505     -0.00465384077370
  C   0.25447637399514      1.92286079708953     -0.48687884703740
  N   -0.06097300038533      3.04404912776898     -0.63711810051661
