15
Coordinates from ORCA-job run
  C   -0.53342445631121     -0.48385921947905     -0.03260756172126
  C   0.60971266561131      0.42778972948371     -0.52867572240542
  Cl  0.08227865459802     -2.21836163052991     -0.44092563328266
  H   0.70158708104451      0.30180586008304     -1.60729453215365
  N   -1.67860669891130     -0.18723188002501     -0.82281865882215
  H   -2.51923744665159     -0.14128267287978     -0.26585173413060
  H   -1.78993002160548     -0.80219059107606     -1.61503730398245
  N   -0.80344841925507     -0.29439481052256      1.32938489011371
  H   0.03700813046063     -0.26950611740722      1.89161531553531
  H   -1.44630349081368     -0.99137566187526      1.68268835760572
  N   1.95624440837019      0.05142136590584      0.04041602693935
  O   2.05512654231374      0.04141312407471      1.26468839470963
  O   2.84073456059466     -0.20636523535737     -0.76498472382903
  C   0.33807085698455      1.82064606252018     -0.19149886962432
  N   0.15018763357072      2.95149167708475      0.06190175504783
