15

C	-0.439937	-0.063644	-1.428631
C	0.0	0.0	0.0
Br	0.296622	-1.652848	-2.209846
H	1.088741	0.0	0.0
H	-0.353767	-0.908006	0.495602
N	-1.966295	-0.133764	-1.643904
O	-2.481943	0.727893	-2.343713
O	-2.529813	-1.060164	-1.084164
N	0.016231	1.164197	-2.217981
O	0.021914	2.206925	-1.576884
O	0.274218	1.038509	-3.404327
N	-0.612044	1.124339	0.751064
O	0.083875	1.69783	1.579568
O	-1.803978	1.372261	0.541687
F	2.507304	0.0	0.0
