15

C	-0.507144	0.009284	-1.414113
C	0.0	0.0	0.0
Br	-2.419253	0.055512	-1.611415
H	1.090828	0.0	0.0
H	-0.385847	-0.85987	0.539066
N	0.115191	1.117329	-2.293771
O	-0.621016	1.904764	-2.869144
O	1.338771	1.050148	-2.334327
N	-0.052543	-1.274284	-2.121854
O	-0.132321	-1.261024	-3.342447
O	0.274233	-2.215435	-1.411642
N	-0.472109	1.212034	0.704136
O	-0.77561	1.083753	1.890587
O	-0.374216	2.281948	0.104332
F	2.500258	0.0	0.0
