15

C	-0.539569	0.021196	-1.392557
C	0.0	0.0	0.0
Br	0.082999	-1.459853	-2.424259
H	1.085844	0.0	0.0
H	-0.357296	0.880188	0.539403
N	-2.07832	0.15019	-1.472798
O	-2.499358	1.112774	-0.838573
O	-2.735097	-0.636087	-2.127875
N	-0.097695	1.305633	-2.10544
O	-0.589765	1.486306	-3.215539
O	0.693282	2.030399	-1.524515
N	-0.5184	-1.179579	0.733901
O	0.191274	-1.652218	1.616083
O	-1.650243	-1.596164	0.452885
F	2.501135	0.0	0.0
