15

C	0.0	0.0	0.0
C	-0.611817	0.021396	-1.396394
Br	1.946361	0.0	0.0
H	-1.7107	0.116253	-1.210809
H	-0.278693	-0.975595	0.401276
C	-0.490554	1.078514	0.951718
H	-1.58244	1.070699	0.937857
H	-0.118591	2.059791	0.664846
H	-0.138117	0.84404	1.957829
C	-0.345869	-1.210169	-2.130808
N	-0.16409	-2.231674	-2.682564
N	-0.194974	1.196847	-2.236731
O	-0.229966	2.296931	-1.69778
O	0.105547	0.990351	-3.410395
Cl	-3.610837	0.0	0.0
