15

C	0.0	0.0	0.0
C	-0.335928	-0.088119	-1.498681
Br	1.943048	0.0	0.0
H	0.450015	0.430187	-2.05094
H	-0.351352	-0.886374	0.521491
C	-0.491156	1.290246	0.624688
H	-0.135044	1.366587	1.653567
H	-1.582927	1.267632	0.61419
H	-0.125313	2.156193	0.066765
C	-1.566965	0.485955	-2.05527
N	-2.209949	1.068203	-2.852204
N	-0.199773	-1.513495	-2.008275
O	-0.323581	-2.439326	-1.218815
O	0.038811	-1.618293	-3.207418
Cl	-3.521755	0.0	0.0
