15

C	0.0	0.0	0.0
C	-0.47874	0.088551	-1.462962
Br	1.951683	0.0	0.0
H	0.390288	0.052851	-2.128667
H	-0.311965	-0.964554	0.393907
C	-0.44726	1.144841	0.893151
H	-0.079914	0.974497	1.906842
H	-0.051797	2.096914	0.532382
H	-1.53774	1.162718	0.895784
C	-1.197386	1.310104	-1.80981
N	-1.58483	2.356414	-2.177395
N	-1.242644	-1.145422	-1.929232
O	-1.880636	-1.010848	-2.961375
O	-1.024042	-2.192911	-1.339887
Cl	-3.393928	0.0	0.0
