15

C	-0.456031	0.109788	-1.439552
C	0.0	0.0	0.0
F	-1.802147	0.341804	-1.53685
H	1.094295	0.0	0.0
H	0.086875	0.901735	-1.957148
N	-0.172166	-1.155341	-2.214324
O	-1.04099	-2.019308	-2.210455
O	0.917751	-1.210248	-2.77043
C	-0.525061	-1.195252	0.650991
N	-0.970273	-2.11784	1.225357
C	-0.429305	1.25812	0.766356
H	-0.009124	2.139389	0.275994
H	-0.019229	1.214645	1.77603
H	-1.515109	1.352494	0.818341
Cl	3.266033	0.0	0.0
