15

C	-0.460536	0.103919	-1.437099
C	0.0	0.0	0.0
F	-1.797422	0.386398	-1.529335
H	1.094305	0.0	0.0
H	0.108347	0.866722	-1.968533
N	-0.233819	-1.179378	-2.198305
O	0.823478	-1.264383	-2.814287
O	-1.118093	-2.027408	-2.132729
C	-0.52577	-1.185045	0.669537
N	-0.962853	-2.102693	1.258224
C	-0.414091	1.26892	0.758672
H	0.012686	1.234015	1.761836
H	0.002493	2.143063	0.252541
H	-1.498573	1.368861	0.826763
Cl	3.268726	0.0	0.0
