15

C	-0.36979	-0.058642	-1.472178
C	0.0	0.0	0.0
F	0.035589	1.071196	-2.102282
H	1.096584	0.0	0.0
H	0.048971	-0.932335	-1.971109
N	-1.868792	-0.154639	-1.654333
O	-2.330123	-1.292267	-1.717862
O	-2.5106	0.890869	-1.687023
C	-0.464661	-1.202556	0.683514
N	-0.839306	-2.157363	1.25632
C	-0.489865	1.269432	0.697746
H	-0.053144	1.305343	1.696648
H	-0.140185	2.140304	0.143736
H	-1.578088	1.307961	0.778652
Cl	3.266545	0.0	0.0
