15

C	-0.457652	0.126053	-1.436963
C	0.0	0.0	0.0
F	-1.788527	0.433664	-1.526378
H	1.094302	0.0	0.0
H	0.126492	0.88332	-1.960797
N	-0.249307	-1.155241	-2.204725
O	-1.161451	-1.975135	-2.181039
O	0.829364	-1.267007	-2.77705
C	-0.528518	-1.195308	0.647687
N	-0.969545	-2.120229	1.222177
C	-0.413539	1.256203	0.779384
H	0.017272	1.206688	1.779821
H	-1.497568	1.353361	0.853347
H	-0.000302	2.138685	0.284975
Cl	3.268344	0.0	0.0
