15

C	-0.37169	-0.11037	-1.468648
C	0.0	0.0	0.0
F	0.093309	0.964056	-2.150004
H	1.09658	0.0	0.0
H	-0.002548	-1.029018	-1.92452
N	-1.87496	-0.132174	-1.644031
O	-2.451728	0.940658	-1.795286
O	-2.404199	-1.240121	-1.579837
C	-0.467075	-1.17223	0.732334
N	-0.833411	-2.107796	1.340945
C	-0.485751	1.299293	0.644339
H	-0.042509	1.380771	1.637362
H	-0.141022	2.144615	0.049293
H	-1.573382	1.341055	0.731603
Cl	3.266097	0.0	0.0
