17

C	-0.391965	-0.056914	-1.498616
C	0.0	0.0	0.0
Cl	-2.185923	-0.292648	-1.662488
H	1.092009	0.0	0.0
C	-0.110731	1.268597	-2.056893
N	0.086389	2.329982	-2.520965
C	0.344567	-1.121794	-2.298183
H	0.130197	-0.999143	-3.361585
H	0.037064	-2.113488	-1.974008
H	1.415785	-1.004965	-2.106512
N	-0.473694	-1.279916	0.64807
O	0.133605	-2.308289	0.354142
O	-1.444782	-1.220542	1.396476
N	-0.469408	1.112594	0.740718
H	-1.402312	1.408523	0.490628
H	0.194126	1.871185	0.681856
Br	3.422141	0.0	0.0
