17

C	-0.43613	0.024585	-1.483668
C	0.0	0.0	0.0
Cl	-0.143726	-1.579489	-2.234305
H	1.09076	0.0	0.0
C	-1.858826	0.341562	-1.638291
N	-2.968989	0.696564	-1.79248
C	0.413127	1.061499	-2.215754
H	0.2036	2.05459	-1.811984
H	1.468087	0.824363	-2.055355
H	0.176148	1.055185	-3.280681
N	-0.551987	-1.236328	0.652327
O	0.2253	-2.081581	1.076609
O	-1.781668	-1.287939	0.722373
N	-0.439654	1.122085	0.763713
H	-1.341713	1.489892	0.497315
H	0.276101	1.831187	0.806705
Br	3.484161	0.0	0.0
