17

C	-0.43809	-0.051712	-1.471941
C	0.0	0.0	0.0
Cl	-2.240336	-0.277613	-1.557438
H	1.092562	0.0	0.0
C	-0.160634	1.265815	-2.047777
N	0.093839	2.282202	-2.57839
C	0.25308	-1.120123	-2.309216
H	-0.066202	-2.111895	-1.999037
H	1.331457	-1.0288	-2.149313
H	0.012221	-0.969511	-3.363011
N	-0.422414	-1.301185	0.680348
O	-1.260104	-1.226651	1.580781
O	0.100365	-2.342171	0.291826
N	-0.493277	1.149351	0.662965
H	0.125717	1.387006	1.426674
H	-1.427371	0.994173	1.019127
Br	3.406898	0.0	0.0
