17

C	-0.403927	0.00104	-1.494699
C	0.0	0.0	0.0
Cl	-2.222304	-0.027066	-1.652693
H	1.09205	0.0	0.0
C	0.027275	1.283547	-2.060043
N	0.36498	2.31636	-2.518449
C	0.186733	-1.164529	-2.276601
H	-0.015628	-1.040644	-3.342312
H	1.268045	-1.186848	-2.092187
H	-0.251113	-2.103572	-1.93788
N	-0.499136	-1.304435	0.572751
O	0.190439	-2.311067	0.378892
O	-1.582233	-1.27818	1.158575
N	-0.463446	1.078306	0.800897
H	0.160852	1.871925	0.700728
H	-1.426371	1.333001	0.596703
Br	3.32109	0.0	0.0
