17

C	-0.430906	0.061747	-1.484568
C	0.0	0.0	0.0
Cl	-0.162365	-1.530688	-2.268531
H	1.090743	0.0	0.0
C	-1.846913	0.406858	-1.637424
N	-2.950087	0.784875	-1.786892
C	0.43968	1.097887	-2.192184
H	0.20317	1.122349	-3.25697
H	0.251889	2.084889	-1.764326
H	1.489353	0.835912	-2.03728
N	-0.558234	-1.248602	0.622506
O	0.214378	-2.097469	1.048244
O	-1.788827	-1.304172	0.671022
N	-0.438511	1.105455	0.789215
H	-1.338662	1.482587	0.528398
H	0.279324	1.811486	0.850219
Br	3.488781	0.0	0.0
