17

C	-0.538618	-0.009105	-1.443076
C	0.0	0.0	0.0
Cl	0.055617	1.52351	-2.196541
H	1.099429	0.0	0.0
C	0.015524	-1.096825	-2.249005
N	0.424806	-1.914504	-2.987717
C	-2.063049	0.002905	-1.511687
H	-2.383299	0.14119	-2.546121
H	-2.431612	0.822014	-0.894686
H	-2.45345	-0.945154	-1.140796
N	-0.42597	-1.241199	0.733182
O	-0.758723	-2.227765	0.080799
O	-0.364845	-1.197075	1.95895
N	-0.535907	1.129295	0.747915
H	-0.266562	0.961394	1.714343
H	-0.017643	1.948658	0.450719
Br	3.397738	0.0	0.0
