15

C	-0.461236	0.028014	-1.448054
C	0.0	0.0	0.0
F	-1.87218	0.114672	-1.466617
H	1.09339	0.0	0.0
H	-0.35091	-0.934561	0.459121
C	0.101211	1.205236	-2.212665
H	-0.196229	2.111728	-1.687242
H	1.191635	1.137392	-2.220456
H	-0.28609	1.213726	-3.233821
C	-0.137254	-1.245398	-2.119698
N	0.07527	-2.261789	-2.666505
N	-0.470494	1.205671	0.675916
H	-1.387382	1.050127	1.07532
H	0.176142	1.426384	1.423427
Cl	3.46852	0.0	0.0
