15

C	-0.458693	0.06184	-1.443335
C	0.0	0.0	0.0
F	-1.841943	0.346432	-1.471326
H	1.093522	0.0	0.0
H	-0.318916	0.948323	0.454611
C	0.271698	1.146199	-2.211088
H	-0.085715	1.192791	-3.241528
H	0.085735	2.108102	-1.72576
H	1.345926	0.945686	-2.187133
C	-0.303638	-1.244135	-2.114309
N	-0.195692	-2.246328	-2.716774
N	-0.526163	-1.174592	0.685166
H	0.212026	-1.582503	1.242659
H	-1.294141	-0.930146	1.295241
Cl	3.469289	0.0	0.0
