15

C	-0.430118	-0.027874	-1.454561
C	0.0	0.0	0.0
F	-0.158569	1.229222	-2.012752
H	1.10096	0.0	0.0
H	-0.341304	-0.928642	0.469475
C	0.348438	-1.062133	-2.243558
H	0.115502	-2.066931	-1.884626
H	1.413214	-0.870375	-2.091774
H	0.096142	-0.992805	-3.303634
C	-1.889013	-0.231389	-1.585639
N	-3.034282	-0.452519	-1.718576
N	-0.621782	1.137613	0.679994
H	-0.169338	1.972672	0.324997
H	-0.368297	1.082787	1.659974
Cl	3.528753	0.0	0.0
