9
Coordinates from ORCA-job run
  C   1.38373248285215      0.14394463112768     -0.05202048428142
  C   0.19656257652460     -0.13605371150230      0.49777083207504
  H   1.46699569862182      0.47104103376180     -1.08431814780538
  H   2.30464801120213      0.05384053040811      0.51313726969800
  H   0.16392772814189     -0.46060666560550      1.53711005778912
  C   -1.11786108111058     -0.03618525772183     -0.21620968779099
  H   -0.98229398632347      0.29639826993475     -1.24740613927868
  H   -1.62996295415480     -1.00267280143275     -0.23260923249133
  H   -1.78474847575375      0.67029397103005      0.28654553208564
