9
Coordinates from ORCA-job run
  C   1.39204246941399      0.01423284129052      0.01657472170285
  C   0.16267615419868     -0.39504255575386      0.34997702736558
  H   2.27665172143414     -0.44829006584234      0.43982388679153
  H   1.54702390272946      0.82293553637955     -0.69157229682856
  H   0.05720389211388     -1.21005588137329      1.06492894432267
  C   -1.10617828439203      0.19217274940602     -0.19125930138443
  H   -1.72868386994092      0.59181724474905      0.61456345959737
  H   -0.89802718912764      1.00035436728124     -0.89539480016721
  H   -1.70070879642957     -0.56712423613689     -0.70764164139981
