14

C	0.0	0.0	0.0
C	-0.152505	0.068877	-1.553177
Br	2.048037	0.0	0.0
H	0.481252	0.883388	-1.914962
H	0.285837	-0.848391	-1.956926
N	-0.486588	1.150875	0.599734
H	-0.526187	1.092855	1.605422
H	-0.107737	2.017115	0.256211
N	-0.534267	-1.123613	0.668972
H	-0.298642	-1.9775	0.179716
H	-1.558904	-0.98309	0.641071
C	-1.448853	0.265582	-2.213
N	-2.256955	0.458842	-3.044247
Cl	-3.611567	0.0	0.0
