14

C	0.0	0.0	0.0
C	-0.362941	0.085181	-1.486503
Br	2.138386	0.0	0.0
H	0.059368	0.994461	-1.91797
H	-1.461069	0.139111	-1.511781
N	-0.441307	1.176851	0.644655
H	-1.444694	1.25319	0.450192
H	-0.33667	1.038389	1.644092
N	-0.361509	-1.191855	0.686015
H	-0.064593	-2.01742	0.177619
H	-1.383038	-1.174051	0.751161
C	0.067445	-1.080403	-2.246668
N	0.390135	-2.030248	-2.856795
Cl	-3.476049	0.0	0.0
