14

C	0.0	0.0	0.0
C	-0.440957	0.161201	-1.462162
Br	2.039048	0.0	0.0
H	-0.070248	-0.676605	-2.056777
H	-1.541017	0.130075	-1.404949
N	-0.464688	1.074216	0.757132
H	-0.183242	1.982522	0.422405
H	-0.291783	0.948651	1.742435
N	-0.454672	-1.201279	0.620304
H	-1.479746	-1.119738	0.632587
H	-0.183282	-2.009886	0.074995
C	-0.014315	1.416969	-2.068162
N	0.308563	2.43893	-2.548568
Cl	-3.618711	0.0	0.0
