16

C	-0.477536	-0.056129	-1.4586
C	0.0	0.0	0.0
Br	-0.016226	1.69625	-2.265273
H	1.093618	0.0	0.0
H	-0.357524	0.905325	0.499472
C	0.304902	-1.125003	-2.20474
H	0.040267	-2.106141	-1.793578
H	1.375022	-0.964907	-2.046158
H	0.066613	-1.115173	-3.271632
C	-1.982539	-0.21649	-1.606436
H	-2.285294	-1.178863	-1.182087
H	-2.272909	-0.189534	-2.660412
H	-2.514668	0.57906	-1.078089
C	-0.478367	-1.16773	0.726417
N	-0.874585	-2.118258	1.294641
H	2.823703	0.0	0.0
