16

C	-0.316113	0.002738	-1.484327
C	0.0	0.0	0.0
Br	-2.304267	0.130163	-1.804261
H	1.096893	0.0	0.0
H	-0.337894	0.923624	0.478871
C	0.335484	1.224654	-2.10363
H	1.40562	1.166837	-1.861939
H	-0.071119	2.145227	-1.678171
H	0.190452	1.243408	-3.186524
C	0.181476	-1.275821	-2.129064
H	-0.32194	-2.152572	-1.717692
H	1.253423	-1.342882	-1.903297
H	0.028863	-1.254221	-3.210615
C	-0.517212	-1.147164	0.722689
N	-0.920799	-2.08223	1.309682
H	2.779316	0.0	0.0
