16

C	-0.315346	0.004904	-1.484686
C	0.0	0.0	0.0
Br	-2.303019	-0.126017	-1.805605
H	1.096849	0.0	0.0
H	-0.338102	-0.926031	0.47397
C	0.180129	1.288064	-2.121576
H	0.029711	1.271776	-3.203931
H	1.2518	1.356851	-1.893465
H	-0.326687	2.161193	-1.706169
C	0.338635	-1.212037	-2.111112
H	0.193561	-1.224715	-3.19416
H	1.40872	-1.153478	-1.869347
H	-0.066299	-2.135866	-1.691084
C	-0.517478	1.14371	0.727929
N	-0.920723	2.076027	1.319578
H	2.779109	0.0	0.0
