16
Coordinates from ORCA-job run
  C   0.53780941994517     -0.42435063591787      0.70701599026104
  C   -0.35993504421703     -0.19476472464940     -0.51116388097410
  Cl  -0.26358035715162      0.09076188438680      2.22266615407922
  H   0.18509692858287     -0.59268020008016     -1.37134283101168
  H   0.64761587087079     -1.50913877009876      0.79115165611229
  C   1.90383729442228      0.22920492194977      0.60654463693181
  H   2.52757477163850     -0.09088118379921      1.44197788964156
  H   1.82486616364839      1.31599889015239      0.63365397718718
  H   2.39024283439387     -0.05560039221837     -0.32949257592481
  N   -0.45581645358262      1.27642676723968     -0.79662866505300
  O   0.42103126716033      1.75379663367687     -1.51748504647662
  O   -1.37393564298613      1.90492409819908     -0.27686832529615
  C   -1.74078378353042     -0.80667501662579     -0.41463198628387
  H   -2.28471499402907     -0.66118618286453     -1.34977453580176
  H   -1.64891256492586     -1.87987241268448     -0.23152630346353
  H   -2.31139571023946     -0.35596367666603      0.39390384607241
