16
Coordinates from ORCA-job run
  C   0.73706174098750      0.47036629443978      0.50374075144413
  C   -0.28795572443191      0.19586312509117     -0.58367300623916
  Cl  1.78666642217851      1.82003556982323     -0.03679272785187
  H   0.21276305925862      0.04684256160775     -1.54188602337532
  H   0.21540100791248      0.83467869419449      1.39022145274089
  C   1.59168714224965     -0.74103905948712      0.82453163356166
  H   0.98685617803481     -1.52901127866008      1.27769737754629
  H   2.06886145068634     -1.13031821857803     -0.07781151196025
  H   2.37479869243530     -0.46712982801682      1.53208442128730
  N   -1.12946132918794      1.42416118721232     -0.78172103547248
  O   -1.66943224238999      1.88984912536102      0.21889118592363
  O   -1.24819576174969      1.84785188647662     -1.92771775032744
  C   -1.23102760796708     -0.95106267155098     -0.25465018122557
  H   -2.02967550148057     -0.99849182114315     -0.99793361618399
  H   -0.69819481807681     -1.90180752395114     -0.27401042937019
  H   -1.68015270845922     -0.80878804281905      0.73002945950238
