16
Coordinates from ORCA-job run
  C   0.53411706712442     -0.42350624331082      0.71029938396573
  C   -0.35641075681477     -0.19564801546792     -0.51372705581813
  Cl  -0.27774657767234      0.08837278578246      2.22128725911447
  H   0.19494177366991     -0.59392640964759     -1.36969340235918
  H   0.64592255420286     -1.50809791726113      0.79424373410206
  C   1.89900676927291      0.23377775594170      0.61841816481869
  H   1.81682413052113      1.32030075449136      0.64723008240032
  H   2.39107260429709     -0.04787132932181     -0.31558851810632
  H   2.51909249530680     -0.08617629243806      1.45660925160378
  N   -0.45209041521378      1.27515571669198     -0.80055556517656
  O   -1.37306123045749      1.90303055597787     -0.28491631958187
  O   0.42797938172317      1.75316683904789     -1.51712655681665
  C   -1.73670791502725     -0.80976099263403     -0.42491353667258
  H   -2.31314721022294     -0.35954216061769      0.37974723604720
  H   -2.27546529679017     -0.66676336178959     -1.36343003295922
  H   -1.64332737391955     -1.88251168544462     -0.23988412456175
