17

C	-0.501048	-0.010299	-1.450546
C	0.0	0.0	0.0
Br	0.206237	-1.776832	-2.251659
H	1.096146	0.0	0.0
N	-1.907941	0.021911	-1.471299
H	-2.279981	-0.125926	-2.399854
H	-2.268944	-0.670487	-0.823558
C	0.147741	1.078655	-2.275153
H	-0.13013	0.983378	-3.327687
H	1.232732	1.015981	-2.176165
H	-0.199538	2.046638	-1.903506
N	-0.583676	-1.129213	0.747168
H	-0.011072	-1.936906	0.520928
H	-0.442499	-0.951586	1.735561
C	-0.451596	1.251263	0.620688
N	-0.792371	2.253261	1.130016
Cl	3.357384	0.0	0.0
