17

C	-0.384199	-0.08728	-1.493453
C	0.0	0.0	0.0
Br	-0.156585	1.828023	-2.270131
H	1.094628	0.0	0.0
N	0.502792	-0.987679	-2.094202
H	0.383223	-1.045445	-3.096286
H	1.471597	-0.788845	-1.849847
C	-1.834713	-0.434891	-1.744372
H	-2.016067	-1.417131	-1.303844
H	-2.49321	0.307712	-1.291156
H	-2.041252	-0.46861	-2.816995
N	-0.420789	-1.236809	0.678766
H	-1.116938	-1.040876	1.386241
H	0.394981	-1.633966	1.129775
C	-0.548831	1.170168	0.680361
N	-1.091641	2.008974	1.299997
Cl	3.315509	0.0	0.0
