17

C	-0.281049	-0.006233	-1.511228
C	0.0	0.0	0.0
Br	-2.261053	0.002375	-1.785925
H	1.098238	0.0	0.0
N	0.254401	1.153491	-2.179092
H	-0.060835	2.000063	-1.715788
H	1.268007	1.106847	-2.075928
C	0.288938	-1.260817	-2.136989
H	0.109921	-1.241126	-3.212617
H	1.366025	-1.267732	-1.936991
H	-0.15372	-2.147493	-1.688601
N	-0.469636	-1.190327	0.683943
H	-1.433572	-1.076352	0.973924
H	0.106804	-1.34556	1.502438
C	-0.457464	1.258099	0.609938
N	-0.82586	2.246384	1.129988
Cl	3.311526	0.0	0.0
