17

C	-0.434361	-0.025331	-1.484273
C	0.0	0.0	0.0
Br	-8.4e-05	1.730458	-2.263237
H	1.0945	0.0	0.0
N	0.319291	-1.019438	-2.217984
H	0.152849	-1.896041	-1.726565
H	1.31086	-0.813007	-2.090408
C	-1.922719	-0.262407	-1.653384
H	-2.168598	-0.267462	-2.715622
H	-2.504589	0.512311	-1.148921
H	-2.172534	-1.238742	-1.226943
N	-0.372981	-1.293861	0.598594
H	0.392239	-1.589031	1.192752
H	-1.20413	-1.208283	1.168742
C	-0.550979	1.125007	0.755172
N	-1.065807	1.953742	1.411781
Cl	3.305294	0.0	0.0
