17

C	-0.475131	-0.002295	-1.472144
C	0.0	0.0	0.0
Br	0.080555	-1.711146	-2.281599
H	1.094957	0.0	0.0
N	-1.933231	-0.012492	-1.493952
H	-2.256619	-0.114021	-2.4504
H	-2.25852	0.887197	-1.146936
C	0.193377	1.111274	-2.263803
H	-0.083161	1.048236	-3.319711
H	-0.141189	2.076956	-1.871085
H	1.279487	1.046198	-2.159612
N	-0.483955	-1.102239	0.814156
H	-1.384472	-1.396864	0.449512
H	0.17475	-1.86512	0.714958
C	-0.477364	1.266404	0.582379
N	-0.906393	2.283348	0.986668
Cl	3.346247	0.0	0.0
