17

C	-0.327805	-0.03756	-1.517213
C	0.0	0.0	0.0
Br	0.069634	1.835317	-2.25798
H	1.097408	0.0	0.0
N	0.52322	-1.011772	-2.082239
H	1.494441	-0.840669	-1.816751
H	0.440832	-1.049005	-3.089833
C	-1.785238	-0.279993	-1.858361
H	-2.421932	0.465688	-1.378123
H	-1.939629	-0.217803	-2.937975
H	-2.072015	-1.283039	-1.530586
N	-0.400235	-1.207744	0.716037
H	0.176898	-1.968911	0.381364
H	-1.371929	-1.432179	0.538895
C	-0.584114	1.156219	0.675124
N	-1.130261	2.028199	1.241601
Cl	3.328462	0.0	0.0
