17

C	-0.512549	-0.009089	-1.446143
C	0.0	0.0	0.0
Br	0.269328	-1.724097	-2.283256
H	1.098109	0.0	0.0
N	-1.920783	-0.041585	-1.45084
H	-2.238448	-0.755742	-0.803212
H	-2.294023	-0.203512	-2.376523
C	0.071624	1.123066	-2.261297
H	-0.215494	1.029067	-3.311344
H	-0.318653	2.067751	-1.871445
H	1.159864	1.111633	-2.178054
N	-0.56305	-1.148392	0.736969
H	0.030496	-1.940004	0.505427
H	-0.42841	-0.976352	1.727826
C	-0.46482	1.237205	0.637136
N	-0.830491	2.227614	1.151766
Cl	3.354052	0.0	0.0
