17

C	-0.552407	0.025454	-1.435511
C	0.0	0.0	0.0
Br	0.182826	1.620681	-2.332457
H	1.093869	0.0	0.0
N	-0.054848	-1.147228	-2.096262
H	-0.487628	-1.255209	-3.005603
H	-0.273517	-1.943297	-1.503875
C	-2.072602	0.156926	-1.459667
H	-2.425865	0.138006	-2.493267
H	-2.41254	1.083476	-0.993369
H	-2.503049	-0.699009	-0.928651
N	-0.406501	-1.270556	0.630975
H	0.399635	-1.629291	1.132982
H	-1.159634	-1.128621	1.294427
C	-0.474491	1.15623	0.766258
N	-0.910647	2.023776	1.428991
Cl	3.382175	0.0	0.0
