12

C	0.0	0.0	0.0
C	-0.561662	-0.138546	-1.400122
Br	1.941971	0.0	0.0
H	-1.653535	-0.142259	-1.234008
H	-0.331988	0.952464	0.406057
H	-0.330866	-0.817774	0.637052
C	-0.184295	-1.425316	-2.013019
N	0.094874	-2.439733	-2.537389
N	-0.2167	1.014783	-2.222872
H	0.71947	0.91367	-2.595796
H	-0.865757	1.071964	-2.997227
Br	-3.700444	0.0	0.0
