12

C	0.0	0.0	0.0
C	-0.544539	0.050185	-1.427486
Br	1.939591	0.0	0.0
H	-1.630993	-0.086786	-1.296697
H	-0.328868	-0.904162	0.509686
H	-0.348177	0.870996	0.551492
C	-0.039706	-1.073102	-2.227755
N	0.351772	-1.975782	-2.868748
N	-0.332724	1.30135	-2.140598
H	0.611394	1.636138	-1.980958
H	-0.988913	1.979135	-1.769151
Br	-3.627537	0.0	0.0
