17

C	-0.490698	0.051693	-1.460585
C	0.0	0.0	0.0
Br	0.081811	-1.743461	-2.23533
H	1.090356	0.0	0.0
N	-1.895054	0.225325	-1.504761
H	-2.22875	0.238737	-2.460642
H	-2.382674	-0.500438	-0.990557
C	0.242133	1.095324	-2.282517
H	-0.076266	2.089451	-1.965649
H	0.004039	0.959288	-3.340369
H	1.318374	0.99413	-2.13061
C	-0.552642	-1.133897	0.727625
N	-1.016741	-2.05148	1.296016
N	-0.457872	1.267845	0.685042
O	-1.421797	1.203233	1.447983
O	0.164943	2.28691	0.406488
Cl	3.221956	0.0	0.0
