17

C	-0.3021	0.052354	-1.504857
C	0.0	0.0	0.0
Br	-2.268127	0.123462	-1.826206
H	1.094869	0.0	0.0
N	0.273866	1.255756	-2.028131
H	1.223761	1.348182	-1.66771
H	0.30468	1.19785	-3.039816
C	0.213941	-1.232745	-2.142046
H	1.285872	-1.29451	-1.931915
H	0.056938	-1.187233	-3.221801
H	-0.287011	-2.120114	-1.755392
C	-0.527231	-1.188704	0.644293
N	-0.912868	-2.170606	1.159656
N	-0.477164	1.22308	0.719968
O	-1.526284	1.139304	1.35738
O	0.215583	2.226787	0.607398
Cl	3.206966	0.0	0.0
