17

C	-0.438029	-0.001059	-1.464099
C	0.0	0.0	0.0
Br	-2.467252	0.393257	-1.512474
H	1.09595	0.0	0.0
N	0.293743	0.935689	-2.218927
H	0.022679	0.936327	-3.193143
H	0.267455	1.868328	-1.827086
C	-0.288079	-1.382042	-2.080582
H	0.763105	-1.674423	-2.009844
H	-0.578127	-1.347289	-3.134481
H	-0.912699	-2.117413	-1.57638
C	-0.507483	-1.133907	0.738923
N	-0.859869	-2.101468	1.310388
N	-0.409636	1.266289	0.690542
O	-1.085932	1.194591	1.714292
O	0.070852	2.30133	0.226631
Cl	2.673728	0.0	0.0
