17

C	-0.589117	0.02738	-1.432606
C	0.0	0.0	0.0
Br	0.317471	1.394463	-2.501685
H	1.090102	0.0	0.0
N	-0.252851	-1.247323	-2.035771
H	-0.823547	-1.981336	-1.629258
H	-0.421188	-1.208582	-3.032668
C	-2.08093	0.350684	-1.434061
H	-2.609359	-0.384899	-0.818141
H	-2.293206	1.348163	-1.046602
H	-2.454193	0.291211	-2.458583
C	-0.489889	-1.203975	0.665713
N	-0.896359	-2.206099	1.125814
N	-0.477496	1.194844	0.77726
O	0.098541	2.252686	0.558842
O	-1.432738	1.046698	1.541951
Cl	3.213992	0.0	0.0
