17

C	-0.52708	0.038837	-1.467546
C	0.0	0.0	0.0
Br	0.170488	-1.602809	-2.287358
H	1.090293	0.0	0.0
N	-1.962502	-0.000397	-1.619448
H	-2.364232	0.817733	-1.16899
H	-2.338195	-0.82126	-1.15195
C	0.063411	1.231966	-2.1922
H	1.142334	1.26445	-2.036735
H	-0.374732	2.157426	-1.8072
H	-0.171741	1.151313	-3.251944
C	-0.558087	-1.123586	0.736492
N	-1.032153	-2.039282	1.299233
N	-0.46183	1.272483	0.664908
O	-1.615201	1.294703	1.110501
O	0.314991	2.221972	0.657221
Cl	3.230212	0.0	0.0
