17

C	-0.441458	-0.012971	-1.491281
C	0.0	0.0	0.0
Br	0.057245	1.731259	-2.259426
H	1.091996	0.0	0.0
N	0.303451	-1.02644	-2.196052
H	1.295244	-0.938697	-1.970695
H	-0.016558	-1.941389	-1.889541
C	-1.932641	-0.202319	-1.693817
H	-2.497703	0.598583	-1.218002
H	-2.24884	-1.154699	-1.255274
H	-2.139242	-0.213538	-2.764383
C	-0.471156	-1.234127	0.622031
N	-0.843206	-2.261079	1.056035
N	-0.541003	1.155149	0.785713
O	0.207631	2.101508	0.993825
O	-1.720916	1.079561	1.144612
Cl	3.226545	0.0	0.0
