17
Coordinates from ORCA-job run
  C   0.81815879825787      0.36236594930368     -0.05900487085850
  C   -0.65850512879409      0.23796372479299     -0.37267697450906
  H   1.08568540260429      1.41323097282337      0.05655121790637
  H   -0.79703084399856      0.70195883994483     -1.35409664846651
  N   1.70992450947044     -0.14343077638601     -1.17403044235053
  O   1.52092783574411      0.41678071039930     -2.24409930002291
  O   2.53415700081555     -1.00292785007600     -0.91148741573647
  N   1.22314472875533     -0.31275662456370      1.21135530959470
  O   2.17858847586993      0.18991362200975      1.79429695211180
  O   0.58596552405038     -1.30473972157085      1.55176496647161
  C   -1.52530328695277      0.90052292230971      0.67912198695454
  H   -1.44695501853974      0.38198225519701      1.63422235609284
  H   -2.56893585772219      0.88335240533771      0.37101321539300
  H   -1.21874178223601      1.94174820541248      0.80389788724323
  N   -1.04928430970596     -1.20768760777959     -0.59007525028558
  O   -0.28507870229003     -1.86888968341248     -1.28442046037511
  O   -2.10871734532853     -1.58938734374222     -0.11233252916343
