17
Coordinates from ORCA-job run
  C   0.88180592964186      0.25837486742612     -0.00767682648348
  C   -0.58072492086663      0.33162955806434     -0.40591410901671
  H   1.26049664045258      1.25868156008290      0.20509173059092
  H   -0.61808279121716      0.81062504945062     -1.38670256781187
  N   1.74404047689257     -0.29006657621934     -1.10354553196679
  O   1.21416901609547     -1.03627608608047     -1.92053427840981
  O   2.91931473562580      0.05818793454607     -1.06891773127807
  N   1.17147493416934     -0.54955102237754      1.23749133239909
  O   1.80383065733621     -1.58600901677110      1.11906426497257
  O   0.74822517143147     -0.04340545124303      2.26856005531770
  C   -1.46397333177649      1.07176622773655      0.58770251844642
  H   -1.51618813676095      0.53720847629505      1.53437824632487
  H   -1.07111232427182      2.07286822861106      0.77367293267632
  H   -2.46583944942866      1.16371959636518      0.16480134764671
  N   -1.17774980804135     -1.02831089402429     -0.62613108237064
  O   -0.92793720079715     -1.88220384497555      0.21908649444059
  O   -1.92274959848509     -1.14723860688656     -1.59042679547781
