17
Coordinates from ORCA-job run
  C   0.86082204959579     -0.28021519139638     -0.24669107940307
  C   -0.62618485210054     -0.03589434145253     -0.46212125824326
  H   1.18126819273289     -1.18791513058937     -0.75593930887790
  H   -0.73328638327384      0.24359559501020     -1.51698849810081
  N   1.21171509770274     -0.46204074147028      1.20476535792808
  O   2.28173555607656     -0.01820614960639      1.59568514050699
  O   0.40063021583080     -1.12307672459173      1.84396682759555
  N   1.67547122184907      0.84130942939643     -0.80856713644641
  O   2.41485261682941      0.54932831343917     -1.74499278400372
  O   1.52240516214387      1.95098283147291     -0.30943830066535
  C   -1.29786070997520      0.97923737377283      0.43643083482780
  H   -0.76943220615896      1.92917749953483      0.36901515123104
  H   -1.30907422359656      0.64102744830620      1.47072061719003
  H   -2.32818783061739      1.12401784321568      0.11521595412475
  N   -1.32148722143482     -1.39055367178362     -0.39507051553303
  O   -2.38694075302543     -1.45156374928490      0.20148331990302
  O   -0.77644593257840     -2.31021063397306     -0.99747432203370
