17
Coordinates from ORCA-job run
  C   0.75222095273366     -0.34379227578099      0.16051159343470
  C   -0.56547625497946      0.23646083789436     -0.29264931137683
  H   0.66471399460362     -1.29910546930390      0.67062212425057
  H   -0.38500388865215      1.10768204873843     -0.92223553127674
  N   1.39570922567123      0.62834739989217      1.09900727926840
  O   1.41960839276440      0.31285126023495      2.28364071088050
  O   1.79456066193415      1.67582401928412      0.59871519873849
  N   1.71798629057899     -0.53885734770282     -0.97681800843944
  O   1.38952368838942     -0.13608484610123     -2.08629954058799
  O   2.76953931807928     -1.08624138498956     -0.66638772369993
  C   -1.49655402305119      0.55623857168885      0.86597313081941
  H   -2.45809451536109      0.88363997394466      0.46933012059437
  H   -1.64823941758279     -0.31967799456399      1.50029081000215
  H   -1.08679474566045      1.36447532621058      1.47306594454554
  N   -1.24148089988626     -0.76847951665345     -1.18407103316605
  O   -0.92208091348960     -1.94887898847776     -1.06037277145834
  O   -2.10013786609176     -0.32340161431442     -1.93432299252880
