18

C	0.0	0.0	0.0
C	-0.23376	-0.07017	-1.538623
Cl	1.814618	0.0	0.0
H	0.297218	-0.967642	-1.881145
H	0.320555	0.776238	-1.963591
C	-0.562123	1.27088	0.594717
H	-1.656806	1.140821	0.516482
H	-0.26493	1.375041	1.643842
H	-0.221673	2.152232	0.042369
C	-0.56588	-1.208238	0.708988
H	-0.227399	-2.137715	0.240405
H	-0.27021	-1.216657	1.763746
H	-1.66037	-1.082089	0.617345
C	-1.637002	-0.07543	-2.129402
H	-1.52362	-0.12473	-3.221958
H	-2.245971	-0.897888	-1.768045
H	-2.210407	0.803752	-1.851537
F	-3.192217	0.0	0.0
