13

C	0.0	0.0	0.0
C	-0.5312	-0.054001	-1.423592
F	1.376797	0.0	0.0
H	-1.637188	-0.159543	-1.281237
H	-0.326676	0.91526	-1.885753
N	-0.547949	1.156262	0.616013
H	-1.586056	0.994817	0.509675
H	-0.347664	1.120306	1.612172
C	-0.329362	-1.275982	0.718159
N	-0.474167	-2.260698	1.343508
C	0.04452	-1.12622	-2.217413
N	0.494963	-1.985629	-2.880014
H	-2.936565	0.0	0.0
