13

C	0.0	0.0	0.0
C	-0.516952	-0.064534	-1.426031
F	1.404429	0.0	0.0
H	-1.628761	-0.087295	-1.289986
H	-0.17994	-0.985939	-1.908538
N	-0.538251	1.142474	0.636064
H	-0.326818	1.103183	1.628895
H	-1.576891	0.987081	0.534624
C	-0.316477	-1.294511	0.684402
N	-0.44983	-2.30384	1.271293
C	-0.090048	1.082321	-2.21219
N	0.240084	1.972339	-2.903671
H	-2.925881	0.0	0.0
