13

C	0.0	0.0	0.0
C	-0.534441	-0.17314	-1.412308
F	1.378822	0.0	0.0
H	-1.645445	-0.181347	-1.259601
H	-0.205021	-1.129853	-1.82641
N	-0.540714	1.184827	0.551038
H	-1.578459	1.027969	0.463269
H	-0.323196	1.225405	1.542791
C	-0.328483	-1.248395	0.770349
N	-0.458935	-2.255727	1.361543
C	-0.115875	0.911073	-2.28603
N	0.190831	1.76338	-3.034403
H	-2.925545	0.0	0.0
