13

C	0.0	0.0	0.0
C	-0.532494	-0.150853	-1.415885
F	1.376796	0.0	0.0
H	-0.337436	0.788531	-1.939642
H	-1.637911	-0.255307	-1.265444
N	-0.551699	1.192137	0.538381
H	-0.354251	1.22143	1.535438
H	-1.58952	1.019267	0.439759
C	-0.325351	-1.231329	0.794568
N	-0.513085	-2.203717	1.426624
C	0.051162	-1.267061	-2.140572
N	0.496912	-2.164198	-2.754958
H	-2.936771	0.0	0.0
