13

C	0.0	0.0	0.0
C	-0.49584	0.085255	-1.445723
F	1.384312	0.0	0.0
H	-0.136585	-0.759314	-2.039524
H	-1.60806	0.035764	-1.313619
N	-0.514316	1.002725	0.866732
H	-0.349049	1.906218	0.431938
H	-1.547382	0.824043	0.828319
C	-0.373662	-1.341199	0.529717
N	-0.498102	-2.441622	0.921123
C	-0.096047	1.339408	-2.06216
N	0.19844	2.365976	-2.552792
H	-2.913259	0.0	0.0
