13

C	0.0	0.0	0.0
C	-0.528201	-0.008317	-1.424453
F	1.378974	0.0	0.0
H	-0.207887	-0.916278	-1.940834
H	-1.639123	-0.023348	-1.278274
N	-0.543893	1.11545	0.676306
H	-1.581435	0.974171	0.563355
H	-0.323046	1.044574	1.664601
C	-0.321282	-1.326646	0.623604
N	-0.441811	-2.3952	1.097568
C	-0.085863	1.160187	-2.171225
N	0.242342	2.082014	-2.822171
H	-2.919058	0.0	0.0
