19

C	0.0	0.0	0.0
C	-0.405281	0.092324	-1.534028
Br	1.979818	0.0	0.0
H	0.495278	0.329051	-2.108536
N	-0.480434	1.094219	0.797774
H	-0.415275	1.927523	0.219847
H	-1.492805	0.886725	0.831442
C	-0.430942	-1.280526	0.700905
H	-0.084071	-1.232008	1.734984
H	-0.023646	-2.175105	0.230345
H	-1.524955	-1.274867	0.671699
N	-1.328176	1.217905	-1.706499
H	-2.176519	0.926537	-1.183843
H	-1.559468	1.265761	-2.694409
C	-0.988108	-1.21613	-2.075523
H	-0.305713	-2.06647	-1.976017
H	-1.200008	-1.08799	-3.144005
H	-1.926045	-1.407369	-1.552278
F	-2.964253	0.0	0.0
