19

C	0.0	0.0	0.0
C	-0.289949	0.12453	-1.546524
Br	1.988796	0.0	0.0
H	0.519955	0.746506	-1.941923
N	-0.493763	1.170924	0.674691
H	-1.511537	1.106527	0.513
H	-0.353517	1.02918	1.67215
C	-0.489361	-1.291303	0.63528
H	-0.212886	-1.301677	1.694273
H	-1.583067	-1.232609	0.539407
H	-0.088309	-2.190295	0.164856
N	-1.532272	0.82429	-1.849647
H	-1.753425	0.633493	-2.820931
H	-2.301142	0.459654	-1.24371
C	-0.199976	-1.246633	-2.23404
H	-0.251007	-1.097262	-3.31831
H	-1.055222	-1.861542	-1.943176
H	0.729755	-1.781492	-2.016159
F	-3.10488	0.0	0.0
