19

C	0.0	0.0	0.0
C	-0.468102	0.057489	-1.475498
Br	1.97654	0.0	0.0
H	-1.558935	0.080766	-1.331555
N	-0.542259	1.152668	0.66911
H	-1.569717	0.969773	0.536348
H	-0.34721	1.063918	1.664081
C	-0.429001	-1.304968	0.662187
H	-0.005487	-2.189379	0.181229
H	-0.117143	-1.306361	1.711353
H	-1.524641	-1.273707	0.58975
N	-0.142825	-1.116905	-2.285135
H	-0.68272	-1.904509	-1.947839
H	0.839641	-1.34343	-2.158148
C	-0.000125	1.308857	-2.201054
H	1.059976	1.23489	-2.464382
H	-0.570988	1.410131	-3.127984
H	-0.146177	2.191247	-1.577504
F	-2.914201	0.0	0.0
