19

C	0.0	0.0	0.0
C	-0.402213	-0.081042	-1.534217
Br	1.980315	0.0	0.0
H	0.496819	0.102309	-2.129565
N	-0.479491	1.179803	0.66674
H	-1.49188	0.979466	0.72511
H	-0.414104	1.940429	-0.003874
C	-0.434316	-1.190433	0.842787
H	-0.029656	-2.134461	0.478495
H	-0.087944	-1.023824	1.864483
H	-1.528289	-1.18431	0.81176
N	-1.338702	1.00558	-1.831758
H	-2.18452	0.770088	-1.276237
H	-1.570791	0.938026	-2.818227
C	-0.960816	-1.451278	-1.928558
H	-1.170047	-1.447409	-3.005284
H	-0.262649	-2.271717	-1.732719
H	-1.897818	-1.601109	-1.390487
F	-2.970811	0.0	0.0
