19

C	0.0	0.0	0.0
C	-0.315108	0.047884	-1.562607
Br	1.972573	0.0	0.0
H	0.512086	0.616755	-1.998059
N	-0.516716	1.214803	0.58817
H	-1.539754	1.05386	0.514867
H	-0.290838	1.204463	1.580141
C	-0.493678	-1.243095	0.71929
H	-1.586495	-1.192535	0.616529
H	-0.220566	-1.186301	1.778779
H	-0.091414	-2.16989	0.307139
N	-1.530499	0.731082	-1.96208
H	-2.29963	0.387648	-1.353868
H	-1.411645	1.706561	-1.709891
C	-0.313212	-1.347407	-2.175643
H	-1.189287	-1.902145	-1.829458
H	0.591673	-1.911354	-1.931216
H	-0.387243	-1.244171	-3.260425
F	-3.057692	0.0	0.0
