19

C	0.0	0.0	0.0
C	-0.106082	-0.032814	-1.571667
Br	2.143206	0.0	0.0
H	0.646743	-0.750762	-1.921616
N	-0.605521	1.094342	0.610915
H	-1.625	0.803481	0.604646
H	-0.524443	1.873857	-0.037603
C	-0.414692	-1.295782	0.644722
H	-1.511299	-1.286452	0.574336
H	0.014154	-2.158016	0.129737
H	-0.107504	-1.307653	1.692355
N	0.177306	1.322175	-2.062596
H	-0.116652	1.389671	-3.028824
H	1.176765	1.485498	-2.020269
C	-1.450755	-0.488959	-2.124219
H	-1.592876	-1.553406	-1.922097
H	-1.428986	-0.359759	-3.215598
H	-2.287215	0.021631	-1.642246
F	-3.012196	0.0	0.0
