15
Coordinates from ORCA-job run
  C   -0.59496430228450     -0.28680127642836     -0.10746976679783
  C   0.82582381502325      0.15053909936804      0.32442695546439
  F   -1.21202111243434      0.91897569631698     -0.54007179792105
  H   1.44067730095130     -0.74556117979596      0.42832765094895
  N   -0.54047490054942     -1.25047382948726     -1.13689406637298
  H   0.10550869404762     -0.97353125434888     -1.86450551423577
  H   -1.46267700660345     -1.37222004275931     -1.53840084817338
  N   -1.26356803309969     -0.80456160745630      1.02723890905885
  H   -1.94271897301823     -1.50895532269467      0.77813186218597
  H   -1.68435632094621     -0.07032344768936      1.58053928207049
  C   0.78124138438415      0.90559750326340      1.56836482218462
  N   0.71940213508064      1.48136615851358      2.58920460736725
  N   1.45978064771489      0.99165383470144     -0.76121209480530
  O   1.75874077946617      0.37822278429389     -1.78394361867869
  O   1.60960589226782      2.18807288420277     -0.56373638229553
