15
Coordinates from ORCA-job run
  C   -0.73499293752583     -0.13130831201819     -0.07393795676448
  C   0.68081969086757      0.25600087952228      0.45728249949084
  F   -1.38715229475154      1.04020432004361     -0.36004232345899
  H   1.16758497794310     -0.62946933404477      0.87145872689579
  N   -0.75430254772304     -0.88412672302260     -1.29130645079682
  H   -0.19770876143688     -1.72640084058307     -1.23114577366938
  H   -0.44789016194243     -0.32992462900821     -2.08175384975283
  N   -1.40791981757987     -0.75288716930279      1.02090378275361
  H   -0.95100616273074     -1.61435958335195      1.29373445620968
  H   -2.35408598582221     -0.96966279379332      0.72637585606080
  C   0.62260720807708      1.32248087914013      1.44347595534912
  N   0.59763742623238      2.16560645063005      2.25971635759247
  N   1.53054982060077      0.66600102739045     -0.71141386911397
  O   2.23877946639314     -0.21820115898876     -1.18825940951071
  O   1.39508007939851      1.80704698738719     -1.13608800128514
