15
Coordinates from ORCA-job run
  C   -0.56174716908768     -0.42081044616819     -0.18984390715546
  C   0.53809924960453      0.59033151042396      0.27298870927652
  F   0.09435803254102     -1.18669399201827     -1.16564822407976
  H   0.22291066450705      1.04623136013941      1.21420329137358
  N   -1.02436614490582     -1.16007693907696      0.91402101582608
  H   -0.27010863523734     -1.59550418858281      1.42760117934874
  H   -1.69371531811085     -1.84896522019271      0.59496927926818
  N   -1.68076056113096      0.16131995753617     -0.83980793199356
  H   -1.42299980792787      0.69568345350227     -1.65827262762941
  H   -2.24128631486835      0.70651160706236     -0.20106547382927
  C   0.77369584902473      1.60124697008056     -0.74642085792812
  N   0.88264305310803      2.42705215155361     -1.57382875466686
  N   1.82368956405801     -0.14816111170619      0.57228917529988
  O   2.77045801052626      0.00037919873986     -0.18601838496222
  O   1.78912952789922     -0.86854431129312      1.56683351185171
