15
Coordinates from ORCA-job run
  C   -0.68346057858552     -0.25304168059417      0.04932826710036
  C   0.60252093558778      0.36256748813862      0.64786983253603
  F   -1.64239745644811      0.04085766471988      1.06875283646088
  H   0.76087700875998     -0.04004159056161      1.64965008145531
  N   -1.03368090936947      0.38192816932618     -1.15829718345694
  H   -1.58444329464543     -0.20792338534874     -1.76460046360962
  H   -1.48978510785895      1.27010694923662     -1.00153113141134
  N   -0.52306103618050     -1.63970142890064     -0.13784808192807
  H   -0.12317719265258     -2.09238148524160      0.67266096983626
  H   -1.41051064950801     -2.07295358891995     -0.36097058238322
  C   0.50364309108114      1.81340207830476      0.68873320674819
  N   0.38068371248035      2.98000155532490      0.72751136499879
  N   1.79599826360159     -0.06516959480888     -0.16670770950923
  O   2.10752714486402      0.62020697417871     -1.12979503523513
  O   2.33726606887373     -1.09885812485411      0.21524362839774
