15
Coordinates from ORCA-job run
  C   -0.71914750086339     -0.16248864703801      0.17710010225056
  C   0.67953288948254      0.31769791060030      0.62885728322563
  F   -1.53950444624839      0.10638430649955      1.27858764799854
  H   0.93574062360016     -0.17488744876966      1.56862072973905
  N   -1.22472271533221      0.63280607469128     -0.88735274946095
  H   -2.22145857477535      0.49427811738658     -0.99056794834139
  H   -0.73847365521129      0.44119933398441     -1.75239767413449
  N   -0.63748419547127     -1.55195961278356     -0.09841274382952
  H   -1.50957865977497     -1.89666241316084     -0.47815706437892
  H   -0.38182073490327     -2.09450611291335      0.71837954670557
  C   0.74089187924210      1.76383985634662      0.77663925244613
  N   0.78144885724622      2.92834351025232      0.91556205543324
  N   1.70303402643888     -0.14725976722233     -0.37350572600508
  O   1.65873543172937      0.36530366365825     -1.48585008243782
  O   2.47380677484086     -1.02208877153151      0.00249737078941
