15
Coordinates from ORCA-job run
  C   -0.68199615748773     -0.13327505161293     -0.21532913244662
  C   0.76945436751414      0.02618019443416      0.34563501911106
  F   -0.98908475709224      1.15261427313884     -0.68590622223158
  H   1.20349663082795     -0.96660561293448      0.48352628086403
  N   -0.70354746238451     -1.13358479824648     -1.20409899561479
  H   -1.63243404266163     -1.18783123737401     -1.60228561719678
  H   -0.00820340051053     -0.97906959478667     -1.92166262858229
  N   -1.67231678766405     -0.43945187196762      0.75366626224618
  H   -1.55609077186067     -1.37118927481947      1.12475952823230
  H   -1.72552353459839      0.25102251049078      1.49006355047215
  C   0.76239834920527      0.77406712334735      1.59342027545971
  N   0.69696596755737      1.32872056937615      2.62612191806425
  N   1.64037077438825      0.72997943697072     -0.67107492702067
  O   2.00225423963270      1.87322793126575     -0.43559451256527
  O   1.89225658513405      0.07619540271786     -1.68024079879166
