15
Coordinates from ORCA-job run
  C   -0.58335194269493     -0.24458649681866     -0.15304227874969
  C   0.76055877083150      0.28687436518175      0.40421137006517
  F   -1.25520978164270      0.83948420326428     -0.70802572992106
  H   1.29611369267316     -0.54569144097424      0.86104327886309
  N   -0.32941418180581     -1.14667578619758     -1.23098667807464
  H   -1.04192311308514     -1.05393850750570     -1.94115752159395
  H   -0.26147565929308     -2.10075331779504     -0.90610828721312
  N   -1.29631908095888     -0.82865567706037      0.92750190880713
  H   -1.50559359091117     -0.14810031083540      1.64978045572885
  H   -2.16487988803501     -1.22604920723700      0.58967988383571
  C   0.54959137081057      1.36222394640801      1.36349841479427
  N   0.33800878522071      2.18772585236210      2.17108457352826
  N   1.62494808647304      0.76473715167283     -0.73171968987283
  O   1.32308707871923      1.83275163189060     -1.24856678667988
  O   2.54585945369851      0.02165359364443     -1.04819291351731
