15
Coordinates from ORCA-job run
  C   -0.45749961995373     -0.62224996250383     -0.06219385027658
  C   0.67527364807365      0.29257144966948      0.50129056913590
  F   0.22847566465760     -1.79252153099622     -0.41051916285099
  H   1.04937689562991     -0.10963913657991      1.44447988501304
  N   -1.40043214315377     -0.80112319751272      0.97008549408216
  H   -2.19360142092311     -1.32086755618039      0.61487944309900
  H   -1.00379621148517     -1.27531220629023      1.77046255019957
  N   -1.13342929662839     -0.18136484345880     -1.22710737772060
  H   -0.48445804837047     -0.00496307658220     -1.98235236867650
  H   -1.67302526575980      0.65240725961929     -1.03501075313464
  C   0.20107187441098      1.65784181641620      0.65806980633426
  N   -0.20372075418773      2.75389507794699      0.77370826605754
  N   1.85024561846163      0.26529627562509     -0.43935970229251
  O   2.87317843293706     -0.26494753723238     -0.02521002690394
  O   1.67334062629136      0.75197716805961     -1.55222277206574
