15
Coordinates from ORCA-job run
  C   -0.45567507542643     -0.62422771668924     -0.05125608085003
  C   0.68195056336234      0.29807220732321      0.48909767920637
  F   0.22978843754120     -1.79418489355663     -0.40304734881401
  H   1.07234100645480     -0.09782569229899      1.42836246683100
  N   -1.38193268417192     -0.80125374899306      0.99623823415871
  H   -0.97121356544893     -1.27019982365042      1.79260700008439
  H   -2.17819375182989     -1.32612250229893      0.65573335356595
  N   -1.15115824472480     -0.19300227815525     -1.20833222423942
  H   -0.51436420415934     -0.01480806385564     -1.97349927141699
  H   -1.69290908294978      0.63833662444726     -1.01151184938730
  C   0.20484183612016      1.66233866087293      0.64547164244165
  N   -0.20454841945876      2.75661182880327      0.76185987698038
  N   1.84240244853884      0.27004833975586     -0.46973126300135
  O   2.87361034515689     -0.25384282897842     -0.06870106338990
  O   1.64606039099562      0.75005988727404     -1.58229115216953
