15
Coordinates from ORCA-job run
  C   -0.51078914805745     -0.48513882763575     -0.12388278230460
  C   0.75711412443984      0.12842532184403      0.50801469276906
  F   -0.00409753596399     -1.61434322743540     -0.82441241784821
  H   1.14289551913137     -0.58297830563912      1.23826363463607
  N   -1.35289060288611     -0.92968747911346      0.93072559963094
  H   -1.21463893489462     -1.91032323807118      1.13007686255106
  H   -2.32403960898702     -0.71977232453908      0.75541947371380
  N   -1.17826533549672      0.42161550011884     -0.96291742565136
  H   -1.89122719961495     -0.05434052576114     -1.50144392458639
  H   -0.53965097686734      0.90524805473446     -1.58073994486170
  C   0.48421523857114      1.41630668812396      1.12865131596610
  N   0.29599864212172      2.46047414446606      1.63068437882682
  N   1.84929159259852      0.28645540577983     -0.52119916266140
  O   2.85869097094186     -0.38688546561514     -0.36042795780451
  O   1.62939325496377      1.06594427874308     -1.44481234237568
