15
Coordinates from ORCA-job run
  C   -0.68576693657964     -0.24625263006645      0.06293964283042
  C   0.62140411193623      0.34490251078603      0.63994433812460
  F   -1.61495796697279      0.03728785576090      1.11157255463469
  H   0.80390734624433     -0.07938505962305      1.62858992069616
  N   -1.06236598918634      0.41656267862038     -1.12180087729687
  H   -1.53142383471847      1.29211489280067     -0.93678132712486
  H   -1.60486784407881     -0.16644078275263     -1.74133533447404
  N   -0.54426580106175     -1.63006291041910     -0.15683933216195
  H   -0.11205586349032     -2.10262801275522      0.62515717815964
  H   -1.44337104326373     -2.05283254274218     -0.35104712574340
  C   0.53829706830985      1.79547862146561      0.71320677285502
  N   0.43696277517873      2.96233229733686      0.78912719895895
  N   1.78806515911160     -0.07520370521577     -0.21626176891175
  O   2.32931971210552     -1.12293111523357      0.12633054170404
  O   2.08011910646555      0.62905790203752     -1.17180238225062
