15
Coordinates from ORCA-job run
  C   -0.61110433892654     -0.17961255812759     -0.13732685582218
  C   0.80951099318100      0.18030280975303      0.35929112101839
  F   -1.26125424393793      1.01148600627750     -0.43579209850250
  H   1.33547531836396     -0.74195292955575      0.60781301883250
  N   -0.51396322386655     -0.88996857143121     -1.37184862164210
  H   -1.36435205013415     -0.77424576731765     -1.90684887123017
  H   -0.32351937537640     -1.87046404960225     -1.21528379093010
  N   -1.26067448010459     -0.89631262737029      0.90559027896393
  H   -2.16112016337587     -1.23077748383429      0.58403461795115
  H   -1.40021410697899     -0.31561551794565      1.72555849724771
  C   0.75333416567573      1.07134775904427      1.50988388095196
  N   0.67302328589715      1.73439188896059      2.47538099931092
  N   1.58910560686724      0.81935215952744     -0.75897879931858
  O   1.33326973045042      1.98755735355625     -1.01962753643122
  O   2.40048288226548      0.09351152806560     -1.32084584039975
