15
Coordinates from ORCA-job run
  C   -0.52462012059506     -0.55774665479257     -0.16824429887259
  C   0.71445535644181      0.12727638376587      0.47179701036598
  F   0.02409909249849     -1.74590691971671     -0.68583482355686
  H   1.09628901864547     -0.52575212794499      1.25768497332278
  N   -1.50971926155456     -0.95746804124229      0.77535427850565
  H   -1.14138807654654     -1.56955639006245      1.48977387354923
  H   -1.98590789862191     -0.16107374664753      1.17473172309700
  N   -1.13293890134454      0.26594237480033     -1.12384404644517
  H   -1.91291562731722     -0.21719775151835     -1.54910685874936
  H   -0.48518267571277      0.61592017421336     -1.81577572674694
  C   0.38536383201080      1.44261608922699      1.00025512453456
  N   0.10993887334138      2.48570154592829      1.46348611635714
  N   1.84805184487771      0.24303815383670     -0.51986980307935
  O   2.85440928997069     -0.41044762723736     -0.27683463623140
  O   1.66106525390627      0.96565453739073     -1.49457290605065
