15
Coordinates from ORCA-job run
  C   -0.46057754620543     -0.62568346627441     -0.10736290006914
  C   0.66747821330646      0.26508081380874      0.48317600796678
  F   0.22458383258591     -1.81832747750506     -0.40540214098323
  H   1.05338760052253     -0.22395777473231      1.37858998371836
  N   -1.46707902948994     -0.97487352369686      0.83377889818319
  H   -1.09438365146745     -1.43605460585082      1.65179363848224
  H   -2.03682045682858     -0.17803614680528      1.08083913899227
  N   -1.07441452005188     -0.01708835195976     -1.20940202294705
  H   -1.77623496623283     -0.63338815912664     -1.59698975518803
  H   -0.41547402311957      0.29014396449319     -1.91095717432222
  C   0.18715866112821      1.60495379509639      0.78631594457220
  N   -0.21168248329360      2.67200725302257      1.07065175160938
  N   1.84883815399600      0.34459681284346     -0.45460316373606
  O   1.66277909102977      0.89506485832498     -1.53597017053282
  O   2.89144112412037     -0.16443799163823     -0.06345803574583
