15
Coordinates from ORCA-job run
  C   -0.75624707173486     -0.25475624739250      0.17106003250978
  C   0.63045897158701      0.31103533378674      0.61723166706211
  F   -1.56777670792691      0.08305848019154      1.26521937812074
  H   0.90620267920514     -0.11040039762239      1.58525154118057
  N   -1.36335981629301      0.33464438025914     -0.96660603021203
  H   -1.56730483558107      1.31255099149589     -0.80574680667498
  H   -0.77278738855928      0.23397052973076     -1.78148075349136
  N   -0.61968129030437     -1.63590484730530     -0.04623763284044
  H   -1.49552287879158     -2.02139378663274     -0.37374706992788
  H   -0.28427839791520     -2.13493999208306      0.76674553983682
  C   0.60031037908720      1.76361077185444      0.67093127647205
  N   0.53380255842588      2.93521928478036      0.70643963286892
  N   1.67318716872152     -0.14981877107856     -0.36083913666794
  O   1.64102679456586      0.35421048295735     -1.47862851777992
  O   2.43996983551367     -1.02108621294166      0.03140687954360
