15
Coordinates from ORCA-job run
  C   -0.48689909164959     -0.57366655622991     -0.22115952401870
  C   0.68746115443643      0.13641579506375      0.50791138179182
  F   0.14494536396565     -1.70148491408579     -0.77806137512529
  H   1.07216124218397     -0.54042213717468      1.27194736333564
  N   -1.48617841671794     -1.07643965027454      0.65618210897113
  H   -1.11411946413137     -1.71117399510827      1.34863144887281
  H   -2.01661897023787     -0.32918619117211      1.08153123766112
  N   -1.09948434195039      0.27021594043622     -1.15563025816154
  H   -1.83558478211626     -0.22652609262544     -1.63925537611684
  H   -0.44496491094046      0.69325063326447     -1.79848180281983
  C   0.26690113888717      1.40021583892530      1.09400525538642
  N   -0.08500853754493      2.39890318186775      1.60121681480937
  N   1.85141146271934      0.36698967849575     -0.42677580999720
  O   2.88097259702628     -0.24685677445391     -0.17784937011878
  O   1.66600555606997      1.13776524307148     -1.36421209447018
