15
Coordinates from ORCA-job run
  C   -0.69717286860946     -0.23485964566992      0.21486498112890
  C   0.67036542081636      0.35249361840975      0.63892070740069
  F   -1.58624202724236      0.27928843071460      1.14901893536680
  H   1.00232688769052     -0.11928307240855      1.56886823985117
  N   -1.05160021950634      0.29738333482249     -1.07331950175404
  H   -1.84125261684902      0.92442127699321     -1.00295977870489
  H   -1.23702328795473     -0.43439851484675     -1.74261970222665
  N   -0.70011834107940     -1.64977199750163      0.38304622387425
  H   -1.62631015537551     -2.01109708668377      0.18807675891238
  H   -0.02075238495500     -2.07937290874472     -0.23005915820879
  C   0.56357628899330      1.79580689256051      0.80554341799530
  N   0.43913351247326      2.95442416911638      0.94382545102104
  N   1.75369963325652      0.05859990881195     -0.37966702193028
  O   2.70244618551138      0.82851237792740     -0.41216889043677
  O   1.62992397283042     -0.96114678350102     -1.05037066228907
