15
Coordinates from ORCA-job run
  C   -0.52049323135559     -0.46863584510258     -0.14210807940612
  C   0.75197238222961      0.09916384168352      0.52314839699781
  F   -0.03131566308458     -1.59852060878746     -0.85406010241996
  H   1.10519392836283     -0.63518223968994      1.24713630491699
  N   -1.39364395736938     -0.90924249255215      0.88819404770199
  H   -1.28894373799549     -1.89737478606802      1.06974473116413
  H   -2.35467786062473     -0.66449824708999      0.70309564461972
  N   -1.14794336725444      0.47096240627259     -0.97640477567161
  H   -1.86182410081503      0.02349409330767     -1.53785699419545
  H   -0.48503889983546      0.94906144566107     -1.57276700110847
  C   0.50167777321285      1.38247681386074      1.16230750073752
  N   0.32186019835667      2.41688558830766      1.68710240164018
  N   1.86604358746625      0.24514371052690     -0.48392153784652
  O   2.85190659377625     -0.46159295496058     -0.32037754003747
  O   1.68522635493021      1.04885927463055     -1.39523299709267
