15
Coordinates from ORCA-job run
  C   -0.77736031108943     -0.24749490109597      0.23255623898529
  C   0.61996467649835      0.28633292231253      0.66473117897855
  F   -1.56120294657492      0.04920298099275      1.33013665384300
  H   0.84915725129225     -0.12169322311825      1.64930287860832
  N   -1.41099246088184      0.37722063193445     -0.88136881075302
  H   -1.55054909607010      1.36807860214013     -0.71981017376925
  H   -0.86237216015459      0.24639801054877     -1.72076347654986
  N   -0.68108263234686     -1.67360341859755      0.14319152738666
  H   -1.62980426432963     -2.03278480985883      0.12645846384570
  H   -0.23715008622247     -1.93845731190041     -0.72840109361779
  C   0.65711226723008      1.74218391585480      0.67387580185579
  N   0.63714587164543      2.91624468757760      0.65416009790697
  N   1.71257397396675     -0.20900285889879     -0.25018114699404
  O   1.43105433590186     -0.34898032735251     -1.43913006717398
  O   2.80250558113508     -0.41464490053875      0.26524192744768
