15
Coordinates from ORCA-job run
  C   -0.73706646688010     -0.10311886545219     -0.09740990880820
  C   0.67596303667454      0.23087486629674      0.47705324748863
  F   -1.33454798071267      1.09365900350542     -0.39970983294607
  H   1.11863302403558     -0.67260541140151      0.90158779174005
  N   -0.74990903908566     -0.85251383051167     -1.31642572491305
  H   -0.24179675280941     -1.72319450777824     -1.23730838271173
  H   -0.38767337673462     -0.31580700282751     -2.09513194191934
  N   -1.46532250841661     -0.70105597398198      0.97427805937811
  H   -2.40565149237419     -0.89558449491266      0.64770117443422
  H   -1.04035099886728     -1.56984813449831      1.27342121244119
  C   0.62567913775823      1.29635319446774      1.46486488598734
  N   0.61213709954117      2.13494270350305      2.28589040420999
  N   1.57377070691950      0.61312078358251     -0.66476424273345
  O   1.49310046194592      1.75992394252765     -1.08774394244556
  O   2.26203514900559     -0.29514627251907     -1.12530279920213
