15
Coordinates from ORCA-job run
  C   -0.51766009353701     -0.47529288955397     -0.13182216689949
  C   0.76053459927886      0.10929847356184      0.50683488049235
  F   -0.02963159012674     -1.59973333563904     -0.85216859025827
  H   1.13834869017392     -0.61967190403170      1.22381850213029
  N   -1.36385380295881     -0.92461454019800      0.91740422154706
  H   -1.24162724899266     -1.91068907324083      1.09945093555297
  H   -2.33181156923291     -0.69451247400181      0.75031861696352
  N   -1.17350683916983      0.45550125236757     -0.95380609477290
  H   -1.89474146050570      0.00001635303854     -1.49892917992657
  H   -0.52909021725880      0.94057496014901     -1.56446981462150
  C   0.50723640511121      1.38933188152618      1.15163804528254
  N   0.33656544100566      2.41892515595894      1.68881638800384
  N   1.85168020374501      0.26971445344102     -0.52258969676182
  O   2.84974387750217     -0.42432406585366     -0.37950886495950
  O   1.63881360496567      1.06547575247591     -1.43398718177250
