18

C	-0.439639	0.003821	-1.4791
C	0.0	0.0	0.0
F	-1.822207	0.247388	-1.505198
H	1.090752	0.0	0.0
C	0.260511	1.131797	-2.20198
H	1.339636	0.969986	-2.176464
H	-0.098782	1.150383	-3.231116
H	0.042624	2.08617	-1.722945
N	-0.23553	-1.229381	-2.192252
H	0.75275	-1.457632	-2.149175
H	-0.731046	-1.9783	-1.720647
N	-0.498933	-1.280773	0.616151
O	0.233227	-2.268311	0.556071
O	-1.642286	-1.281124	1.07186
N	-0.470278	1.098958	0.781716
H	-1.326367	1.489803	0.420345
H	0.253729	1.795198	0.871296
Cl	3.373475	0.0	0.0
