18

C	-0.43029	0.043565	-1.470158
C	0.0	0.0	0.0
F	-1.764896	0.582733	-1.530705
H	1.093227	0.0	0.0
C	0.455078	1.030531	-2.200204
H	0.147249	1.087901	-3.24895
H	1.498094	0.718836	-2.118966
H	0.350154	2.022012	-1.757513
N	-0.377087	-1.227202	-2.082722
H	-0.501711	-1.144663	-3.082473
H	-1.078509	-1.837176	-1.687101
N	-0.484207	-1.247987	0.701101
O	0.196594	-1.668484	1.625989
O	-1.578549	-1.718397	0.366834
N	-0.472422	1.107597	0.78053
H	-1.234854	1.58192	0.321802
H	0.287573	1.734019	0.996637
Cl	3.401569	0.0	0.0
