18

C	-0.382398	-0.013168	-1.481433
C	0.0	0.0	0.0
F	-0.068613	-1.315033	-1.944089
H	1.100116	0.0	0.0
C	-1.833765	0.225776	-1.835854
H	-2.440334	-0.603251	-1.483593
H	-2.193996	1.146726	-1.378858
H	-1.923848	0.304106	-2.923379
N	0.459741	0.966672	-2.076328
H	1.434417	0.78473	-1.836228
H	0.350644	0.964676	-3.082446
N	-0.506677	-1.215614	0.712049
O	0.285581	-1.814996	1.433729
O	-1.693584	-1.512236	0.574881
N	-0.546806	1.166749	0.673271
H	-0.416497	1.938619	0.027043
H	0.064314	1.363739	1.459942
Cl	3.407991	0.0	0.0
