18

C	-0.368563	-0.004934	-1.499577
C	0.0	0.0	0.0
F	-1.775991	-0.043011	-1.569394
H	1.08936	0.0	0.0
C	0.104854	1.285532	-2.134258
H	-0.098665	1.235099	-3.20525
H	1.177774	1.406148	-1.964645
H	-0.421596	2.138138	-1.708911
N	0.133625	-1.110191	-2.260077
H	1.135512	-0.981625	-2.3567
H	0.013944	-1.967982	-1.734209
N	-0.534085	-1.273159	0.609448
O	-1.559644	-1.205488	1.281471
O	0.05718	-2.32285	0.341862
N	-0.476496	1.10415	0.767136
H	-1.368675	1.446743	0.440472
H	0.219972	1.834247	0.787818
Cl	3.336641	0.0	0.0
