17

C	0.0	0.0	0.0
C	-0.443951	-0.030495	-1.497729
F	1.382632	0.0	0.0
H	-1.537282	-0.15752	-1.482877
C	-0.450139	1.303268	0.628747
H	-0.161824	1.26515	1.680763
H	0.051318	2.144168	0.148769
H	-1.532992	1.403011	0.551466
N	-0.474939	-1.101606	0.764437
H	-1.481108	-0.969937	0.881245
H	-0.346537	-1.971463	0.260442
N	0.170627	-1.226034	-2.165793
O	1.166747	-1.059211	-2.865584
O	-0.351468	-2.312905	-1.918022
C	-0.051803	1.164562	-2.232357
N	0.222383	2.149236	-2.810709
Cl	-3.58006	0.0	0.0
