17

C	0.0	0.0	0.0
C	-0.324081	0.330048	-1.499086
F	1.401702	0.0	0.0
H	0.60779	0.080183	-2.010623
C	-0.439681	1.035811	1.00711
H	0.012042	2.007105	0.799605
H	-0.103454	0.698905	1.991945
H	-1.528647	1.094363	0.993949
N	-0.44033	-1.343537	0.22952
H	-0.11502	-1.613166	1.15233
H	-1.465413	-1.30297	0.26572
N	-0.467728	1.812561	-1.719384
O	0.576742	2.454633	-1.603767
O	-1.570413	2.275028	-1.973272
C	-1.375324	-0.405026	-2.194671
N	-1.968372	-1.059463	-2.968841
Cl	-3.48763	0.0	0.0
