17

C	0.0	0.0	0.0
C	-0.317946	0.008689	-1.540004
F	1.382122	0.0	0.0
H	0.604742	-0.375009	-1.980481
C	-0.442378	1.237725	0.752009
H	-0.149412	1.111513	1.798366
H	-1.52832	1.322669	0.692311
H	0.048509	2.130779	0.362694
N	-0.473414	-1.253763	0.500595
H	-0.224303	-1.313693	1.483639
H	-1.498955	-1.203489	0.454173
N	-0.406687	1.417102	-2.068993
O	-1.488971	1.850378	-2.439948
O	0.657692	2.036518	-2.068428
C	-1.398135	-0.813532	-2.073946
N	-2.036986	-1.560493	-2.717776
Cl	-3.526478	0.0	0.0
