17

C	0.0	0.0	0.0
C	-0.505863	-0.036319	-1.455478
F	1.38254	0.0	0.0
H	-1.606082	-0.043218	-1.414049
C	-0.426478	1.296037	0.668146
H	-1.514958	1.361554	0.672031
H	-0.059131	1.276234	1.698425
H	0.01156	2.160234	0.163424
N	-0.448379	-1.209296	0.62468
H	-0.214031	-1.161195	1.610667
H	-1.469085	-1.226965	0.556174
N	-0.064066	-1.317995	-2.109879
O	-0.891209	-2.219505	-2.171693
O	1.095482	-1.369213	-2.513532
C	0.00109	1.083136	-2.23725
N	0.381139	2.004732	-2.857535
Cl	-3.598927	0.0	0.0
