17

C	0.0	0.0	0.0
C	-0.454695	0.447873	-1.426423
F	1.385959	0.0	0.0
H	-1.508499	0.145412	-1.515607
C	-0.457732	1.006645	1.031182
H	0.046031	1.960355	0.879297
H	-0.183648	0.603356	2.005857
H	-1.539113	1.130014	0.981217
N	-0.447138	-1.30499	0.355969
H	-1.456558	-1.246065	0.50157
H	-0.282501	-1.945032	-0.410561
N	0.367248	-0.281294	-2.455294
O	1.140221	0.370964	-3.151757
O	0.225822	-1.503373	-2.502856
C	-0.349914	1.881272	-1.677667
N	-0.352915	3.037057	-1.894022
Cl	-3.568363	0.0	0.0
