17

C	0.0	0.0	0.0
C	-0.321353	0.073104	-1.536507
F	1.379861	0.0	0.0
H	0.593635	-0.30973	-1.993885
C	-0.443774	1.202349	0.804704
H	0.035668	2.114041	0.444809
H	-0.138096	1.038194	1.842263
H	-1.530759	1.2757	0.754553
N	-0.467296	-1.277319	0.446661
H	-1.492837	-1.230249	0.410881
H	-0.207361	-1.380453	1.423244
N	-0.388538	1.502627	-2.010318
O	0.683931	2.106691	-1.986003
O	-1.465249	1.965142	-2.363641
C	-1.413385	-0.710507	-2.106393
N	-2.033221	-1.422294	-2.806429
Cl	-3.517194	0.0	0.0
