17

C	0.0	0.0	0.0
C	-0.445808	0.105488	-1.492805
F	1.392634	0.0	0.0
H	-1.535392	-0.049918	-1.48888
C	-0.444606	1.240944	0.746025
H	0.072668	2.11762	0.354807
H	-1.525038	1.362709	0.666646
H	-0.170303	1.098823	1.792553
N	-0.466938	-1.167097	0.663306
H	-0.330108	-1.986376	0.082321
H	-1.474801	-1.052179	0.788837
N	0.19656	-0.999162	-2.279892
O	1.144747	-0.72646	-3.010876
O	-0.25835	-2.128098	-2.098724
C	-0.095669	1.379202	-2.106731
N	0.141704	2.425374	-2.584591
Cl	-3.573735	0.0	0.0
