18

C	-0.396722	0.072918	-1.489001
C	0.0	0.0	0.0
Cl	-2.174262	0.42254	-1.647902
H	1.092911	0.0	0.0
C	0.394266	1.095095	-2.302639
H	0.12258	2.103931	-2.002858
H	0.185197	0.957157	-3.365528
H	1.457424	0.939082	-2.097233
C	-0.195265	-1.251821	-2.082375
N	-0.039769	-2.309294	-2.57119
C	-0.518847	-1.217366	0.730027
H	-0.044297	-2.104058	0.308873
H	-0.236273	-1.154367	1.780127
H	-1.603977	-1.307712	0.663369
N	-0.445509	1.256235	0.680466
O	0.026684	2.318479	0.281216
O	-1.258273	1.160321	1.600589
Cl	3.281262	0.0	0.0
