18

C	-0.470872	0.006997	-1.459971
C	0.0	0.0	0.0
Cl	0.353134	-1.380038	-2.283338
H	1.090458	0.0	0.0
C	-1.971314	-0.165953	-1.67705
H	-2.290259	-1.126648	-1.270482
H	-2.194293	-0.149098	-2.745408
H	-2.512768	0.634223	-1.170647
C	-0.015096	1.229006	-2.13255
N	0.302014	2.228748	-2.662764
C	-0.569379	-1.120931	0.83625
H	-0.322051	-2.081623	0.38076
H	-0.092349	-1.093459	1.820407
H	-1.650163	-1.039517	0.970797
N	-0.396311	1.280548	0.687583
O	-1.613762	1.522479	0.815404
O	0.463819	2.16924	0.763579
Cl	2.876859	0.0	0.0
