18

C	-0.536599	0.000372	-1.447138
C	0.0	0.0	0.0
Cl	0.23235	-1.379329	-2.311128
H	1.090474	0.0	0.0
C	-2.051839	-0.166821	-1.542158
H	-2.343256	-1.133241	-1.131297
H	-2.36128	-0.122928	-2.587433
H	-2.551494	0.626205	-0.98209
C	-0.154898	1.220849	-2.16255
N	0.043288	2.229715	-2.731241
C	-0.463724	-1.178363	0.833586
H	-1.542893	-1.207814	0.977173
H	-0.115848	-2.100411	0.366606
H	0.016364	-1.107079	1.811169
N	-0.457052	1.280878	0.641339
O	-1.524508	1.267442	1.265141
O	0.247106	2.273958	0.484076
Cl	3.308698	0.0	0.0
