18

C	-0.46954	-0.000435	-1.463715
C	0.0	0.0	0.0
Cl	0.363458	-1.390311	-2.276391
H	1.090472	0.0	0.0
C	-1.974886	-0.16818	-1.67022
H	-2.293607	-1.131926	-1.270526
H	-2.186432	-0.151506	-2.740659
H	-2.521648	0.629395	-1.166731
C	-0.017973	1.22412	-2.137689
N	0.278038	2.232529	-2.662412
C	-0.565088	-1.117786	0.846558
H	-1.64587	-1.034823	0.971257
H	-0.313911	-2.079553	0.395994
H	-0.087988	-1.083817	1.82856
N	-0.420441	1.326366	0.575645
O	0.446222	2.159137	0.821366
O	-1.600496	1.443249	0.970927
Cl	3.136605	0.0	0.0
