12

C	-0.593814	-0.000344	-1.396465
C	0.0	0.0	0.0
Br	0.245228	1.293513	-2.558043
H	1.091197	0.0	0.0
H	-1.660438	0.217562	-1.413863
H	-0.320356	-0.910075	0.518613
N	-0.477908	-1.359657	-2.0407
O	-1.332026	-1.6201	-2.887797
O	0.433738	-2.093459	-1.681082
C	-0.511565	1.156013	0.72854
N	-0.961679	2.075633	1.302937
Cl	3.310707	0.0	0.0
