12

C	-0.47031	-0.034835	-1.436343
C	0.0	0.0	0.0
Br	0.087985	-1.656299	-2.320744
H	1.092594	0.0	0.0
H	-0.108723	0.806251	-2.018897
H	-0.356124	-0.883977	0.531373
N	-1.975057	0.020422	-1.524745
O	-2.612301	-0.659173	-0.729014
O	-2.448038	0.745792	-2.396219
C	-0.509498	1.202649	0.651606
N	-0.921654	2.180651	1.153285
Cl	3.292852	0.0	0.0
