12

C	-0.453135	-0.294357	-1.412492
C	0.0	0.0	0.0
Br	0.053867	-2.076056	-1.95473
H	1.092502	0.0	0.0
H	-0.035579	0.399319	-2.138856
H	-0.36501	-0.767937	0.683395
N	-1.951257	-0.192182	-1.552402
O	-2.6363	-0.682062	-0.661085
O	-2.371645	0.374368	-2.558653
C	-0.502269	1.306612	0.414549
N	-0.914045	2.356191	0.741703
Cl	3.285722	0.0	0.0
