12

C	-0.415372	-0.03022	-1.450663
C	0.0	0.0	0.0
Br	-2.346248	-0.051438	-1.718088
H	1.095528	0.0	0.0
H	-0.008728	-0.881574	-1.990987
H	-0.352802	0.917111	0.474486
N	0.101127	1.194242	-2.162129
O	0.527656	1.017864	-3.298604
O	0.023709	2.264056	-1.569972
C	-0.50124	-1.166923	0.709581
N	-0.922951	-2.10394	1.277364
Cl	3.259556	0.0	0.0
