12

C	-0.606689	0.042388	-1.387278
C	0.0	0.0	0.0
Br	0.121758	1.501285	-2.423414
H	1.091334	0.0	0.0
H	-1.687873	0.172681	-1.380864
H	-0.297956	0.925413	0.505004
N	-0.38889	-1.23854	-2.157961
O	-1.202119	-1.457952	-3.054527
O	0.556968	-1.945947	-1.841064
C	-0.552337	-1.126906	0.745896
N	-1.019316	-2.040066	1.317471
Cl	3.315571	0.0	0.0
