14

C	0.0	0.0	0.0
C	-0.349645	0.179861	-1.478233
Cl	1.900662	0.0	0.0
H	-1.454367	0.150352	-1.448853
H	0.065391	-0.652222	-2.068862
N	-0.548605	0.996211	0.84307
H	-1.575618	0.685635	0.761098
H	-0.487136	1.84563	0.287783
C	-0.349184	-1.340209	0.471716
N	-0.486651	-2.452361	0.826267
N	0.113235	1.502111	-1.900918
H	1.129137	1.479125	-1.994357
H	-0.26942	1.70999	-2.817447
F	-2.751545	0.0	0.0
