14

C	0.0	0.0	0.0
C	-0.450626	0.117256	-1.449777
Cl	1.863602	0.0	0.0
H	-1.541055	0.035642	-1.319167
H	-0.047996	-0.746032	-1.995033
N	-0.297626	1.038798	0.950238
H	0.491138	1.699364	0.936165
H	-1.191686	1.428121	0.636744
C	-0.389135	-1.305691	0.565676
N	-0.55404	-2.335258	1.102233
N	-0.055184	1.392082	-2.034624
H	-0.845588	1.780686	-2.52227
H	0.698278	1.270701	-2.689333
F	-2.605435	0.0	0.0
