14

C	0.0	0.0	0.0
C	-0.460758	0.02013	-1.463916
Cl	1.784009	0.0	0.0
H	0.019831	-0.810346	-1.991259
H	-1.54373	-0.123804	-1.38225
N	-0.597535	1.104424	0.681131
H	-0.366186	1.051361	1.668473
H	-1.635322	0.849981	0.543266
C	-0.358022	-1.317272	0.581922
N	-0.567017	-2.376478	1.045392
N	-0.057838	1.293379	-2.080816
H	-0.311471	2.010386	-1.406017
H	-0.65853	1.433974	-2.887018
F	-2.818093	0.0	0.0
