14

C	0.0	0.0	0.0
C	-0.467307	-0.011274	-1.46126
Cl	1.784678	0.0	0.0
H	0.036383	-0.833634	-1.979025
H	-1.544922	-0.185223	-1.367763
N	-0.591628	1.118057	0.665573
H	-1.629624	0.86673	0.526807
H	-0.367039	1.073021	1.654572
C	-0.355736	-1.302694	0.615255
N	-0.558023	-2.336729	1.135496
N	-0.121957	1.270215	-2.099155
H	-0.837219	1.450369	-2.795086
H	-0.258604	1.972812	-1.376552
F	-2.813946	0.0	0.0
