14

C	0.0	0.0	0.0
C	-0.480975	0.094561	-1.470727
Cl	1.843735	0.0	0.0
H	-1.055198	1.025498	-1.512208
H	0.394142	0.186783	-2.118323
N	-0.526664	1.091314	0.75411
H	-1.557944	0.905559	0.615453
H	-0.304992	0.950212	1.735506
C	-0.306861	-1.319329	0.600742
N	-0.466856	-2.320623	1.194377
N	-1.252825	-1.081789	-1.846857
H	-1.50511	-0.983978	-2.824929
H	-2.104567	-0.957327	-1.276033
F	-2.768786	0.0	0.0
