14

C	0.0	0.0	0.0
C	-0.425285	0.22953	-1.456922
Cl	1.866844	0.0	0.0
H	0.021905	-0.537673	-2.10113
H	-1.513534	0.101239	-1.371806
N	-0.530677	0.927013	0.930068
H	-0.381531	1.839293	0.501973
H	-1.562982	0.699056	0.807289
C	-0.352717	-1.375535	0.39341
N	-0.525844	-2.500511	0.680265
N	-0.096078	1.595083	-1.855201
H	0.736753	1.619365	-2.427253
H	-0.864063	1.989577	-2.377973
F	-2.765805	0.0	0.0
