16

C	0.0	0.0	0.0
C	-0.646814	-0.070743	-1.368046
Br	1.954142	0.0	0.0
H	-1.730982	-0.24122	-1.077496
H	-0.265578	-0.917389	0.525694
C	-0.512331	1.199318	0.765055
H	-0.186469	2.133841	0.302549
H	-1.610532	1.115535	0.741059
H	-0.157246	1.177921	1.797732
N	-0.157389	-1.307018	-2.061466
O	0.415659	-1.210334	-3.146704
O	-0.353082	-2.369841	-1.466445
N	-0.557255	1.062812	-2.223558
H	-1.304805	1.702033	-1.982967
H	0.341243	1.525659	-2.159104
H	-3.155199	0.0	0.0
