16

C	0.0	0.0	0.0
C	-0.488475	0.027951	-1.463259
Br	1.953641	0.0	0.0
H	0.255927	-0.437885	-2.115226
H	-0.275324	-0.989231	0.364896
C	-0.584789	1.071929	0.891699
H	-0.278295	0.904804	1.927106
H	-1.678932	1.002166	0.820066
H	-0.26177	2.068913	0.588045
N	-0.390398	1.514154	-1.949248
O	-1.368253	2.242707	-1.800205
O	0.675604	1.861495	-2.468638
N	-1.748393	-0.55832	-1.57013
H	-2.521405	-0.257425	-0.873235
H	-2.119188	-0.493211	-2.510509
H	-3.66448	0.0	0.0
