16

C	0.0	0.0	0.0
C	-0.626786	-0.066347	-1.378012
Br	1.954485	0.0	0.0
H	-1.713349	-0.231518	-1.110222
H	-0.269389	-0.917978	0.522151
C	-0.514873	1.201585	0.759326
H	-1.613254	1.119161	0.728189
H	-0.183916	2.135018	0.297513
H	-0.167574	1.181658	1.794682
N	-0.131758	-1.307172	-2.066197
O	-0.316416	-2.366421	-1.463366
O	0.431791	-1.214225	-3.154913
N	-0.50651	1.065152	-2.231389
H	-1.241939	1.719731	-2.000108
H	0.400575	1.508273	-2.155365
H	-3.159674	0.0	0.0
