16

C	0.0	0.0	0.0
C	-0.481268	0.088726	-1.462088
Br	1.953801	0.0	0.0
H	0.263497	-0.354508	-2.129018
H	-0.275971	-1.004365	0.32127
C	-0.587423	1.030038	0.937761
H	-0.280934	0.817063	1.96502
H	-1.680622	0.960899	0.861733
H	-0.267721	2.04008	0.67893
N	-0.370389	1.593781	-1.890844
O	0.68345	1.944113	-2.432172
O	-1.329434	2.332044	-1.681964
N	-1.742801	-0.485452	-1.600498
H	-2.109768	-0.371122	-2.536507
H	-2.51603	-0.216954	-0.889752
H	-3.652799	0.0	0.0
