16

C	0.0	0.0	0.0
C	-0.535826	0.091384	-1.443897
Br	1.957448	0.0	0.0
H	-1.628978	0.198534	-1.223886
C	-0.326536	1.257352	0.714322
N	-0.540242	2.238476	1.326485
N	-0.559154	-1.162188	0.614795
H	-0.318573	-1.154014	1.601538
H	-1.59489	-0.934133	0.511943
C	-0.282788	-1.179509	-2.250354
H	0.785766	-1.37847	-2.361058
H	-0.749693	-2.018596	-1.73869
H	-0.724619	-1.074051	-3.244029
C	-0.033657	1.268713	-2.13817
N	0.366601	2.188909	-2.750875
F	-2.784359	0.0	0.0
