16

C	0.0	0.0	0.0
C	-0.478506	0.017918	-1.479218
Br	1.965402	0.0	0.0
H	-1.577045	0.1063	-1.291313
C	-0.378542	1.267746	0.646522
N	-0.554622	2.297929	1.183872
N	-0.498097	-1.084229	0.786887
H	-0.193164	-1.959424	0.374571
H	-1.534199	-0.94026	0.664113
C	-0.150535	-1.269183	-2.234277
H	0.92694	-1.451934	-2.27281
H	-0.523842	-1.20116	-3.258545
H	-0.645416	-2.116766	-1.757737
C	0.031869	1.172131	-2.206744
N	0.438924	2.074217	-2.842058
F	-2.698773	0.0	0.0
