17

C	-0.360038	-0.019508	-1.487927
C	0.0	0.0	0.0
F	0.048199	1.201129	-2.039817
H	1.088256	0.0	0.0
N	0.426116	-1.082858	-2.012395
H	1.3979	-0.93063	-1.719813
H	0.367555	-1.085777	-3.024237
N	-1.767883	-0.071583	-1.75772
H	-2.109651	-0.970113	-1.447508
H	-1.910232	0.032774	-2.755961
N	-0.41401	-1.233101	0.711178
O	-1.341606	-1.925966	0.281892
O	0.238327	-1.490681	1.723245
N	-0.539926	1.144569	0.742942
O	-1.326313	0.92897	1.671334
O	-0.142228	2.252822	0.398105
H	2.569972	0.0	0.0
