17

C	-0.379726	0.009629	-1.482426
C	0.0	0.0	0.0
F	-0.002275	-1.233347	-2.011916
H	1.088268	0.0	0.0
N	-1.792621	0.077542	-1.727728
H	-2.114258	0.986434	-1.423327
H	-1.951934	-0.030521	-2.723123
N	0.417249	1.046504	-2.04059
H	0.369643	1.010205	-3.051442
H	1.384451	0.899642	-1.734304
N	-0.521214	-1.167528	0.730847
O	0.008556	-2.245805	0.475162
O	-1.431774	-0.994484	1.545311
N	-0.423762	1.210533	0.73333
O	-1.275306	1.974019	0.264818
O	0.160157	1.388483	1.802684
H	2.571015	0.0	0.0
