17

C	-0.436617	-0.091959	-1.453275
C	0.0	0.0	0.0
F	-1.837623	-0.270934	-1.527352
H	1.089026	0.0	0.0
N	-0.065887	1.070292	-2.186763
H	-0.354252	0.942218	-3.149286
H	-0.531617	1.875261	-1.793236
N	0.155498	-1.289248	-1.966811
H	1.141502	-1.27262	-1.701442
H	0.106565	-1.253129	-2.978512
N	-0.452769	-1.214519	0.738651
O	0.317908	-2.169694	0.755928
O	-1.569091	-1.182972	1.258877
N	-0.426559	1.157932	0.766717
O	-0.905261	2.15065	0.194867
O	-0.145637	1.123925	1.968713
H	2.50455	0.0	0.0
