16
Coordinates from ORCA-job run
  C   0.56194197120782     -0.09755995519445     -0.50992900980965
  C   -0.78938846778818     -0.74348459850085     -0.24689235726824
  F   1.21991070074411     -0.96665308395728     -1.42926764348403
  H   -0.60444760779807     -1.77816115926924      0.05563087938636
  H   -1.31809016231105     -0.79212239849341     -1.20609253021847
  C   1.46381104405409     -0.02441925658265      0.70407150373097
  H   2.45639992333133      0.31521062349265      0.39798484586988
  H   1.06741413473513      0.67095482229810      1.44318976727405
  H   1.56914004911774     -1.01349458876736      1.15242924913457
  N   0.39524577741237      1.19436520005481     -1.08405911928489
  H   1.29553716291699      1.61284655485069     -1.28430089674154
  H   -0.12611583282957      1.12646668133174     -1.95017585665976
  C   -1.63433135205893     -0.01347490255294      0.79066240470848
  H   -1.75110003117308      1.03694415228926      0.52220133582929
  H   -2.62651920861222     -0.46466015033792      0.86347721549813
  H   -1.17940810094847     -0.06275794066115      1.78207021203485
