16
Coordinates from ORCA-job run
  C   0.46947222695860      0.06666615578436     -0.47947017572022
  C   -0.99174169607520      0.29715516853035     -0.12270250399455
  F   0.53249567285857     -1.22218175584593     -1.09036215261557
  H   -1.07922580478888      1.30575649606212      0.29044273088000
  H   -1.55637930091554      0.28498756997088     -1.06237234059144
  C   1.40328365606692      0.00747360611423      0.71062050273062
  H   1.15453775803924     -0.83833986494139      1.35054035279898
  H   1.34262594159564      0.93237837831663      1.28583444665791
  H   2.43177140523464     -0.12482968663391      0.36551474238123
  N   0.90177701664905      1.06824989946995     -1.39348984102078
  H   1.85252487853686      0.88677805800246     -1.69202627139430
  H   0.30560457881754      1.07812106993842     -2.21236432718443
  C   -1.57531986284484     -0.73820965281659      0.83149057815371
  H   -2.65260351578804     -0.59337995541435      0.93801695173475
  H   -1.40399641927158     -1.74678001565922      0.45321908764612
  H   -1.13582653507298     -0.66384547087802      1.82810821953795
