13

C	-0.519596	0.102785	-1.425741
C	0.0	0.0	0.0
F	-0.344091	-1.086541	-2.1156
H	1.094113	0.0	0.0
H	-1.592456	0.330122	-1.435388
C	0.175197	1.179823	-2.153751
N	0.656302	2.029963	-2.803703
C	-0.548951	-1.183085	0.642796
N	-1.02428	-2.106399	1.196549
N	-0.365484	1.250309	0.678886
H	-1.111483	1.118563	1.350369
H	0.466933	1.561856	1.165648
F	2.533237	0.0	0.0
