13

C	-0.266479	0.066464	-1.486516
C	0.0	0.0	0.0
F	-1.582186	0.471283	-1.78644
H	1.096062	0.0	0.0
H	0.403963	0.826718	-1.895112
C	-0.032088	-1.207489	-2.179013
N	0.122105	-2.23147	-2.731649
C	-0.629198	-1.151164	0.628423
N	-1.130157	-2.083428	1.140749
N	-0.360692	1.241146	0.680695
H	-1.119874	1.718089	0.211432
H	0.467781	1.823146	0.683175
F	2.52769	0.0	0.0
