13

C	-0.402821	0.08619	-1.469076
C	0.0	0.0	0.0
F	-0.135259	-1.093033	-2.139903
H	1.095238	0.0	0.0
H	-1.480181	0.275401	-1.584719
C	0.321255	1.189389	-2.128161
N	0.841616	2.072544	-2.69819
C	-0.611805	-1.178293	0.596356
N	-1.118284	-2.128133	1.069868
N	-0.354228	1.213517	0.726505
H	0.446691	1.830663	0.685369
H	-1.175375	1.68344	0.361459
F	2.530341	0.0	0.0
