13

C	-0.413548	0.061598	-1.443558
C	0.0	0.0	0.0
F	-1.797848	0.216077	-1.597944
H	1.096575	0.0	0.0
H	0.062424	0.943054	-1.873804
C	-0.024676	-1.138794	-2.202946
N	0.2306	-2.101861	-2.824132
C	-0.535472	-1.17539	0.67675
N	-0.947645	-2.120995	1.242811
N	-0.352277	1.2678	0.647545
H	0.397035	1.477065	1.295312
H	-1.223981	1.205131	1.157386
F	2.525651	0.0	0.0
