13

C	-0.536914	0.030402	-1.421818
C	0.0	0.0	0.0
F	-0.339717	-1.182382	-2.064451
H	1.099684	0.0	0.0
H	-1.616076	0.229394	-1.427044
C	0.121508	1.09491	-2.199611
N	0.598647	1.921448	-2.881885
C	-0.542232	-1.145738	0.710926
N	-1.004675	-2.038487	1.32354
N	-0.362454	1.284904	0.617791
H	0.483785	1.629135	1.058154
H	-1.078884	1.180146	1.325217
F	2.532617	0.0	0.0
