15

C	0.0	0.0	0.0
C	-0.408784	0.49571	-1.413133
F	1.354434	0.0	0.0
H	0.567388	0.599352	-1.904571
H	-0.394275	-0.979884	0.25521
N	-0.344263	0.889813	1.168745
O	-0.162109	2.096891	1.031711
O	-0.623231	0.31999	2.217482
C	-1.12033	1.842647	-1.60549
H	-2.042116	1.868386	-1.030715
H	-1.3614	1.942841	-2.667263
H	-0.458871	2.656007	-1.312233
C	-1.057324	-0.590844	-2.158806
N	-1.406783	-1.434913	-2.89693
Br	-3.430648	0.0	0.0
