12

C	-0.430584	0.022464	-1.433953
C	0.0	0.0	0.0
F	-1.822374	0.076482	-1.574424
H	1.091635	0.0	0.0
H	-0.019818	0.907466	-1.921029
H	-0.380277	-0.855508	0.554021
C	0.025847	-1.190002	-2.132439
N	0.320028	-2.158975	-2.724962
N	-0.424164	1.20906	0.684445
O	-0.401272	2.273032	0.051016
O	-0.670703	1.125699	1.89358
H	2.591445	0.0	0.0
