12

C	-0.434211	0.009269	-1.432383
C	0.0	0.0	0.0
F	-1.826633	0.052151	-1.5703
H	1.09164	0.0	0.0
H	-0.031597	0.893997	-1.927276
H	-0.376703	-0.851714	0.56209
C	0.031066	-1.204302	-2.124103
N	0.334754	-2.175989	-2.708033
N	-0.423458	1.213355	0.676492
O	-0.415199	2.271345	0.031725
O	-0.652337	1.14014	1.889748
H	2.587078	0.0	0.0
