12

C	-0.54312	-0.166967	-1.399718
C	0.0	0.0	0.0
F	0.259795	-0.963705	-2.193167
H	1.090298	0.0	0.0
H	-1.527975	-0.641874	-1.385231
H	-0.296326	0.940633	0.462784
C	-0.669741	1.146653	-2.055442
N	-0.788957	2.185239	-2.589766
N	-0.437935	-1.071987	0.867698
O	-0.703624	-2.172909	0.355121
O	-0.397352	-0.864293	2.089096
H	2.546501	0.0	0.0
