12

C	-0.440607	-0.012701	-1.447193
C	0.0	0.0	0.0
F	-0.117995	1.218019	-2.007493
H	1.091467	0.0	0.0
H	0.099026	-0.788235	-1.99377
H	-0.367456	0.87411	0.533592
C	-1.895904	-0.200249	-1.60772
N	-3.059514	-0.29181	-1.738059
N	-0.436067	-1.194267	0.677951
O	-0.503386	-1.17624	1.912153
O	-0.592907	-2.215066	-0.018245
H	2.568793	0.0	0.0
