12

C	-0.440836	-0.012005	-1.447198
C	0.0	0.0	0.0
F	-0.117721	1.218751	-2.007071
H	1.091536	0.0	0.0
H	0.098256	-0.787564	-1.994228
H	-0.367368	0.873961	0.533946
C	-1.896282	-0.198603	-1.607469
N	-3.060034	-0.289145	-1.737347
N	-0.436089	-1.194446	0.677699
O	-0.503667	-1.176563	1.911924
O	-0.592816	-2.215237	-0.018592
H	2.568777	0.0	0.0
