12

C	-0.440444	0.032212	-1.429234
C	0.0	0.0	0.0
F	-1.823647	0.17816	-1.55908
H	1.092114	0.0	0.0
H	0.019692	0.922776	-1.869233
H	-0.325368	0.898949	0.521746
C	-0.026585	-1.113416	-2.256924
N	0.292294	-1.926466	-3.041133
N	-0.489715	-1.138949	0.754143
O	-0.623298	-0.988029	1.9746
O	-0.648377	-2.215433	0.164268
H	2.597946	0.0	0.0
