12

C	-0.535404	0.086623	-1.414614
C	0.0	0.0	0.0
F	-0.480778	-1.188904	-1.975716
H	1.088268	0.0	0.0
H	-1.583272	0.399265	-1.423782
H	-0.327431	-0.924187	0.473442
C	0.199494	1.003451	-2.304871
N	0.672054	1.722	-3.102363
N	-0.45377	1.113879	0.786003
O	-0.451179	0.999344	2.020861
O	-0.71262	2.174861	0.181691
H	2.54159	0.0	0.0
