17
Coordinates from ORCA-job run
  C   0.68900106501985      0.26400691183411      0.50952801325389
  C   -0.72498800778284      0.13442237285757     -0.07542763922357
  F   0.55786188939034      0.71640823024236      1.82572195724129
  H   -1.17514906341666      1.13045664762998      0.05630539733820
  C   1.34240184124370     -1.05572312204210      0.55717529984307
  N   1.86547202505293     -2.10537543726492      0.60723733697883
  C   1.55050971174792      1.25976600253988     -0.24007188058099
  H   2.50337717110478      1.38345174682780      0.27662153850248
  H   1.03920165527853      2.22547048520650     -0.26790100324576
  H   1.73745268389415      0.90900482152633     -1.25469239158792
  C   -1.55116233498947     -0.88665487731361      0.68932814420758
  H   -2.59238671947332     -0.84749175905952      0.35910486268752
  H   -1.52354065658260     -0.68778004730366      1.76077386019230
  H   -1.16676641761878     -1.89422271746005      0.51038709612591
  N   -0.59514439854560     -0.25205750248208     -1.47591987966681
  H   -0.59388198186446      0.55656204800611     -2.08327814037469
  H   -1.36125846245846     -0.85024380374471     -1.75489257169134
