17
Coordinates from ORCA-job run
  C   0.59470551575760      0.58600344387941      0.48079237136223
  C   -0.82932322474230      0.13260772433603      0.13103085664008
  F   0.54017503013454      1.97869840721143      0.62916034726459
  H   -1.45091907413552      0.43231485642012      0.99011478567358
  C   0.98068364502491      0.02879804449643      1.78992859989427
  N   1.27888250467508     -0.44607590088519      2.82144622138134
  C   1.63866986241081      0.27016774181830     -0.57010632377022
  H   2.56866980763755      0.77829009634209     -0.31073776337672
  H   1.27883762726109      0.62167107600908     -1.53584413603797
  H   1.82989461871705     -0.80247481681146     -0.61963842339132
  C   -0.92319286420184     -1.37415462867932     -0.04805305069879
  H   -1.96813304917446     -1.66595254959742     -0.18140613116144
  H   -0.37135693608116     -1.68570697825815     -0.93657760701278
  H   -0.54037905134031     -1.90989676545432      0.82293003191272
  N   -1.21132010213617      0.80311895974791     -1.10642275430297
  H   -2.11117000144639      0.45487924441882     -1.41456263009824
  H   -1.30572430836048      1.79771204500625     -0.93905439427837
