17
Coordinates from ORCA-job run
  C   0.61547694436893      0.57914305923338      0.46232680360695
  C   -0.82366212959967      0.14852182294623      0.14704359490546
  F   0.58874780959824      1.97382136070403      0.59988233738892
  H   -1.42079983256241      0.46706332111209      1.01664770154282
  C   1.01880680552587      0.02603136115387      1.76812753151094
  N   1.32957123841968     -0.44558157174709      2.79737569589942
  C   1.63107830679558      0.23631490054308     -0.60753240880692
  H   1.80019363677571     -0.84027087486932     -0.65384731417250
  H   2.57614982149398      0.72754672530677     -0.37111554434110
  H   1.25801867621203      0.58835790272462     -1.56809828403729
  C   -0.94867499850612     -1.35776161922583     -0.01587509661646
  H   -0.41925596535577     -1.68797503668148     -0.91126568560205
  H   -0.56023714175710     -1.89236732505639      0.85332727591762
  H   -2.00125345554739     -1.63092962493467     -0.12758284843424
  N   -1.22025654777254      0.81486349060053     -1.08789684899543
  H   -1.29142352719551      1.81255053991548     -0.92808091607049
  H   -2.13347964089350      0.48167156827472     -1.37243599369567
