17
Coordinates from ORCA-job run
  C   0.61791894082194      0.27674340152142      0.50280741761003
  C   -0.80511577915329      0.06912651771283     -0.06129465618820
  F   0.50548141917786      0.51352732323957      1.87359265787192
  H   -1.32578448611054      1.01566268184964      0.13052233116912
  C   1.39979311027305     -0.96010726662727      0.31763242566138
  N   1.99628550497682     -1.95099871066162      0.11418164797291
  C   1.34838096862396      1.46191297215250     -0.10060894954068
  H   1.57349389960816      1.29838039321960     -1.15462187308677
  H   0.72848371934522      2.35495105939636      0.00689010358484
  H   2.28723655266026      1.61950065282245      0.43215901825935
  C   -1.52967539087724     -1.05279370810848      0.66658186731838
  H   -1.52554248926052     -0.89464891688699      1.74493910792268
  H   -1.05774248175900     -2.01737852802780      0.45672618466664
  H   -2.56025572658717     -1.09594958794838      0.31260017707977
  N   -0.84481357028128     -0.17934789431732     -1.49065016958192
  H   -0.44641426337241      0.58011507840183     -2.02590441509136
  H   -0.36172992808585     -1.03869546773835     -1.72555287562809
