17
Coordinates from ORCA-job run
  C   0.62823341166565      0.58965990324621      0.49988472045424
  C   -0.81638485088724      0.17850696941692      0.15059449687662
  F   0.59539265728596      1.96310367147007      0.74934004739144
  H   -1.41354400303706      0.54287462542001      0.99702247954883
  C   1.04620132117906     -0.06555932883289      1.75398213280839
  N   1.37228973500379     -0.62755828210489      2.73211878672989
  C   1.63761731948918      0.34344967134428     -0.60041444316057
  H   2.58865388481968      0.79825682768609     -0.31968339750172
  H   1.26176497754182      0.80737949870083     -1.51133618060209
  H   1.79714705035219     -0.72394258480125     -0.76221712195552
  C   -0.97571853352137     -1.33166004077272      0.03984137690745
  H   -0.71414711298019     -1.83888894028767      0.96980467454020
  H   -0.34760833737473     -1.73242400698250     -0.76033886566918
  H   -2.01536518079852     -1.57211096738604     -0.19374573121423
  N   -1.19268531779218      0.86151592215047     -1.08193004141271
  H   -1.86691738181780      1.59274816117546     -0.91076600931573
  H   -1.58292963912824      0.21364890055762     -1.75215692442533
