17
Coordinates from ORCA-job run
  C   0.74424608688781      0.44400053035226      0.03988878440795
  C   -0.70423787104445     -0.07406738471160      0.10735106627890
  F   0.99134395980254      0.94190205345844     -1.23244664575639
  H   -0.78523194053297     -0.62278695813043      1.06074484205626
  C   0.88863162901681      1.56152278417889      0.99463568579666
  N   0.98634078328126      2.40657884233212      1.80380599429823
  C   1.79273454998572     -0.61365734291911      0.33959785748418
  H   2.78586859297440     -0.16605685656789      0.28248572644512
  H   1.65131032642553     -1.03111184613758      1.33818827766724
  H   1.73302934846376     -1.41312140440131     -0.39917302743993
  C   -1.00094447335934     -1.02522554444258     -1.04378665063822
  H   -0.93794840999316     -0.48372949072326     -1.98794091862832
  H   -2.01280304500679     -1.42479097349924     -0.93626436095418
  H   -0.31628747517651     -1.87315034303878     -1.07019345842047
  N   -1.60950224905770      1.06491256922573      0.01943256613428
  H   -2.54175142106331      0.75078147066140     -0.21805496865955
  H   -1.66379839160360      1.55799989436295      0.90272922992825
