17
Coordinates from ORCA-job run
  C   0.78503833449382      0.12804177348214      0.41744446463193
  C   -0.69890029133789      0.21622201560575      0.02845064542382
  F   0.87000221630048      0.17938385192749      1.80964343464825
  H   -1.00937119224136      1.22987438569355      0.30856479116573
  C   1.31257248399865     -1.18258725524705     -0.01058822786432
  N   1.69461923618013     -2.22671668909351     -0.38840852723406
  C   1.62080315907222      1.25663497864398     -0.14876876546206
  H   1.22537110638199      2.20354450012913      0.22549571712027
  H   2.65635004203516      1.15257810770440      0.17877150830316
  H   1.56862525803835      1.24850540004210     -1.23569112902946
  C   -1.54740099867810     -0.79849510381746      0.78829274162315
  H   -1.45154532131536     -0.67699539801330      1.86806056655921
  H   -2.59846760186802     -0.67251317237140      0.51694890170352
  H   -1.24992802210730     -1.81873365542864      0.52756342585936
  N   -0.77528373575557      0.11591755328823     -1.42653483733487
  H   -1.65045327794769      0.50459196371566     -1.75445882512833
  H   -0.75603139524950     -0.86025325626108     -1.70378588498531
