17
Coordinates from ORCA-job run
  C   0.62414152113454      0.50616614822823      0.08410756736236
  C   -0.74721911264970     -0.19105216822045      0.21725972070161
  F   0.60146601384810      1.25902462307845     -1.09574738251900
  H   -0.74193067148366     -0.71196414563747      1.18219536133297
  C   0.77239897138843      1.45937269618044      1.20067637289253
  N   0.88701217571548      2.17934997475439      2.12115689768398
  C   1.82078731984987     -0.42234048842188      0.02326412662533
  H   2.74444543527548      0.15776559968622      0.00271491890622
  H   1.76742440596277     -1.02245897233190     -0.88480273851502
  H   1.83752045352255     -1.08295127258308      0.89274969768659
  C   -0.96625856781720     -1.20443834868539     -0.89958955962455
  H   -0.27001867888714     -2.04246366058654     -0.84413977898025
  H   -1.98206915486693     -1.59035483583667     -0.81593949113595
  H   -0.85916757001051     -0.72633577031941     -1.87628829336990
  N   -1.85863096065425      0.74783137612618      0.23475921993261
  H   -1.81225846084951      1.35083108062878      1.04806109008419
  H   -1.81764311947833      1.33501816394009     -0.59043772906372
