17
Coordinates from ORCA-job run
  C   0.70784510273796      0.26804131889996      0.48052239559902
  C   -0.72347602850545      0.15268528437293     -0.06334291107676
  F   0.62227656711755      0.78908122304270      1.77495437902936
  H   -1.14314241977409      1.16577289654098      0.03506717001531
  C   1.32325975172719     -1.06720799013487      0.57946239694496
  N   1.81536062152489     -2.12898757225818      0.66893448410381
  C   1.57952090220351      1.19866878020379     -0.33790233675089
  H   1.09383572954725      2.17544512351306     -0.40752828241851
  H   2.54570618916067      1.32273011808625      0.15339756537660
  H   1.73617458302247      0.78973220813875     -1.33574627317587
  C   -1.55629373618343     -0.81137092656435      0.76545476020037
  H   -2.60667575638257     -0.74882915964791      0.47038329327578
  H   -1.21160039720701     -1.83667106085640      0.60950772994310
  H   -1.48429586094302     -0.57667528465969      1.82729519378505
  N   -0.64065132899473     -0.29924089386498     -1.44788672620604
  H   -0.62040042136422      0.48218433596291     -2.08977557373914
  H   -1.43844349768699     -0.87435840077494     -1.68379726490616
