17
Coordinates from ORCA-job run
  C   0.54472042003022      0.58753246646398      0.49027431018183
  C   -0.89551869338591      0.11044967815344      0.19423456004231
  F   0.47339520264872      1.97577187736644      0.66410613366993
  H   -1.47647712049223      0.39711393059336      1.07898133530597
  C   1.00543787073591      0.01380530934605      1.76600149439856
  N   1.35400492876209     -0.47854059197471      2.77362801364930
  C   1.55325360520270      0.31700995625419     -0.60752382284903
  H   1.73242480815363     -0.75241429568726     -0.72436015200894
  H   1.18970397263941      0.73169010880953     -1.54856549445980
  H   2.49653173332490      0.80448848855780     -0.35759666724928
  C   -0.97532017119567     -1.39693003546586      0.01471351311543
  H   -0.54726849617901     -1.93280554529700      0.86400595637518
  H   -2.02221682697957     -1.68464863787773     -0.08750710554871
  H   -0.45180918209823     -1.71221132465518     -0.89250117571500
  N   -1.50113871116472      0.77659749043294     -0.94335130127386
  H   -1.08987623780674      0.46400451852747     -1.81414829534688
  H   -1.38784710219549      1.78008660645257     -0.87139130228701
