17
Coordinates from ORCA-job run
  C   0.56591883294843      0.58325695639059      0.47087947873363
  C   -0.88864797929185      0.12767921835918      0.21307921852181
  F   0.52200591480873      1.97396216252145      0.63203907560185
  H   -1.44398234756074      0.43455086471233      1.10742586174367
  C   1.04546914663264      0.01395202220500      1.74190169257797
  N   1.40676344949494     -0.47499570075871      2.74661034483537
  C   1.54416377387976      0.28450607441693     -0.64666983072635
  H   2.50209054564630      0.75577592979495     -0.42260133836182
  H   1.16725592231149      0.69832100317218     -1.58288790577396
  H   1.70030554175997     -0.78910602884876     -0.75820210124910
  C   -0.99826512418741     -1.37999850790845      0.05324464310934
  H   -0.50096856149923     -1.71498810872551     -0.86152946082333
  H   -2.05196157493927     -1.65039859066175     -0.02215592132653
  H   -0.56058991678718     -1.91345708874460      0.89904979190230
  N   -1.50915796462338      0.79133479557924     -0.91794723726383
  H   -1.37991486148324      1.79374049375875     -0.85815762024406
  H   -1.12048479710995      0.46486450473719     -1.79407869125696
