17
Coordinates from ORCA-job run
  C   0.62501862979571      0.51237098715457      0.04570560689706
  C   -0.74907267629248     -0.17047569544033      0.22369517095863
  F   0.61824818703041      1.15568075313336     -1.19706460659428
  H   -0.75669039432047     -0.60079240533832      1.23223136548306
  C   0.75783427710491      1.56223470085164      1.07419038654707
  N   0.83879233597388      2.36415039507663      1.92810314343490
  C   1.82128542854797     -0.41785371820079      0.08457525049417
  H   1.82601791830167     -0.99674910976167      1.01063122356686
  H   2.74565440379862      0.15830863053825      0.02358898344545
  H   1.77922608511254     -1.09783883082667     -0.76592672217024
  C   -0.95351885802574     -1.28197466522004     -0.79860253470974
  H   -0.83395546971235     -0.89503313268181     -1.81349275583950
  H   -1.97035980954379     -1.65962271067986     -0.69276140034655
  H   -0.25795444069641     -2.11053938876601     -0.65800356604149
  N   -1.85966095557969      0.76530874733120      0.14012688119066
  H   -1.80641205844709      1.27610053053838     -0.73370132271530
  H   -1.82545260304769      1.43872491229146      0.89670489639927
