17
Coordinates from ORCA-job run
  C   0.70148662595083      0.50935161074813      0.03285118674671
  C   -0.69069285685500     -0.14198923035250      0.12623034001155
  F   0.85853817716456      1.07070365078243     -1.22750546833375
  H   -0.68875868701456     -0.72537444095382      1.06232755007993
  C   0.77576652795322      1.60256565642130      1.02305344271706
  N   0.82346868782398      2.42514381539437      1.85940481435847
  C   1.85184319875199     -0.45633461605324      0.26071579407511
  H   2.79726441953172      0.08237475160181      0.18537589880468
  H   1.83784699668405     -1.23497503835422     -0.50197110356055
  H   1.78576716497094     -0.91526259061519      1.24873953556185
  C   -0.93839264042429     -1.07942919460673     -1.04727480538742
  H   -0.18286423132091     -1.86169693525823     -1.12218350034265
  H   -0.95349952784713     -0.50529967677112     -1.97400066410572
  H   -1.90716953533245     -1.57080969233472     -0.92444469902206
  N   -1.69813142511272      0.91110749461387      0.10593575858279
  H   -1.76823924903804      1.36790961488392      1.00745705311059
  H   -2.60523364588618      0.52101482085395     -0.11571113329657
