17
Coordinates from ORCA-job run
  C   0.64165763811063      0.25529491678880      0.47892055151340
  C   -0.80575992267036      0.09782811090981     -0.03556620960269
  F   0.58525562816847      0.50092100948149      1.85209692635790
  H   -1.28541701980664      1.06390610932955      0.16538693625854
  C   1.37377645864045     -1.00885780368329      0.27508484574249
  N   1.95542868750230     -2.00611571244988      0.06007568104508
  C   1.39449802881263      1.41048599113549     -0.15429007647632
  H   1.57458993328529      1.23659670626586     -1.21528787896009
  H   0.81312577261595      2.32656977475399     -0.02717379040829
  H   2.35752267755909      1.53311074544711      0.34334720383987
  C   -1.54612919839654     -0.99197908506193      0.72453686142070
  H   -1.50610229248253     -0.82347844038857      1.80055356652130
  H   -2.58715263227145     -1.00446042660835      0.40011215565648
  H   -1.11228081916718     -1.97380268531245      0.51220776701133
  N   -0.90156576692033     -0.15892958693162     -1.46099755919196
  H   -0.49328781189744      0.58142124497363     -2.01525395206919
  H   -0.45915936108233     -1.03751086864965     -1.70475302865854
