17
Coordinates from ORCA-job run
  C   0.55893779030118      0.57570516672879      0.48828852083215
  C   -0.89096453091969      0.11660673860390      0.21156647232479
  F   0.50413767084173      1.96201949706213      0.68254114279200
  H   -1.45323401397585      0.39750280891754      1.11015697163619
  C   1.03672536061388     -0.02030863331462      1.74736015891898
  N   1.39834644998352     -0.52986896268094      2.74180417801280
  C   1.54522191013889      0.31111208206607     -0.63096228359248
  H   1.16783608717569      0.73922402656715     -1.56040998179143
  H   1.71477403040269     -0.75804597041847     -0.76353342220555
  H   2.49625642130696      0.78899205097017     -0.39228597785652
  C   -0.98894645768099     -1.38750455009334      0.01471993995516
  H   -0.47994649608232     -1.69752647766193     -0.90271550847139
  H   -2.04022782053099     -1.66278324096779     -0.07773588218390
  H   -0.55616782227223     -1.93794131401141      0.85248569899470
  N   -1.50957341523074      0.80315491365128     -0.90664908285878
  H   -1.11940950172287      0.49533801627501     -1.78877771987724
  H   -1.38276566234888      1.80432384830647     -0.82585322462949
