16

C	-0.221734	-0.009125	-1.496567
C	0.0	0.0	0.0
F	-1.601494	-0.006782	-1.811655
H	1.093968	0.0	0.0
H	-0.397448	-0.91464	0.463158
N	0.35559	1.1793	-2.09679
H	1.346344	1.107062	-1.851895
H	0.003743	1.941243	-1.517526
C	0.425778	-1.238402	-2.092491
H	1.458101	-1.255542	-1.729411
H	0.394552	-1.183215	-3.183103
H	-0.093054	-2.1409	-1.757318
N	-0.49672	1.238028	0.611963
H	0.188956	1.541031	1.289349
H	-1.368142	1.0803	1.096294
F	2.747889	0.0	0.0
