16

C	-0.194859	-0.009569	-1.512852
C	0.0	0.0	0.0
F	-0.037463	1.369808	-1.939395
H	1.102442	0.0	0.0
H	-0.377973	-0.944423	0.405277
N	0.854139	-0.807367	-2.034806
H	1.721782	-0.586596	-1.514325
H	0.970552	-0.637787	-3.024347
C	-1.56979	-0.385803	-2.024828
H	-2.313725	0.259925	-1.550456
H	-1.777211	-1.427637	-1.775233
H	-1.628421	-0.262107	-3.112426
N	-0.69473	1.128444	0.638562
H	-0.29141	1.958744	0.219054
H	-0.388524	1.138524	1.606173
F	2.796047	0.0	0.0
