16

C	-0.35791	0.047283	-1.471271
C	0.0	0.0	0.0
F	-0.012405	-1.240496	-1.991657
H	1.092757	0.0	0.0
H	-0.407233	-0.926414	0.438149
N	-1.757858	0.258119	-1.7174
H	-2.260432	-0.528229	-1.317046
H	-1.916817	0.240219	-2.720639
C	0.527005	1.044985	-2.181382
H	0.237727	2.052126	-1.881842
H	0.444586	0.934019	-3.26747
H	1.547067	0.846433	-1.839447
N	-0.420847	1.234805	0.66747
H	-1.349303	1.149182	1.062796
H	0.240287	1.413708	1.413613
F	2.763371	0.0	0.0
