16

C	-0.232063	0.082636	-1.510253
C	0.0	0.0	0.0
F	-0.138179	1.453012	-1.838875
H	1.09212	0.0	0.0
H	-0.451513	0.85328	0.52056
N	0.840009	-0.582496	-2.217298
H	0.670414	-1.579513	-2.133257
H	1.695264	-0.399968	-1.665187
C	-1.588236	-0.383156	-1.998501
H	-2.369108	0.255475	-1.576635
H	-1.622999	-0.318719	-3.089166
H	-1.763303	-1.411696	-1.679277
N	-0.415457	-1.320244	0.510426
H	-1.244482	-1.239182	1.086482
H	0.33786	-1.658281	1.098639
F	2.751073	0.0	0.0
