16

C	-0.254622	0.039533	-1.505037
C	0.0	0.0	0.0
F	-0.108706	1.386688	-1.887634
H	1.100316	0.0	0.0
H	-0.446688	0.867625	0.50151
N	0.773315	-0.703588	-2.203602
H	1.644472	-0.516611	-1.684006
H	0.567983	-1.684175	-2.039792
C	-1.640451	-0.383	-1.946612
H	-1.706168	-0.352504	-3.036912
H	-1.851476	-1.391324	-1.590202
H	-2.378391	0.306852	-1.525065
N	-0.421466	-1.302718	0.544535
H	-1.258359	-1.210044	1.101928
H	0.319253	-1.628249	1.149518
F	2.744371	0.0	0.0
