16

C	0.0	0.0	0.0
C	-0.700406	-0.025618	-1.333011
F	1.38098	0.0	0.0
H	-1.831347	-0.030263	-0.911929
C	-0.365996	1.268179	0.681265
N	-0.519303	2.25795	1.293602
C	-0.444665	-1.183478	0.842958
H	-1.539319	-1.156752	0.906164
H	-0.109839	-2.10632	0.362144
H	0.00137	-1.114606	1.837421
C	-0.443861	-1.254322	-2.064513
N	-0.262741	-2.222305	-2.712512
N	-0.499171	1.184883	-2.112259
H	-1.361408	1.414345	-2.596729
H	0.245384	1.073255	-2.792139
H	-2.994108	0.0	0.0
