13
Coordinates from ORCA-job run
  C   1.00602624022431     -0.13751238599694      0.29229031661659
  C   -0.30543602351720      0.11355298441488     -0.48122543768550
  Cl  2.31130351361167     -0.46878851052048     -0.87506545416617
  H   -0.21143772210051      1.01337583474698     -1.08893737481863
  H   0.88460438536472     -1.02903991155658      0.91138419961914
  C   1.35867731462062      0.99897502427873      1.13433478775760
  N   1.61357226167838      1.92687599279203      1.80810079235633
  N   -1.34433971298460      0.41588539630867      0.56894813209308
  O   -1.86180779715071      1.52590404950818      0.56832972234930
  O   -1.58112385964867     -0.50805484113247      1.34538319200522
  N   -0.80044601899382     -0.96744099089694     -1.26498654180153
  H   -0.75014250637658     -1.84837593947773     -0.76984285004757
  H   -0.31845007472760     -1.03435670246833     -2.14971348427786
