13
Coordinates from ORCA-job run
  C   1.10403910571333     -0.06687425452477      0.25518384070937
  C   -0.20675703326671      0.07200687964408     -0.53063571391733
  Cl  2.47926386822045     -0.12960313131047     -0.86809164187116
  H   -0.19066803386437      0.97375297418990     -1.14277636274452
  H   1.08429041654802     -1.00952359915860      0.80784956154216
  C   1.27960604609358      1.03434170649216      1.19702897395597
  N   1.40815370813408      1.92152894279954      1.95575993395551
  N   -1.28707407410616      0.31964530511792      0.52371364705002
  O   -1.51478251901534     -0.62798346725770      1.27497631326358
  O   -1.83925818526923      1.41440772147709      0.53704366056251
  N   -0.45530759328120     -1.08084659819530     -1.31071061936583
  H   -1.20572302553222     -0.93723134094753     -1.97211304486562
  H   -0.65578268037422     -1.88362113832632     -0.72722854827466
