13
Coordinates from ORCA-job run
  C   1.16135125541202      0.24119666317709     -0.03687163698330
  C   -0.27265281054919      0.07971302647361     -0.53189773196697
  Cl  1.76095368108716      1.89651386550825     -0.30051646247840
  H   -0.36682978667181      0.57889426897555     -1.50640857664065
  H   1.78006183464292     -0.39936487631097     -0.67266498934587
  C   1.34230406450720     -0.19278712926723      1.34393565388570
  N   1.54258427787778     -0.57799035671229      2.43443660540372
  N   -1.26874709203021      0.80133655009532      0.34775304523762
  O   -0.86013018879075      1.48940641834671      1.27356520637794
  O   -2.44138928073701      0.63574956438179      0.02365686504359
  N   -0.63808667980220     -1.31264345176818     -0.49088001615326
  H   -1.62474369257870     -1.40580154352852     -0.70238023675266
  H   -0.11267558236718     -1.83422299937114     -1.18172772562741
