13
Coordinates from ORCA-job run
  C   1.09285405303210     -0.09164192818816      0.22140274519634
  C   -0.30536937090138      0.07519191884187     -0.36683252212059
  Cl  2.27712638314838     -0.20049835595083     -1.11544364234392
  H   -0.38293075640112      1.04193229562215     -0.88064889547562
  H   1.13584025984958     -1.02839888120932      0.77695152543728
  C   1.44111299888425      1.03181205096963      1.08286682561758
  N   1.72832923605434      1.94884829341648      1.75749201933036
  N   -1.30744229381548      0.15606475067433      0.76204601280074
  O   -0.96870072514927     -0.22624162981864      1.87721311996343
  O   -2.41924706147708      0.55551203356682      0.43173663801545
  N   -0.69400012658516     -1.08187459116194     -1.12747366444484
  H   -0.00935974108566     -1.27379666078524     -1.84746623295308
  H   -1.58721285555351     -0.90690929597714     -1.57284392902315
