13
Coordinates from ORCA-job run
  C   1.02368962259021     -0.08435662857015      0.24287336802357
  C   -0.33390711001269      0.10835356779149     -0.46514520194824
  Cl  2.29177695628804     -0.30437878535758     -0.99002305540860
  H   -0.31950299589955      1.02739453548595     -1.05080984030410
  H   0.98340123019683     -0.99825211686280      0.83957635870902
  C   1.34751091545241      1.04676990848914      1.10354053091751
  N   1.58692712404114      1.95956605252103      1.80319128572227
  N   -1.33957821775971      0.32182199738959      0.63761491422037
  O   -1.48885181527236     -0.63508960252404      1.39547520615965
  O   -1.91744727316277      1.40006969534528      0.69300269452901
  N   -0.80039638412694     -0.97936482064132     -1.25692219801912
  H   -0.35599806320806     -0.99538713052613     -2.16329236329555
  H   -0.67862398912656     -1.86814667254049     -0.78908169930577
