13
Coordinates from ORCA-job run
  C   1.11584179634024     -0.01023001655866      0.19904378361091
  C   -0.23766074795654      0.07639506612873     -0.51887925518581
  Cl  2.43603100151075      0.03971149892261     -0.98890401876423
  H   -0.30303356926916      0.99562519818849     -1.10101654988124
  H   1.17545031698406     -0.96863347581583      0.72100318967317
  C   1.27690307983444      1.06953829954270      1.16803079028525
  N   1.40506669141764      1.93137129314312      1.95546118515771
  N   -1.27626769823526      0.23002275858801      0.59409580954986
  O   -1.41825674665805     -0.75352531618087      1.31980038175567
  O   -1.88075352801511      1.29382804403602      0.67496086562288
  N   -0.45907647046861     -1.06483608022626     -1.32369277357217
  H   -0.58475949593638     -1.89505308312974     -0.75786824899247
  H   -1.24948462954802     -0.94521418663831     -1.94203515925952
