13
Coordinates from ORCA-job run
  C   1.07131380969600      0.35481250460607     -0.10541976035953
  C   -0.35092999883983      0.03377311111253     -0.60349250221975
  Cl  1.40065093391803      2.10406821198149     -0.15989898253348
  H   -0.44738826108640      0.39247060347065     -1.62827118164040
  H   1.76116513855170     -0.11603872986980     -0.81147650812009
  C   1.34128795821901     -0.19068550547550      1.22100960866684
  N   1.59146032845182     -0.68597980287509      2.25627734103113
  N   -1.33981654068278      0.83793682340051      0.19755684501268
  O   -1.96476652113601      1.71643855498032     -0.38538957495146
  O   -1.43992192689854      0.52263166141700      1.37971113911193
  N   -0.73671033947971     -1.33499632827613     -0.50823909939626
  H   -0.53497257203817     -1.73504810681498      0.39903762304135
  H   -0.35137200867511     -1.89838299765709     -1.25140494764296
