13
Coordinates from ORCA-job run
  C   0.78203615566319      0.55878234982042      0.61601826441152
  C   -0.22592955737495      0.01663068126010     -0.40374358054912
  Cl  0.23244359498816      0.28057093386512      2.27997630596881
  H   0.09653528776964      0.36717027930972     -1.39743215717168
  H   0.87630538215270      1.63687140639079      0.48056590188688
  C   2.06774315932578     -0.08848549094757      0.37836127202868
  N   3.08555414760555     -0.61715040191172      0.12534976940350
  N   -1.53490592695408      0.74916125494106     -0.19007662576519
  O   -2.56834251522411      0.09294116904525     -0.20725686642386
  O   -1.44744119911679      1.96543084100317     -0.06626525804611
  N   -0.42835591308409     -1.38814091208360     -0.25643850642428
  H   0.35165119674409     -1.89993144167210     -0.64905300895551
  H   -1.28629381249505     -1.67485066902063     -0.70800551036362
