13
Coordinates from ORCA-job run
  C   0.91061813397407      0.51042368821270      0.47036553831051
  C   -0.33525028135339      0.07092609221197     -0.30839156376998
  Cl  0.90303698691478     -0.14128758558099      2.12049349607357
  H   -0.34728592822992      0.64093162761873     -1.25102975796528
  H   0.91409606174490      1.59825815188028      0.54973839284123
  C   2.08890048315026      0.05912158075214     -0.26169368442912
  N   3.00113688516411     -0.30163482239597     -0.90750050111144
  N   -1.54649898222230      0.60159820627359      0.43063067158429
  O   -2.50269487167300     -0.14830027758908      0.58045623293891
  O   -1.48734619985609      1.77949373660204      0.76412724887799
  N   -0.41736129410761     -1.34938417452069     -0.42151225558900
  H   0.18856094700061     -1.68038430038156     -1.16133183589975
  H   -1.36891194050644     -1.63876192308318     -0.60335198186195
