13
Coordinates from ORCA-job run
  C   0.86942438662285      0.47346075314268      0.40615139850491
  C   -0.38579426491094      0.06335424277317     -0.39752227694920
  Cl  0.75526056609872     -0.11308532196530      2.08425847507790
  H   -0.29352669599016      0.51125363350846     -1.39018258543470
  H   0.93755866465115      1.56216201679392      0.44623468862277
  C   2.04427706457028     -0.08446649280084     -0.25106218859638
  N   2.95723410386898     -0.53863235152380     -0.83405194763668
  N   -1.53618691024275      0.81123615778461      0.25791092490621
  O   -2.39804494510293      0.16052274564896      0.82989111969063
  O   -1.46796430332246      2.03547176571266      0.18078756220086
  N   -0.69423634745883     -1.30999530294568     -0.51073607220165
  H   -0.11379051455438     -1.77235210042888     -1.19547361893815
  H   -0.67221080422950     -1.79592974569995      0.37479452075353
