13
Coordinates from ORCA-job run
  C   1.12202701551146      0.37030336404760     -0.22979174062838
  C   -0.27754493855815     -0.12537470926795     -0.60549543092805
  Cl  1.32987049458677      2.09400125373202     -0.61463455534358
  H   -0.43830483866142      0.03977137341881     -1.67109689866578
  H   1.81901438408409     -0.19103778864603     -0.85525307907468
  C   1.44616619329301      0.10672253360019      1.16903259666896
  N   1.73193851503485     -0.14865653560277      2.27903632280160
  N   -1.31678216696506      0.75890629645901      0.07741875308754
  O   -1.94650948506932      1.53960776556451     -0.62953710925235
  O   -1.44645733376480      0.59690185606357      1.28861170923618
  N   -0.39248947923908     -1.49788051781420     -0.26673475995266
  H   -0.41729633010365     -1.62487273732454      0.73881147390384
  H   -1.21463203014872     -1.91739215423020     -0.68036728185263
