13
Coordinates from ORCA-job run
  C   1.11969584429714     -0.04236784176589      0.17209741706656
  C   -0.24751943239460      0.08663836580184     -0.51250315872468
  Cl  2.41207266962728     -0.01931386570093     -1.04695027330459
  H   -0.30111547578770      1.01179595843170     -1.08641187145548
  H   1.16599055759011     -1.00565863381171      0.68625582768716
  C   1.33233104634922      1.02573672331286      1.14402914509394
  N   1.49664973473451      1.87745079594017      1.93574168228684
  N   -1.25537857179228      0.25900317810516      0.62518135236607
  O   -1.83106718195783      1.33693079048429      0.72669057522703
  O   -1.39713189097426     -0.72193323097602      1.35452743291953
  N   -0.51931341820326     -1.04138657072838     -1.32074827931129
  H   -0.65366440135789     -1.87288819768939     -0.75886684325641
  H   -1.32054948013040     -0.89500747140371     -1.91904300659466
