13
Coordinates from ORCA-job run
  C   1.08904362394666      0.30160701465499     -0.10830750533475
  C   -0.34975096655352      0.05495165548433     -0.60168459608980
  Cl  1.50498218088864      2.03188472785261     -0.15527390107582
  H   -0.43306703980363      0.42486687659690     -1.62357787546199
  H   1.75138773936970     -0.20020709090445     -0.81935122956242
  C   1.33547271468198     -0.26564268198695      1.21366649277307
  N   1.55049682556006     -0.78474766111354      2.24503358942153
  N   -1.29394844856568      0.90385105068450      0.20795280859544
  O   -1.40607683915723      0.58849443577831      1.38878748955821
  O   -1.87472877971358      1.81612028600660     -0.36887947244602
  N   -0.80377810762763     -1.29283727858170     -0.51196102276060
  H   -0.44878901521887     -1.87160405943121     -1.25860346312602
  H   -0.62124388780690     -1.70673727504037      0.39319868550918
