13
Coordinates from ORCA-job run
  C   0.79722870926916      0.51836874696545      0.58558178287089
  C   -0.18947900012305      0.00328893368397     -0.46226582624773
  Cl  0.34857069283284     -0.08226769861061      2.20619484597891
  H   0.08130195305696      0.43978262810380     -1.42783098565205
  H   0.73679001469165      1.60632831294460      0.62737594756416
  C   2.15213275719826      0.10569671773982      0.24274874226609
  N   3.24921276355548     -0.19414790851063     -0.04855442697621
  N   -1.54257731516183      0.67979796483781     -0.13296440641073
  O   -2.51016211778321     -0.04902554693484      0.04626080794140
  O   -1.53283329793696      1.90601424222796     -0.09670641437156
  N   -0.22965738311764     -1.39788312471738     -0.53712647226082
  H   -0.78240483370839     -1.72072129224078     -1.31818137826603
  H   -0.57912294277327     -1.81423197548917      0.31546778356373
