13
Coordinates from ORCA-job run
  C   1.06876043514576      0.31198163811875     -0.21357032967652
  C   -0.40679579294371      0.04459670996178     -0.56854560884756
  Cl  1.46006366293424      2.04596078184630     -0.31702505462090
  H   -0.58938959358243      0.40251721559700     -1.58178473570097
  H   1.66885573435291     -0.19043808635818     -0.97739613492015
  C   1.44299504764926     -0.23634060454373      1.08617726325533
  N   1.76977461810925     -0.73561190953258      2.09777056324117
  N   -1.28079652965537      0.88951116184242      0.31895083292546
  O   -1.28362190707017      0.57764948344099      1.50623318682138
  O   -1.91675002066096      1.79624909281797     -0.20572393722639
  N   -0.83395769170861     -1.30807889792185     -0.42470453167747
  H   -0.57059562213930     -1.70476809515070      0.46832686924211
  H   -0.52754234043085     -1.89222849011817     -1.18870838281548
