13
Coordinates from ORCA-job run
  C   1.15317226463875      0.33466831410350     -0.07966360483111
  C   -0.23566228276309      0.00596660812142     -0.63509834116198
  Cl  1.47178559928149      2.08390632177313     -0.11546813511614
  H   -0.30423945964160      0.37338202061754     -1.65929195313568
  H   1.86889447252075     -0.14180594615897     -0.75254536257963
  C   1.35578865182002     -0.20415198303206      1.26178183929589
  N   1.54448374797336     -0.68168252998152      2.31796245803849
  N   -1.27988969123492      0.81417790098970      0.12949297961539
  O   -1.82378288004338      1.73978743429157     -0.46455910269075
  O   -1.49832534751024      0.45296816113160      1.28338435786106
  N   -0.44588863217773     -1.39500197480778     -0.56885963118060
  H   -0.55216804189059     -1.70416051679966      0.39079878717064
  H   -1.25416840097283     -1.67805381024848     -1.10693429128561
