13
Coordinates from ORCA-job run
  C   1.10681627560952      0.09889135890449      0.14653600600369
  C   -0.33212102513903     -0.03191065816185     -0.34606212051030
  Cl  2.21710913160808     -0.06843842824192     -1.24665525266948
  H   -0.58436800249545      0.81689849355075     -0.99463021850591
  H   1.32170155446336     -0.71530965184848      0.83843179407156
  C   1.32855069486139      1.39007311181116      0.78585200043750
  N   1.49563404601775      2.44847009363807      1.26589851725232
  N   -1.26897426935938      0.09182229454781      0.83389035867267
  O   -0.81027965456353     -0.03456423762878      1.96432336092077
  O   -2.44651989187835      0.26483704738124      0.53687875063937
  N   -0.58288591185592     -1.34132834488517     -0.88559729063541
  H   0.07438383731049     -1.54639031133106     -1.62704284589512
  H   -1.52004678457892     -1.37205076773627     -1.26982305978165
