13
Coordinates from ORCA-job run
  C   1.16053884954246      0.30910278470045     -0.09194425989377
  C   -0.23390231922742     -0.01623128751754     -0.63620284756180
  Cl  1.51598917290222      2.04812675395932     -0.20076609865935
  H   -0.29500226811764      0.31157553464594     -1.67421077838274
  H   1.86716590330851     -0.21054027106780     -0.74210296782756
  C   1.34879738963371     -0.17521050901678      1.27223120606905
  N   1.51822548028927     -0.60112721393262      2.35344775561593
  N   -1.26385508422683      0.84056704875521      0.09434700422279
  O   -1.50825120362098      0.51392494438325      1.25349426975209
  O   -1.77463254346701      1.76515626058152     -0.53002141494871
  N   -0.46833599604013     -1.40960710208349     -0.51399565462022
  H   -1.28053374786863     -1.69946650632496     -1.04254438929087
  H   -0.58420363310750     -1.67627043708248      0.45726817552517
