17

C	0.0	0.0	0.0
C	-0.192636	-0.347119	-1.522436
F	1.371782	0.0	0.0
H	0.492184	0.397925	-2.001111
N	-0.384305	1.396513	0.347147
O	-0.597231	2.215777	-0.551735
O	-0.358789	1.698294	1.535509
N	-0.419181	-0.967909	0.943029
H	0.044457	-0.722793	1.831575
H	-1.464841	-0.802902	0.963602
N	-1.506447	-0.371865	-2.104359
H	-1.370798	-0.244066	-3.146121
H	-2.058195	0.361086	-1.676242
N	0.437959	-1.620111	-1.802003
H	1.350353	-1.626379	-1.374286
H	-0.17482	-2.284237	-1.345023
H	-2.577459	0.0	0.0
