17

C	0.0	0.0	0.0
C	-0.27128	0.031437	-1.534509
F	1.391377	0.0	0.0
H	0.538373	0.675927	-1.90781
N	-0.458718	1.224606	0.747531
O	-0.425447	1.113415	1.99383
O	-0.462124	2.285243	0.094483
N	-0.310089	-1.212602	0.699851
H	-0.683479	-0.886698	1.594759
H	-1.102754	-1.608584	0.208385
N	-1.479718	0.575915	-2.103325
H	-1.359822	0.408689	-3.09809
H	-2.254597	0.02141	-1.711957
N	-0.071103	-1.377621	-1.962007
H	0.7995	-1.734412	-1.575599
H	0.004175	-1.387221	-2.974111
H	-2.281031	0.0	0.0
