17

C	0.0	0.0	0.0
C	-0.351764	0.084289	-1.497786
F	1.391587	0.0	0.0
H	0.443666	0.72658	-1.899955
N	-0.223352	1.394254	0.677796
O	0.090974	2.388201	0.036433
O	-0.591215	1.388147	1.850427
N	-0.576936	-1.043466	0.696812
H	-0.468027	-0.885752	1.691907
H	-1.590478	-1.01185	0.483262
N	-1.622214	0.692645	-1.789972
H	-1.951702	0.287325	-2.659956
H	-2.342805	0.414795	-1.07554
N	-0.216963	-1.294626	-2.026658
H	0.553853	-1.761919	-1.559018
H	0.040156	-1.211785	-3.00618
H	-3.337722	0.0	0.0
