17

C	0.0	0.0	0.0
C	-0.339192	-0.273521	-1.497426
F	1.355705	0.0	0.0
H	0.344744	0.365218	-2.069131
N	-0.358736	1.444084	0.35877
O	-0.315452	2.25826	-0.564227
O	-0.564335	1.720408	1.531773
N	-0.551661	-0.861444	0.963566
H	-1.555476	-0.636127	1.015117
H	-0.476179	-1.787224	0.548321
N	-1.686962	-0.037396	-1.943714
H	-2.386639	-0.165835	-1.162671
H	-1.778388	0.949862	-2.152576
N	0.000581	-1.702828	-1.678299
H	-0.798743	-2.090772	-2.165633
H	0.8009	-1.783129	-2.290699
H	-3.389079	0.0	0.0
