17

C	0.0	0.0	0.0
C	-0.573932	0.154436	-1.40079
F	1.350386	0.0	0.0
H	-1.647624	0.338896	-1.217853
N	-0.229422	1.347165	0.82421
O	-1.022599	1.303627	1.760995
O	0.462009	2.316802	0.530785
N	-0.61032	-1.073735	0.642132
H	-0.401521	-1.053524	1.634099
H	-1.647167	-0.888729	0.527786
N	-0.34538	-1.124349	-2.106483
H	-0.444945	-1.871019	-1.424506
H	-1.116062	-1.238966	-2.759425
N	-0.000889	1.27749	-2.107537
H	0.930735	1.012379	-2.406668
H	-0.555074	1.435968	-2.940805
H	-3.152511	0.0	0.0
