17

C	0.0	0.0	0.0
C	-0.175429	-0.018373	-1.555683
F	1.403177	0.0	0.0
H	0.208524	0.952796	-1.887393
N	-0.671125	1.12106	0.639133
O	-0.670558	1.089026	1.922249
O	-0.601469	2.218349	0.002013
N	-0.369004	-1.237819	0.643479
H	0.483578	-1.777798	0.742337
H	-0.688149	-0.951047	1.566428
N	-1.515708	-0.155457	-2.070756
H	-1.454452	-0.294493	-3.079198
H	-1.926501	-0.982127	-1.650996
N	0.663633	-1.146338	-2.048044
H	1.638801	-0.922956	-1.891236
H	0.527997	-1.196004	-3.051797
H	-2.073615	0.0	0.0
