17
Coordinates from ORCA-job run
  C   -0.68158369289009      0.22331567481518      0.24568302424932
  C   0.81457964031113      0.38267125082173     -0.00360805746366
  H   -0.90209399508994      0.90187695441772      1.08471283000604
  H   1.06899748668812      1.31209908664487     -0.51201600421449
  N   -0.97057567533474     -1.17178421884941      0.53124578168438
  H   -1.96962337154812     -1.32913839708221      0.50031603373909
  H   -0.63442372717443     -1.41968596191379      1.45312286263307
  C   -1.48484304989261      0.67439113586680     -0.96739029247975
  H   -1.22530268011633      1.69240602737903     -1.26521005064526
  H   -1.31246023549878      0.00475365252872     -1.80954164062719
  H   -2.54927196676457      0.65953039410881     -0.71940044665005
  N   1.33328856123614     -0.73715970822061     -0.86020195675510
  O   1.08650510044454     -0.62160145036003     -2.05484765535755
  O   1.91297209145280     -1.66136267599228     -0.30941756119588
  N   1.62861316277918      0.36672362294849      1.25775583284789
  O   1.12373114472794     -0.10651438862693      2.27232518099220
  O   2.76049120666977      0.82947900151390      1.15647211923693
