17
Coordinates from ORCA-job run
  C   -0.67156766853049      0.21202217647815      0.33884317982821
  C   0.77544300103879      0.51694393075049     -0.02298945304444
  H   -0.92363177644268      1.00117340664542      1.05521752316176
  H   0.92204993596563      1.54956344461371     -0.33879234844619
  N   -0.73631769478465     -1.04492403425110      1.06346572627053
  H   -1.59804348485901     -1.10164675009513      1.58918941124897
  H   -0.68537651102662     -1.82813228037375      0.42567566008268
  C   -1.58184926576556      0.35037806662223     -0.88230049597678
  H   -2.62428672056475      0.27999884776873     -0.56446481087051
  H   -1.39332833468746     -0.44823686468922     -1.60150735287059
  H   -1.44884690404662      1.31406481909800     -1.38396927134733
  N   1.33740571898461     -0.33407197467684     -1.11650649074887
  O   0.88460337399436     -1.46680359976960     -1.26113435759525
  O   2.23590009207729      0.17774687564106     -1.77944341682093
  N   1.63989348287383      0.31413396088542      1.19289803549826
  O   1.41948204658206      1.10936701493070      2.09638143148370
  O   2.44947070919124     -0.60057703957828      1.18843703014679
