17
Coordinates from ORCA-job run
  C   -0.74477607981202      0.27944357688481      0.31531681023201
  C   0.76167959911844      0.45762940469993      0.04716466717578
  H   -0.99748273651205      1.08797578280304      1.00691174978563
  H   1.01150038723040      1.48187289956770     -0.23498327271637
  N   -1.14439042834502     -0.95972860532690      0.94099085660647
  H   -0.82551889867198     -1.75797037558528      0.40669212741132
  H   -0.77842078536678     -1.02799587279470      1.88149538636019
  C   -1.50279099331971      0.47972631860526     -0.99192056430580
  H   -2.56983177752161      0.51107803986059     -0.77346907999641
  H   -1.21324641599388      1.40361252982326     -1.49881192204978
  H   -1.32569919873271     -0.35473066384413     -1.67591013168652
  N   1.21020369559847     -0.41161964026867     -1.07453433002392
  O   1.58762310871036      0.15679152714752     -2.09612827828000
  O   1.10100226360409     -1.62454939917466     -0.91145710260674
  N   1.60244948340744      0.14455002478104      1.25529996180890
  O   1.12317286259391      0.48571779525440      2.33215579498899
  O   2.70552591401264     -0.35280334243321      1.07018732729625
