17
Coordinates from ORCA-job run
  C   -0.64908176442077     -0.13059037894961      0.22191553738544
  C   0.79796582982704     -0.08531327559294     -0.23220440400663
  H   -0.65721069519418      0.03381946870026      1.30649758538808
  H   0.90246509344581     -0.27935788357458     -1.29761700861388
  N   -1.14850529955298     -1.44323578758798     -0.17342082842599
  H   -2.15113815356733     -1.40969047346123     -0.30396360274179
  H   -0.94605251251042     -2.12211881783429      0.54914551066121
  C   -1.44096617837529      0.96633056087606     -0.47545229082847
  H   -2.48673300939236      0.91208439529278     -0.16321722068271
  H   -1.07442831819012      1.96187049762567     -0.22232119322578
  H   -1.39690810994227      0.84054742375184     -1.55994334307132
  N   1.66051010147821     -1.09102719965273      0.47897262493760
  O   1.20694486643131     -1.65286869870947      1.47139798817053
  O   2.77990141460403     -1.24634312911054      0.00097442503476
  N   1.40517878557656      1.24830257789668      0.05836714998464
  O   1.61173003619892      1.50550727947402      1.24154391214569
  O   1.58732791358384      1.99208344085605     -0.90067484211136
