17
Coordinates from ORCA-job run
  C   -0.68992528569621     -0.00097301940122      0.37734778752286
  C   0.84569017249008     -0.14378351839403      0.44514288429355
  H   -0.93091253265253      0.79759557381343      1.09154665331482
  H   1.14149643032821     -0.87240172438718      1.19772877629282
  N   -1.26841169559294     -1.27394407671703      0.78251867963319
  H   -1.66919389787195     -1.21677306298204      1.70916890276617
  H   -1.98626896407310     -1.57252898110859      0.13693053594819
  C   -1.19987233599085      0.43945794331251     -0.98878020696575
  H   -0.65020189175716      1.30677345745509     -1.35367724809630
  H   -1.11026804298905     -0.37468907284445     -1.70923262241351
  H   -2.25465193120828      0.71144871150624     -0.90405692813977
  N   1.50101880855093      1.14620262446815      0.80446501016685
  O   1.08835081429828      2.15903757359011      0.24637118523218
  O   2.38846124268083      1.09408089909791      1.65340005797124
  N   1.45913388118557     -0.61469900026131     -0.84558946258254
  O   1.03167308416929     -1.68181844440574     -1.26584413206832
  O   2.30288214412889      0.09701411725814     -1.37843987287569
