14
Coordinates from ORCA-job run
  C   0.12783800312720      0.33232664341634      0.46872824087699
  C   -1.00895410503517     -0.70063069698745      0.47566487107151
  Br  0.49634694779191      0.74953115288287      2.35971717910337
  H   -0.70366579792994     -1.59737101763103      1.01971835537372
  H   -1.87520362912908     -0.26542385967390      0.97851585484284
  N   -0.36514669145513      1.54645011184592     -0.14081325400772
  H   0.35173875686599      2.26297829464135     -0.12447786381959
  H   -0.60681508960337      1.36200646636368     -1.11059301329694
  C   1.40799654313953     -0.23040220880810     -0.13485624730141
  H   1.73843996873152     -1.13260070364533      0.38412180701914
  H   1.23159577185040     -0.47150538147950     -1.18789661214598
  H   2.20655014872794      0.51162590118543     -0.07788870874204
  C   -1.37255946180111     -1.05943344584116     -0.89547303992587
  N   -1.62816136528071     -1.30655125626912     -2.01446756904802
