14

C	-0.424283	-0.016864	-1.456161
C	0.0	0.0	0.0
Br	0.281734	1.673717	-2.325545
H	1.090642	0.0	0.0
H	0.196162	-0.77286	-1.93636
N	-1.796194	-0.247299	-1.704297
H	-2.348556	0.481541	-1.272317
H	-1.988646	-0.284027	-2.696626
C	-0.448898	-1.207622	0.671629
N	-0.771072	-2.196098	1.2211
N	-0.539224	1.154541	0.773859
O	0.040249	1.440587	1.815937
O	-1.542025	1.740409	0.347843
F	2.468924	0.0	0.0
