14

C	-0.349701	0.025676	-1.458599
C	0.0	0.0	0.0
Br	-2.394928	0.533793	-1.683354
H	1.094729	0.0	0.0
H	0.115076	0.880107	-1.939088
N	-0.057126	-1.175106	-2.091386
H	-0.487922	-1.977033	-1.651952
H	-0.244023	-1.155741	-3.082525
C	-0.541547	-1.150814	0.680488
N	-0.924838	-2.16403	1.139122
N	-0.353461	1.256898	0.680555
O	-0.737844	1.202977	1.849383
O	-0.158208	2.294797	0.05044
F	2.42979	0.0	0.0
