14

C	-0.34598	0.013533	-1.459839
C	0.0	0.0	0.0
Br	-2.39094	0.505723	-1.695722
H	1.094761	0.0	0.0
H	0.116637	0.867113	-1.944884
N	-0.041565	-1.191277	-2.083346
H	-0.471717	-1.990928	-1.638257
H	-0.234079	-1.179756	-3.07332
C	-0.539063	-1.147712	0.687842
N	-0.922469	-2.156935	1.154935
N	-0.359469	1.259921	0.669466
O	-0.738923	1.213439	1.839901
O	-0.174098	2.293154	0.0292
F	2.428438	0.0	0.0
