14

C	-0.196077	0.117309	-1.516857
C	0.0	0.0	0.0
Br	-0.173528	-1.819542	-2.277366
H	1.091981	0.0	0.0
H	-1.184953	0.432041	-1.840807
N	0.845286	0.92495	-1.952984
H	0.919712	1.023774	-2.953687
H	1.732763	0.677699	-1.47122
C	-0.656443	-1.089155	0.687443
N	-1.171157	-1.940927	1.314289
N	-0.495676	1.285183	0.611727
O	0.253345	1.897157	1.363501
O	-1.640927	1.634072	0.321516
F	2.572592	0.0	0.0
