14

C	-0.426485	-0.009019	-1.457604
C	0.0	0.0	0.0
Br	0.178838	1.7569	-2.255763
H	1.090592	0.0	0.0
H	0.23579	-0.710814	-1.96195
N	-1.782947	-0.302386	-1.710217
H	-1.988118	-0.287169	-2.698737
H	-2.37544	0.352871	-1.218698
C	-0.470724	-1.201206	0.669644
N	-0.834722	-2.186619	1.198349
N	-0.560033	1.164268	0.753519
O	-1.714994	1.526124	0.490839
O	0.151172	1.681416	1.606407
F	2.479671	0.0	0.0
