14

C	-0.092205	0.005034	-1.521788
C	0.0	0.0	0.0
Br	-1.940441	-0.186756	-2.177542
H	1.095471	0.0	0.0
H	0.232014	0.98821	-1.855307
N	0.759081	-1.004005	-2.103766
H	0.432953	-1.918677	-1.8046
H	1.663765	-0.841658	-1.638925
C	-0.527539	-1.193249	0.616723
N	-0.911342	-2.210161	1.064955
N	-0.501471	1.224558	0.646383
O	-0.387926	2.275396	0.016106
O	-0.942495	1.139617	1.792519
F	2.503366	0.0	0.0
