17

C	-0.459401	-0.01295	-1.464745
C	0.0	0.0	0.0
Cl	0.010724	1.611624	-2.177274
H	1.091276	0.0	0.0
N	0.199772	-1.091129	-2.119007
H	0.090343	-1.016972	-3.122783
H	1.192856	-1.093732	-1.887535
N	-1.904665	-0.057088	-1.563025
H	-2.191636	0.225549	-2.491694
H	-2.194435	-1.017002	-1.408984
N	-0.404802	-1.380458	0.558427
O	0.409806	-2.292938	0.508933
O	-1.542706	-1.47626	1.035486
N	-0.558805	1.058611	0.741283
H	-0.115537	1.128713	1.646131
H	-1.558517	0.939487	0.828798
Br	3.51694	0.0	0.0
