17

C	-0.586526	0.04172	-1.424257
C	0.0	0.0	0.0
Cl	0.263144	-1.189474	-2.470374
H	1.093243	0.0	0.0
N	-1.992825	-0.335958	-1.405411
H	-2.52318	0.52736	-1.361935
H	-2.23827	-0.825274	-2.256368
N	-0.39975	1.365938	-1.938001
H	0.468583	1.76011	-1.593167
H	-0.372068	1.33166	-2.949762
N	-0.452057	-1.299303	0.670328
O	-1.223787	-1.201474	1.626095
O	-0.020338	-2.356536	0.22989
N	-0.416758	1.141058	0.747389
H	-1.364363	1.018875	1.080815
H	0.194749	1.237299	1.547932
Br	3.486757	0.0	0.0
