17

C	-0.485915	-0.047406	-1.46554
C	0.0	0.0	0.0
Cl	-0.103815	-1.608481	-2.252841
H	1.093165	0.0	0.0
N	-1.915651	0.125118	-1.494575
H	-2.113454	0.992713	-1.004802
H	-2.177005	0.252427	-2.467285
N	0.219262	0.966769	-2.228658
H	0.105622	1.831741	-1.70495
H	1.214718	0.746999	-2.208981
N	-0.503605	-1.167632	0.818217
O	-1.439636	-0.961489	1.598473
O	0.034072	-2.25339	0.648506
N	-0.438136	1.254485	0.572331
H	0.326629	1.626534	1.123425
H	-1.222519	1.074851	1.190016
Br	3.450944	0.0	0.0
