10
Coordinates from ORCA-job run
  C   0.07250503866192     -0.04302629542472      0.03438129598937
  C   1.13088195136394     -0.66946968694960      0.52818870390928
  H   1.30329149210126     -1.71053763980370      0.28850830730142
  H   1.82187904709422     -0.13979428465311      1.17078851940708
  N   -0.27346025708444      1.34139133151722      0.37857594478605
  O   -1.46916934017207      1.56438333065368      0.53592477102571
  O   0.65381598709225      2.12815375304450      0.52592070433037
  N   -0.86219116309278     -0.66928280367621     -0.90879164722171
  O   -1.26290673725751      0.05375084458788     -1.81480001227407
  O   -1.11564601870678     -1.85556854929593     -0.73869658725351
