10
Coordinates from ORCA-job run
  C   0.07445535899228     -0.03864584549803      0.03478869234556
  C   1.16269503103199     -0.60341878773898      0.53775837764388
  H   1.25575047246956     -1.68145939173667      0.55119351589943
  H   1.95869608048511      0.01350338405815      0.93372450380192
  N   -0.15994029212764      1.41038961375541      0.05596602442039
  O   -1.31162187938657      1.75644804053951      0.29702696496042
  O   0.81214528655793      2.13555738866156     -0.11657161543102
  N   -1.00805831770289     -0.80414717601581     -0.59580175424154
  O   -1.49960319693528     -0.29769264896298     -1.59880299881104
  O   -1.28551854338448     -1.88953457706216     -0.10028171058801
