10
Coordinates from ORCA-job run
  C   0.08447953156145     -0.03376121600041      0.00423146832645
  C   1.31232510338364     -0.52808412194681      0.06946956337013
  H   1.50906782769354     -1.53502424074228     -0.27458783861934
  H   2.11777466582950      0.07473571647124      0.46804107175861
  N   -1.07296035892636     -0.81776014687405     -0.44427064319002
  O   -0.88801131906337     -1.61239631606100     -1.35802011300093
  O   -2.11149274186727     -0.63348921806048      0.18152341834192
  N   -0.24438778774149      1.34824069361110      0.37437912218784
  O   0.35551899341856      1.82829211278952      1.32844947007770
  O   -1.06131391428820      1.90924673681318     -0.34821551925237
