10
Coordinates from ORCA-job run
  C   0.07597772475290     -0.03869052613613      0.03169729077485
  C   1.18022105373789     -0.60557282873296      0.49609411322617
  H   1.97217565862534      0.00740415597879      0.90602877674358
  H   1.28876254663612     -1.68184425978382      0.46652585061336
  N   -1.00430205334710     -0.79614740060939     -0.61230900785979
  O   -1.52099044957540     -0.25770510409769     -1.58554873684671
  O   -1.25568099582432     -1.90543867597809     -0.15737063242127
  N   -0.18066475988972      1.40411555166865      0.11402027874712
  O   -1.33301708695809      1.72141925848463      0.38910518075592
  O   0.77651836184237      2.15145982920602     -0.04724311373324
