10
Coordinates from ORCA-job run
  C   0.08668477161746     -0.02585144680768      0.01071610592009
  C   1.34798137400115     -0.39816156585740      0.17387510540474
  H   2.08409357042927      0.32009169195939      0.51041602025857
  H   1.64137712366344     -1.41945443468047     -0.03074532813064
  N   -0.95115503884309     -0.91783055213705     -0.52042882398775
  O   -0.89803756126140     -2.09579232229471     -0.18851156672463
  O   -1.74931344705574     -0.39902264564132     -1.29373419321187
  N   -0.40254482500641      1.31712141597621      0.34618092042579
  O   -1.50890010673383      1.36025812793564      0.87376910879687
  O   0.34881413918916      2.25764173154740      0.11946265124883
