10
Coordinates from ORCA-job run
  C   0.08478468323061     -0.03136048081026      0.01055286107762
  C   1.31847229891496     -0.48986530164763      0.16645126101989
  H   2.14303431660012      0.20233732377278      0.27607950274306
  H   1.50030016974528     -1.55645121090558      0.18427357405845
  N   -1.07193019777344     -0.90412928757963     -0.22636068439617
  O   -1.08029162605327     -1.98681117760791      0.34640231910058
  O   -1.90161578560587     -0.47885231471517     -1.02323207269991
  N   -0.25191349474604      1.39624342376568      0.05927648923051
  O   -1.28546385091389      1.67532437875654      0.65784100833167
  O   0.54362348660155      2.17556464697117     -0.45128425846570
