10
Coordinates from ORCA-job run
  C   0.08879948896075     -0.01487803376792     -0.01404550701462
  C   1.37970898729495     -0.23242486843696     -0.22074684801327
  H   2.11168324507548      0.48363040228371      0.12919226694108
  H   1.70062130970905     -1.12606370335787     -0.73981348039500
  N   -0.96570747764120     -0.89597036265449     -0.53063471388000
  O   -1.96651314778521     -0.32936781984118     -0.95683081790409
  O   -0.73468655603767     -2.09894001730764     -0.53654972063357
  N   -0.41927697891755      1.12932508435223      0.75269916517097
  O   0.17279942016152      2.19403568020781      0.62459649427421
  O   -1.36742829082012      0.89065363852231      1.49313316145429
