10
Coordinates from ORCA-job run
  C   0.07529349029840     -0.03747996122392      0.03541921502052
  C   1.16947179481712     -0.58289464407211      0.54685004097170
  H   1.94902171401391      0.04851085403051      0.95258686503051
  H   1.28190303089878     -1.65908579554377      0.55903121368572
  N   -0.18731092993276      1.40680264280069      0.05851533459719
  O   0.77170699375128      2.15111165249954     -0.10515486627428
  O   -1.34715447716704      1.72948618723046      0.29280232797154
  N   -0.98658990283864     -0.82146469466879     -0.60700698524172
  O   -1.47902497494697     -0.32085067548308     -1.61261791814397
  O   -1.24731673889408     -1.91413556556953     -0.11842522761721
