10
Coordinates from ORCA-job run
  C   0.07553097245569     -0.03771005114312      0.03435249577100
  C   1.17375666104033     -0.58503470494512      0.53495488056628
  H   1.94911836765422      0.04392416621896      0.95232835168526
  H   1.29361572129872     -1.66046848626574      0.52664549469988
  N   -0.12360514484277      1.41325733784826     -0.06552755362254
  O   -0.66866100197660      1.80287051312289     -1.09289124859175
  O   0.31237827432192      2.10097789097870      0.84966599792910
  N   -1.05472449883864     -0.82609346229210     -0.47200892891226
  O   -0.78943479251553     -1.86230305548365     -1.06899295583892
  O   -2.16797455859734     -0.38942014803907     -0.19952653368605
