10
Coordinates from ORCA-job run
  C   0.08530430171242     -0.03163049520349      0.00572197261677
  C   1.32444268480100     -0.49540573398128      0.08238453420030
  H   2.15678251769942      0.19405177796282      0.13580349272542
  H   1.50217262162694     -1.56276973523634      0.08983972200939
  N   -1.08738681446743     -0.90051471308192     -0.15403642815941
  O   -1.95495135975396     -0.48441193440652     -0.91442784320215
  O   -1.07193427273903     -1.97261007534122      0.43845103348161
  N   -0.24272095591357      1.39769715866213      0.07234377057591
  O   0.53324234355855      2.17382155665161     -0.47192826604480
  O   -1.24695106652435      1.68077219397420      0.71684801179697
