10
Coordinates from ORCA-job run
  C   0.08495291899669     -0.03232973515631      0.00518882203416
  C   1.32109443893388     -0.50292102356558      0.08809296865328
  H   2.10963950120891      0.11615025876290      0.49543532393664
  H   1.54256196817165     -1.50538609158820     -0.25404899594198
  N   -1.05105972841595     -0.83798777497292     -0.45881701526595
  O   -0.83807450939434     -1.63066248139871     -1.36817606352032
  O   -2.10218103979720     -0.67127304389878      0.15062762544274
  N   -0.27512136373678      1.34301959539540      0.37085543748102
  O   -1.09040215193989      1.88957465019545     -0.36458227550387
  O   0.29958996597303      1.83281564622674      1.33542417268429
