18

C	0.0	0.0	0.0
C	-0.471365	-0.103959	-1.449523
Cl	1.846607	0.0	0.0
H	-0.233059	0.817858	-1.985953
C	-0.383939	1.314987	0.658017
H	0.01842	1.347773	1.67599
H	-1.474223	1.375159	0.700328
H	0.023875	2.16288	0.102695
N	-0.49494	-1.107714	0.741864
H	-0.281733	-1.940395	0.178109
H	-0.040941	-1.149866	1.646924
N	-1.940756	-0.334371	-1.392575
H	-1.962926	-1.362529	-1.404111
H	-2.336367	-0.017158	-2.278537
N	0.081554	-1.192807	-2.236231
O	-0.113292	-2.394109	-1.639959
O	1.105363	-0.925698	-3.000271
H	-2.834279	0.0	0.0
