18

C	0.0	0.0	0.0
C	-0.511858	0.016231	-1.442111
Cl	1.844135	0.0	0.0
H	-0.251901	0.964673	-1.918482
C	-0.402077	1.255244	0.757169
H	-0.030659	2.151542	0.254075
H	-1.49268	1.275995	0.81765
H	0.014721	1.230444	1.76879
N	-0.486208	-1.167777	0.655301
H	-0.334294	-1.949479	0.006592
H	0.012212	-1.312965	1.524969
N	-1.989891	-0.157966	-1.343122
H	-2.421455	0.273034	-2.161049
H	-2.062439	-1.179303	-1.456667
N	-0.039859	-1.02821	-2.315396
O	0.91187	-0.759075	-3.162844
O	-0.32681	-2.267916	-1.862527
H	-2.930657	0.0	0.0
