18

C	0.0	0.0	0.0
C	-0.569372	0.005201	-1.411042
Cl	1.863182	0.0	0.0
H	-1.684546	0.039305	-1.214423
C	-0.476555	1.170074	0.826411
H	-1.577543	1.137331	0.757469
H	-0.080806	2.119022	0.468236
H	-0.16463	1.025232	1.86492
N	-0.440392	-1.205544	0.57691
H	-0.119572	-1.320333	1.526496
H	-0.229833	-2.000061	-0.00889
N	-0.172029	-1.16289	-2.134263
H	-0.789908	-1.304382	-2.924377
H	0.775014	-1.03528	-2.475247
N	-0.180673	1.275089	-2.126737
O	0.741079	1.215217	-2.955278
O	-0.819951	2.298854	-1.87271
H	-3.273953	0.0	0.0
