18

C	0.0	0.0	0.0
C	-0.398417	0.025208	-1.509582
Cl	1.795141	0.0	0.0
H	0.408535	0.491106	-2.081224
C	-0.440667	1.290822	0.677695
H	-0.083562	2.171847	0.141118
H	-1.533349	1.294922	0.710183
H	-0.037928	1.304188	1.696237
N	-0.521683	-1.191883	0.615402
H	-1.546132	-1.121494	0.516499
H	-0.317557	-1.149885	1.610289
N	-1.635513	0.644097	-1.727498
H	-2.404967	0.323646	-1.063231
H	-1.941524	0.52169	-2.685046
N	-0.313473	-1.442954	-2.025267
O	-1.358219	-2.07262	-2.149839
O	0.803858	-1.865498	-2.321328
H	-3.39455	0.0	0.0
