18

C	0.0	0.0	0.0
C	-0.495965	-0.051898	-1.445136
Cl	1.838923	0.0	0.0
H	-0.289182	0.897302	-1.945548
C	-0.403401	1.28875	0.696527
H	0.004956	1.309655	1.711987
H	-1.494682	1.31966	0.746256
H	-0.022619	2.158052	0.155559
N	-0.485752	-1.137721	0.708699
H	-0.259012	-1.947524	0.117925
H	-0.026145	-1.201597	1.609625
N	-1.958699	-0.306646	-1.367509
H	-1.972878	-1.336236	-1.387932
H	-2.382478	0.019157	-2.235927
N	0.062141	-1.09557	-2.279932
O	-0.110769	-2.324495	-1.739601
O	1.057409	-0.782249	-3.061372
H	-2.86946	0.0	0.0
