18

C	0.0	0.0	0.0
C	-0.525788	-0.018907	-1.454767
Cl	1.787716	0.0	0.0
H	-1.615327	0.130205	-1.328481
C	-0.427209	1.262263	0.740329
H	-1.521577	1.297122	0.685682
H	-0.115751	1.174949	1.78622
H	0.010748	2.166501	0.317942
N	-0.548035	-1.200048	0.582632
H	-0.329953	-1.188649	1.575532
H	-1.579717	-1.029617	0.507329
N	-0.264629	-1.210379	-2.208672
H	0.716661	-1.450787	-2.113664
H	-0.797982	-1.943713	-1.756682
N	0.002435	1.150274	-2.224182
O	0.969509	0.965502	-2.962172
O	-0.558799	2.236205	-2.06772
H	-3.088057	0.0	0.0
