18

C	0.0	0.0	0.0
C	-0.542278	-0.066245	-1.433451
Cl	1.791648	0.0	0.0
H	-1.639548	0.05933	-1.296111
C	-0.424016	1.28695	0.701445
H	-0.104453	1.222436	1.746374
H	-1.519453	1.314548	0.65341
H	0.009068	2.183573	0.260235
N	-0.507365	-1.172991	0.663507
H	-1.531806	-1.116599	0.501182
H	-0.378896	-1.024986	1.661528
N	-0.226945	-1.278937	-2.091422
H	0.774518	-1.375376	-2.19825
H	-0.660701	-1.302096	-3.004291
N	-0.073976	1.154076	-2.231836
O	-0.637647	2.228958	-2.029426
O	0.811864	0.984275	-3.074349
H	-3.118354	0.0	0.0
