17

C	-0.545018	-0.017885	-1.428298
C	0.0	0.0	0.0
Cl	0.208235	1.214656	-2.460306
H	1.09299	0.0	0.0
N	-0.238745	-1.379303	-2.067523
O	-1.133047	-1.886585	-2.739656
O	0.880754	-1.822261	-1.876075
C	-1.996963	0.156106	-1.439269
N	-3.148915	0.376253	-1.363681
N	-0.499499	-1.231822	0.610385
H	0.29219	-1.796512	0.896463
H	-1.073289	-1.033065	1.421092
C	-0.448617	1.246331	0.74831
H	-0.154535	2.157015	0.223792
H	0.049633	1.249929	1.720335
H	-1.533378	1.257621	0.900707
Br	3.541614	0.0	0.0
