16
Coordinates from ORCA-job run
  C   1.04994910567665     -0.19037512844031     -0.40373596616219
  C   -0.39119172268878      0.26176871210043     -0.23031615876307
  Br  1.74690704796965      0.11636105212071     -2.18134660464203
  H   -0.43591374483345      1.31311544913163     -0.53315204602703
  H   1.18725939691085     -1.24765898329593     -0.17937578812049
  N   1.92221684096922      0.54408819055459      0.57841125270327
  O   2.47131891235930     -0.14687612645500      1.43391152470855
  O   1.96470813718133      1.76490802545784      0.49126810777040
  C   -0.78651001996317      0.14703766051454      1.24416445096308
  H   -0.20484843032591      0.81552855282687      1.88130429363546
  H   -1.83892637121389      0.41425779977290      1.36086427380114
  H   -0.65633759388360     -0.87616466009520      1.60911090439508
  C   -1.32261425791105     -0.57022906612975     -1.10754809314766
  H   -1.09150973134948     -0.46281379556008     -2.16758191325709
  H   -1.25610597720351     -1.63066318560897     -0.84540805574431
  H   -2.35640159169415     -0.25328449689427     -0.95357018211311
