16
Coordinates from ORCA-job run
  C   1.03585575082359      0.42128821738667     -0.57512843613599
  C   -0.47463164779596      0.34741136718438     -0.35919398017335
  Br  1.75488694654429      2.20377683064494     -0.39257261563343
  H   -0.88787334116466      1.02769793769920     -1.11393578181713
  H   1.30816965235888      0.07511840090223     -1.57031983041484
  N   1.74374364615168     -0.51956553522141      0.36538124298511
  O   2.05627371825378     -1.60441760772191     -0.12463258902501
  O   1.89295695616372     -0.18340842406731      1.53359724901066
  C   -0.94054875375354      0.81133785301463      1.01724766311622
  H   -0.59058028902614      1.81753305750619      1.24922002741930
  H   -2.03293836718277      0.81743341616381      1.03957631692901
  H   -0.59014227272532      0.14003223256144      1.80291555857370
  C   -0.96749153946402     -1.06950920717193     -0.66277859975629
  H   -0.62790084267472     -1.78036341925382      0.09407977150256
  H   -0.62006889616404     -1.42382189395841     -1.63624450890871
  H   -2.05971072034477     -1.08254322566868     -0.66621148767178
