16
Coordinates from ORCA-job run
  C   1.06222801049894     -0.09858892857658     -0.40493390675051
  C   -0.40263564216800      0.26044637464086     -0.21219055356931
  Br  1.75874856318968      0.39972067194282     -2.13881278946927
  H   -0.50028718300560      1.33079422975347     -0.42171257452613
  H   1.25358332505861     -1.16296000485360     -0.27229860811823
  N   1.88458031874236      0.59083665121875      0.64966677474169
  O   1.86273089055208      1.81511194457114      0.67026223421274
  O   2.46147845994790     -0.14321947420585      1.44913102848095
  C   -0.80344132078267     -0.00452412005563      1.24150863470238
  H   -0.61634653438751     -1.04632733366052      1.51853805973749
  H   -0.26741631735216      0.63881126173664      1.94148057283385
  H   -1.87075875972537      0.18992447949946      1.36676953290525
  C   -1.28144469936804     -0.53844698859184     -1.17043926589287
  H   -1.04018175162209     -0.33566196410958     -2.21415019469080
  H   -2.33088578739571     -0.28144844775783     -1.01055386966777
  H   -1.16995157218243     -1.61246835155170     -0.99226507492946
