16
Coordinates from ORCA-job run
  C   1.03778334075928      0.11427484141163     -0.53332930072864
  C   -0.31601389511684     -0.37990008104382     -0.02606546248188
  Br  1.02075360684029      1.91339815341215     -1.21986047663767
  H   -0.12042145781245     -1.41680320187665      0.27550735279392
  H   1.41625493652768     -0.52794832852054     -1.32777198051764
  N   2.04225843504894     -0.02780526184811      0.59132494835832
  O   2.36318308337318      0.94563716775514      1.25734436068106
  O   2.40060140716622     -1.18924697381876      0.77648031497369
  C   -1.34253500093453     -0.39574581182683     -1.15501116531417
  H   -2.24350654860483     -0.91751626495476     -0.82400558994611
  H   -1.62528553939763      0.61790777770510     -1.44445392497566
  H   -0.96088094479942     -0.91108014179810     -2.04061843608557
  C   -0.81429076480102      0.39807899908368      1.18684765382787
  H   -0.96385178113429      1.45170613282114      0.94206052054442
  H   -1.77182374299462     -0.01332643981482      1.51446813865160
  H   -0.12222513411997      0.33936943331353      2.02908304685645
