16
Coordinates from ORCA-job run
  C   1.02841615654268      0.40952732127740     -0.59679660731215
  C   -0.47891171992933      0.34456417878439     -0.35638191594227
  Br  1.75523616900320      2.19250816466185     -0.45522498051471
  H   -0.90198691153800      1.01806945706865     -1.11163477988025
  H   1.28356918679303      0.04701275185958     -1.59072000884137
  N   1.74723814499758     -0.51814548209367      0.34817388726552
  O   1.91795305508524     -0.16137677318740      1.50721152747127
  O   2.04660915706512     -1.61285976933329     -0.12766362447361
  C   -0.91989895390004      0.82436318837892      1.02291529236787
  H   -0.57117500365426      0.15128235479495      1.80786815845578
  H   -0.55002674685914      1.82559343111851      1.24528105580824
  H   -2.01166712173214      0.84911464348530      1.05868027527846
  C   -0.98304037524003     -1.07317235881736     -0.63722004503949
  H   -0.65832973596790     -1.43619016090889     -1.61531593292739
  H   -2.07515427292638     -1.08178555038259     -0.61671907391275
  H   -0.62983102773965     -1.77950539670635      0.11754677219684
