14

C	0.0	0.0	0.0
C	-0.425092	-0.057586	-1.517814
Cl	1.829172	0.0	0.0
H	0.509212	0.023707	-2.087666
N	-0.431203	1.222448	0.589906
H	-1.461184	1.199993	0.558665
H	-0.137215	1.245897	1.561247
C	-0.346958	-1.236153	0.726956
N	-0.485923	-2.200793	1.385207
C	-1.216818	1.091372	-1.976067
N	-1.653236	2.024075	-2.542362
C	-1.011212	-1.338193	-1.922046
N	-1.312713	-2.388987	-2.353397
Br	-3.373602	0.0	0.0
