14

C	0.0	0.0	0.0
C	-0.454221	0.081064	-1.514626
Cl	1.781617	0.0	0.0
H	0.472725	0.079353	-2.099974
N	-0.452237	1.147648	0.718564
H	-1.481794	1.110394	0.682832
H	-0.16172	1.065127	1.68787
C	-0.366643	-1.307742	0.585985
N	-0.525936	-2.339267	1.129051
C	-1.106188	1.345412	-1.859138
N	-1.481502	2.374762	-2.283758
C	-1.192517	-1.09017	-1.997686
N	-1.556953	-2.073719	-2.526207
Br	-3.400118	0.0	0.0
