14

C	0.0	0.0	0.0
C	-0.49881	0.278858	-1.454331
Cl	1.784731	0.0	0.0
H	-1.610322	0.221221	-1.360973
N	-0.46834	0.936926	0.969626
H	-1.494813	0.893401	0.966188
H	-0.159404	1.870902	0.720096
C	-0.411986	-1.362153	0.37637
N	-0.630759	-2.465451	0.715061
C	-0.015601	-0.705189	-2.419631
N	0.364458	-1.498254	-3.198597
C	-0.116636	1.629272	-1.85706
N	0.162873	2.728108	-2.164706
Br	-3.539325	0.0	0.0
