14

C	0.0	0.0	0.0
C	-0.510674	0.037569	-1.475939
Cl	1.784614	0.0	0.0
H	-1.620673	-0.02199	-1.362671
N	-0.480601	1.071997	0.812067
H	-1.504683	0.991008	0.836527
H	-0.219281	1.959282	0.393162
C	-0.401566	-1.289433	0.590169
N	-0.614311	-2.328381	1.095945
C	-0.026833	-1.079655	-2.282292
N	0.347141	-1.983946	-2.932455
C	-0.162736	1.316314	-2.088696
N	0.085133	2.363564	-2.560136
Br	-3.554728	0.0	0.0
