14
Coordinates from ORCA-job run
  C   -0.60906540103975      0.12325001481968      0.47525673712835
  C   0.44470688821389     -0.50888274123818     -0.44682319559094
  F   -0.79631303798216     -0.83212714893090      1.50145000525087
  H   -0.04151005410389     -1.39640480522976     -0.88763340658595
  N   -1.79178265825195      0.40952882489799     -0.22808327242626
  H   -2.47600033792372      0.88810096145615      0.34232595937002
  H   -2.19508849863962     -0.42152940887676     -0.64111736463805
  C   -0.09443310197155      1.33981331535670      1.12468380656613
  N   0.28009119304915      2.31031699159535      1.66761979570893
  N   1.63457105693168     -0.79805511425678      0.33291201248861
  H   2.38837553625656     -1.10673657006566     -0.26730535931415
  H   1.42878002421870     -1.52654920907412      1.00458268560004
  C   0.77044954791869      0.41110427531566     -1.53918877809927
  N   1.05721884332396      1.10817061423064     -2.43867962545832
