14
Coordinates from ORCA-job run
  C   -0.46035889618449      0.40635449891369      0.53062574418725
  C   0.44092237442969     -0.18264539637130     -0.57480657150637
  F   0.33711386960063      0.38409653404020      1.70218820029945
  H   -0.08596920635567     -0.04838394678882     -1.52410882834396
  N   -1.61820377797072     -0.33770435389639      0.65952623756470
  H   -2.49608855568656      0.10116385022553      0.85887125341749
  H   -1.59238257246892     -1.29087166095262      0.34225754516310
  C   -0.75456512747751      1.82520096680800      0.26233325784052
  N   -1.00978311516438      2.94447538079704      0.01690116965936
  N   0.57422926579895     -1.60870270311725     -0.31984249524388
  H   1.13789452900655     -1.74913056430996      0.51130407379361
  H   1.03920407204028     -2.06153690316885     -1.09688245973714
  C   1.72004421679484      0.54663030759581     -0.64447083596059
  N   2.76794292363730      1.07105399022493     -0.72389629113355
