14
Coordinates from ORCA-job run
  C   -0.73497685959894      0.01086921767406      0.39408873740697
  C   0.54527539279065     -0.61892987458069     -0.19892407457143
  F   -1.69092712865421     -1.02176049217205      0.36898516902996
  H   0.70384297526205     -1.54447371021623      0.37409308707447
  N   -1.13103049941950      1.16912949977283     -0.28399817952101
  H   -1.99970067946934      1.54576389567761      0.07101553736183
  H   -1.17145603732643      1.03742181435035     -1.28660873469933
  C   -0.50253312340605      0.32092369414112      1.82029738245659
  N   -0.26791095961079      0.55575138714800      2.94638177671878
  N   1.64834559180568      0.32554601630041     -0.17809660798301
  H   1.81141859386943      0.64632596390316      0.76975828175528
  H   2.49276815942640     -0.12757949218426     -0.50557209032362
  C   0.25944509383819     -1.00470971650363     -1.58771265111740
  N   0.03743948049286     -1.29227820331066     -2.70370763358806
