14
Coordinates from ORCA-job run
  C   -0.69705921598606     -0.12532488996088      0.45795296997354
  C   0.59785163108265     -0.62757257459612     -0.20365425429520
  F   -1.64097927721638     -1.15113124889765      0.31537378937232
  H   0.83579352951229     -1.59517780261653      0.24689307340948
  N   -1.10911166121436      1.09044859118433     -0.13342102172228
  H   -1.38745393142132      0.94250755423411     -1.09754533608688
  H   -1.86591213992715      1.52456476861855      0.37886794951436
  C   -0.48017172967399      0.06366363842647      1.90298885870027
  N   -0.36602480010756      0.18220733548984      3.06486210154567
  N   1.65690712710083      0.31040537017537      0.08816136526150
  H   2.55133767455913     -0.03697030871356     -0.23198729455211
  H   1.46288577119385      1.20118866309332     -0.35217742867979
  C   0.32032536056234     -0.84011056111100     -1.64078525481032
  N   0.12061166153575     -0.93669853532626     -2.79452951763056
