14
Coordinates from ORCA-job run
  C   -0.69023573854602      0.04011670824698      0.49013324422369
  C   0.39830344719422     -0.57918472990611     -0.41066362963320
  F   -1.06818285469852     -0.95928092464165      1.38726930955353
  H   -0.05802110423776     -1.47993669788221     -0.83755898320820
  N   -1.76691401968414      0.52149584262363     -0.28433368802170
  H   -2.47053947956611      0.97228092836930      0.28614100389954
  H   -2.18909764027516     -0.22108876015625     -0.82840373196186
  C   -0.11204160782318      1.13953297714576      1.28671835864805
  N   0.38322642351521      2.00181870237704      1.91030152571466
  N   1.53482753742266     -0.98544348830450      0.39055387431868
  H   2.09702036615928     -1.66028690045782     -0.11126537033356
  H   2.12068238691290     -0.18769687783479      0.60931636843261
  C   0.72897218134474      0.34636264687909     -1.51081509780487
  N   1.09100010228190      1.05331057354152     -2.37639318382737
