15

C	0.0	0.0	0.0
C	-0.54577	0.05728	-1.423174
Cl	1.7839	0.0	0.0
H	-1.630928	0.293917	-1.18132
H	-0.353906	-0.932014	0.432027
C	-0.438475	1.088866	0.879489
N	-0.595755	1.937614	1.675736
C	-0.442675	-1.276841	-2.121619
H	-1.124155	-1.949672	-1.597039
H	-0.769325	-1.19467	-3.157601
H	0.572556	-1.683654	-2.112896
N	0.103717	1.151367	-2.18357
O	0.132332	2.262183	-1.65176
O	0.54626	0.916635	-3.312713
F	-2.59505	0.0	0.0
