14

C	0.0	0.0	0.0
C	-0.455004	-0.045906	-1.450171
Cl	1.809959	0.0	0.0
H	-1.549183	-0.075714	-1.391781
H	-0.058336	-0.929317	-1.956743
H	-0.115471	0.854534	-1.966219
N	-0.539394	1.202162	0.587579
H	-0.357101	1.167748	1.587818
H	-1.563626	1.016234	0.460012
C	-0.442936	-1.262177	0.733363
H	-0.055548	-2.168581	0.257769
H	-1.537934	-1.218434	0.68489
H	-0.097075	-1.23684	1.772164
F	-2.937229	0.0	0.0
