15

C	0.0	0.0	0.0
C	-0.443069	0.206257	-1.491376
Cl	1.760646	0.0	0.0
H	0.47215	0.078054	-2.075767
C	-0.441014	1.035419	0.927025
N	-0.565499	1.891336	1.723526
N	-0.356357	-1.383185	0.561194
O	-0.54933	-1.461438	1.762873
O	-0.28016	-2.306897	-0.236553
N	-0.856253	1.588327	-1.644989
H	-0.935937	1.781381	-2.638063
H	-1.790131	1.647968	-1.236018
C	-1.363898	-0.78145	-2.087987
N	-1.891002	-1.455032	-2.898818
Cl	-3.029279	0.0	0.0
