15

C	0.0	0.0	0.0
C	-0.481888	-0.250303	-1.473566
Cl	1.766195	0.0	0.0
H	-0.037083	0.593313	-2.018638
C	-0.485108	1.281183	0.489852
N	-0.799631	2.361166	0.831655
N	-0.46891	-1.098297	0.962612
O	-0.950608	-2.102964	0.460007
O	-0.277578	-0.875256	2.148483
N	-1.876951	-0.284931	-1.745348
H	-2.359992	0.572293	-1.49464
H	-2.37236	-1.00626	-1.233451
C	0.174718	-1.46217	-1.998707
N	0.689269	-2.403065	-2.476432
Cl	-4.397028	0.0	0.0
