15

C	0.0	0.0	0.0
C	-0.462391	0.247257	-1.476697
Cl	1.761462	0.0	0.0
H	0.451653	0.171428	-2.072473
C	-0.435482	1.022963	0.944952
N	-0.593367	1.871674	1.742907
N	-0.363277	-1.387645	0.5446
O	-0.590386	-1.471199	1.740296
O	-0.260759	-2.305804	-0.256055
N	-0.930101	1.616545	-1.582454
H	-1.022156	1.844598	-2.565674
H	-1.86341	1.618261	-1.166937
C	-1.34775	-0.765227	-2.087377
N	-1.830733	-1.468178	-2.89947
Cl	-3.091463	0.0	0.0
