15

C	0.0	0.0	0.0
C	-0.569601	-0.010335	-1.476504
Cl	1.765166	0.0	0.0
H	-0.493214	1.03763	-1.796374
C	-0.490141	1.151147	0.739852
N	-0.784374	2.148099	1.288897
N	-0.410754	-1.287481	0.718268
O	-0.718726	-1.19932	1.897916
O	-0.332059	-2.30564	0.044849
N	-1.903041	-0.456737	-1.659182
H	-2.646691	0.046357	-1.154781
H	-2.011728	-1.439033	-1.448942
C	0.327109	-0.781712	-2.3595
N	0.993653	-1.36635	-3.128371
Cl	-4.466131	0.0	0.0
