15

C	0.0	0.0	0.0
C	-0.451545	-0.292122	-1.474691
Cl	1.755601	0.0	0.0
H	0.470425	-0.553072	-2.000544
C	-0.443396	1.286421	0.525227
N	-0.563494	2.368514	0.969784
N	-0.359658	-1.113896	0.994604
O	-0.2439	-2.253851	0.567873
O	-0.598429	-0.775947	2.142185
N	-0.929243	0.946391	-2.058438
H	-1.863191	1.096344	-1.670885
H	-1.020656	0.809273	-3.058734
C	-1.316091	-1.467762	-1.704046
N	-1.805976	-2.4122	-2.207405
Cl	-3.066287	0.0	0.0
