15

C	0.0	0.0	0.0
C	-0.600766	0.097846	-1.411317
Cl	1.749439	0.0	0.0
H	-1.693952	0.030368	-1.218043
C	-0.448244	1.094691	0.858689
N	-0.681006	1.986818	1.587793
N	-0.430204	-1.324268	0.673727
O	-0.226746	-1.388762	1.87687
O	-0.875355	-2.202903	-0.044923
N	-0.073182	-0.929996	-2.301469
H	0.095742	-0.540799	-3.21851
H	-0.762378	-1.66617	-2.374025
C	-0.298744	1.427713	-1.936755
N	-0.032889	2.464263	-2.422462
Cl	-3.473937	0.0	0.0
