15

C	0.0	0.0	0.0
C	-0.475429	0.202286	-1.480283
Cl	1.762363	0.0	0.0
H	0.38869	0.668517	-1.963361
C	-0.424738	1.127746	0.827613
N	-0.628838	2.057794	1.516371
N	-0.439433	-1.303424	0.696157
O	-0.699677	-1.213191	1.885867
O	-0.396089	-2.31866	0.020091
N	-1.550078	1.157038	-1.546364
H	-2.409797	0.789167	-1.103341
H	-1.748165	1.35937	-2.519264
C	-0.669293	-1.055978	-2.237175
N	-0.815231	-1.904006	-3.038583
Cl	-3.93904	0.0	0.0
