15

C	0.0	0.0	0.0
C	-0.447109	0.193428	-1.493053
Cl	1.765292	0.0	0.0
H	0.477551	0.112777	-2.070412
C	-0.438294	1.060298	0.900539
N	-0.547899	1.953201	1.657884
N	-0.358176	-1.364969	0.596274
O	-0.262464	-2.313793	-0.168592
O	-0.573307	-1.402324	1.79661
N	-0.924103	1.552709	-1.656656
H	-1.86485	1.56842	-1.258142
H	-0.991938	1.746231	-2.650252
C	-1.304152	-0.852169	-2.088875
N	-1.77019	-1.606187	-2.862403
Cl	-3.044494	0.0	0.0
