15

C	0.0	0.0	0.0
C	-0.482198	-0.048205	-1.491843
Cl	1.760563	0.0	0.0
H	0.059467	0.801192	-1.934391
C	-0.449555	1.246285	0.615145
N	-0.716178	2.29829	1.066294
N	-0.485132	-1.176645	0.844252
O	-0.670086	-0.955104	2.031686
O	-0.572036	-2.247375	0.263589
N	-1.867457	0.122538	-1.758586
H	-2.188691	1.051647	-1.517173
H	-2.510981	-0.506103	-1.277567
C	0.055704	-1.242216	-2.17357
N	0.492471	-2.134682	-2.799816
Cl	-4.405003	0.0	0.0
