13
Coordinates from ORCA-job run
  C   0.69525691024774      0.29576163764144      0.42730904120579
  C   -0.39198788761560     -0.29852031066950     -0.43400534303303
  F   0.54251863745137     -0.06638250337431      1.72751087246727
  H   -0.32066089154637     -1.38742440424236     -0.34719763996278
  H   0.75989803241677      1.38346836917725      0.36333876583681
  H   -0.18422432079769     -0.02919111439254     -1.47212334876747
  N   2.03408326051710     -0.21411428242717     -0.05526297843546
  O   2.42753797258561      0.29973754366413     -1.09825503227789
  O   2.58486834637076     -1.09759547235880      0.58572412486221
  C   -1.77170256715046      0.18739415813127     -0.00376276922313
  H   -1.97956390793331     -0.09324043360564      1.02911759196236
  H   -2.54398422466470     -0.25302855117050     -0.63646335860238
  H   -1.85103935988122      1.27413536362672     -0.08692992603231
