13
Coordinates from ORCA-job run
  C   0.67417540846874      0.03836515159382      0.54521126457460
  C   -0.37118508120846     -0.03986974847695     -0.54022025011300
  F   0.48380461799024     -0.93030225180904      1.47829232064431
  H   -0.28332564253710     -1.02538476449209     -1.00870084527154
  H   0.71943899561508      1.00966815673580      1.04114209413781
  H   -0.13190900895145      0.71388317433162     -1.29384861977118
  N   2.03861184674357     -0.15844225298242     -0.07499203344288
  O   2.58610986818303     -1.24350013665226      0.05739508285702
  O   2.45546730897622      0.81039273925109     -0.70267770495613
  C   -1.77369904371318      0.16706406212462      0.02096278678585
  H   -2.01152179399605     -0.59230026303904      0.76637897686553
  H   -1.87050036480748      1.14989696131033      0.48879574560817
  H   -2.51546711076316      0.10252917210450     -0.77673881791855
