13
Coordinates from ORCA-job run
  C   0.87524634837190      0.65623239347564     -0.13313415571901
  C   -0.44991861146135      0.28858238377631     -0.75737015550747
  F   0.72016510506373      1.59796532424645      0.83349542544648
  H   -0.85432832058059      1.20650916184318     -1.19390743186193
  H   1.61833055039072      1.00152645025326     -0.85360969280304
  H   -0.25428781662602     -0.40845424101227     -1.57522285253077
  N   1.47242986059789     -0.58000305992567      0.50051410893586
  O   1.49226481920970     -0.66171779340904      1.72016999682308
  O   1.85350654901849     -1.42516740142718     -0.30386464047909
  C   -1.42809612625588     -0.30486427537422      0.25126547112343
  H   -1.55529726218143      0.35624508528622      1.10926295518439
  H   -1.08604854156666     -1.27517990788899      0.61645525316616
  H   -2.40396655398051     -0.45167411984369     -0.21405428177808
