13
Coordinates from ORCA-job run
  C   0.93951469929598      0.02216331207405     -0.55725364114681
  C   -0.47656242406081      0.53764707387656     -0.56359378855750
  F   1.77746315143033      0.91098582810510     -1.15981522903573
  H   -0.45265370655773      1.54377543396815     -0.13646533193554
  H   1.06388114161385     -0.95898939698014     -1.01604909089057
  H   -0.77237514072601      0.63151697151994     -1.61236828162598
  N   1.39121547750336     -0.13887536668989      0.87181332776028
  O   1.40295488716723     -1.28657778693889      1.31148219474867
  O   1.65113516862077      0.88668310521536      1.48927493629120
  C   -1.44143442318494     -0.36588931695019      0.19762163854463
  H   -1.21954720557990     -0.37990187488719      1.26582439099865
  H   -2.46460318606973     -0.00769156215269      0.07611921222486
  H   -1.39898843945239     -1.39484642016016     -0.16659033737617
