13
Coordinates from ORCA-job run
  C   0.87263127461132      0.66578688944638     -0.09812855914782
  C   -0.43355495247853      0.30059331948174     -0.76248889709205
  F   0.68652522680778      1.58663622310240      0.88279746187511
  H   -0.83481124668803      1.22400223391141     -1.19040140657535
  H   1.63141323970908      1.03032316485985     -0.79230746222135
  H   -0.21199222831973     -0.37780506966825     -1.58931058429871
  N   1.46318356658020     -0.57881697041212      0.52579100284277
  O   1.86798558194937     -1.40642565822332     -0.28521933975937
  O   1.45679832915891     -0.68306037223986      1.74385768018138
  C   -1.43121672121574     -0.32095981229589      0.20942692126420
  H   -2.39513664524010     -0.46307098959743     -0.28151829171855
  H   -1.58261788059765      0.31991577381113      1.07880542838119
  H   -1.09120754427688     -1.29711873217604      0.56069604626857
