19

C	0.0	0.0	0.0
C	-0.493289	0.131164	-1.444451
F	1.413253	0.0	0.0
H	-1.571939	-0.061925	-1.41739
N	-0.488732	1.082683	0.767315
H	0.065989	1.915514	0.65227
H	-0.662993	0.854323	1.731332
C	-0.470632	-1.311276	0.592773
H	-1.562539	-1.301513	0.653737
H	-0.033811	-1.409875	1.591649
H	-0.133101	-2.158286	-0.005639
C	0.251155	-0.728621	-2.454921
H	1.302447	-0.438031	-2.490631
H	-0.197055	-0.61028	-3.443051
H	0.190682	-1.781267	-2.176813
N	-0.383982	1.541671	-1.946517
O	-1.200485	1.886652	-2.795957
O	0.550934	2.243433	-1.551312
Cl	-3.888706	0.0	0.0
