19

C	0.0	0.0	0.0
C	-0.427522	0.158152	-1.485956
F	1.388465	0.0	0.0
H	-1.488582	0.423315	-1.471283
N	-0.470349	1.032447	0.867042
H	-1.466425	0.862832	1.00061
H	-0.393082	1.928502	0.403684
C	-0.43682	-1.345907	0.548241
H	0.107572	-2.149843	0.052338
H	-1.5122	-1.47322	0.423635
H	-0.192852	-1.355178	1.611618
C	-0.167587	-1.050915	-2.360275
H	-0.339394	-0.804441	-3.409249
H	0.858797	-1.404802	-2.255081
H	-0.866865	-1.83934	-2.077247
N	0.301673	1.347065	-2.036766
O	1.251971	1.159279	-2.793642
O	-0.081638	2.462522	-1.678645
Cl	-3.658379	0.0	0.0
