11
Coordinates from ORCA-job run
  C   0.73074951717659      0.08690775165107      0.48551626476520
  C   -0.48596941412630      0.10575920115554     -0.07989890131490
  H   0.93183119637119      0.54960125078684      1.44247191024732
  N   1.86807663275833     -0.60307675159818     -0.10468461263090
  O   2.81225879669511     -0.78090955741006      0.66647726571232
  O   1.80734369835186     -0.94468937569772     -1.28290880507989
  N   -1.56692126855890      0.83573429614206      0.65526165710829
  O   -2.65198937406895      0.89067049696765      0.08897245566500
  O   -1.27650645626583      1.31401300771838      1.74230532063428
  C   -0.88998136391949     -0.48596954476586     -1.30612330387662
  N   -1.27889196441361     -0.96904077494971     -2.30738925123010
