11
Coordinates from ORCA-job run
  C   0.69810530733779     -0.04720916186672      0.53759170958695
  C   -0.47328024470387      0.14653777335845     -0.08705868007093
  H   0.85136388522371      0.21469758369916      1.57604391949123
  N   1.84173051980125     -0.67828233411351     -0.10442810718081
  O   2.70694372298550     -1.07862311224769      0.67565921777714
  O   1.85999990898113     -0.76331495089337     -1.32968170403889
  N   -1.56963296088356      0.78816464029683      0.70521503444671
  O   -1.33988470109465      1.02787929946118      1.88197067375016
  O   -2.60454909203552      1.01926411463802      0.09157276487882
  C   -0.81497901193128     -0.18049191041189     -1.42602953959674
  N   -1.15681733368050     -0.44862194192046     -2.52085528904364
