11
Coordinates from ORCA-job run
  C   0.73977152717253      0.45789771047631      0.16676541249449
  C   -0.49268612244024     -0.06448878286622      0.07281200840773
  H   0.92635125837747      1.41576555983859      0.63195259025137
  N   1.90879569767366     -0.18961141551925     -0.40087553542740
  O   2.85454440135844      0.55951929764437     -0.64753952025258
  O   1.87078423427834     -1.40606504082053     -0.57351899837381
  N   -1.61668092646384      0.74063589117354      0.63987666348265
  O   -1.31980281740740      1.68444995626927      1.35920320376028
  O   -2.74284212940071      0.38014747514603      0.31799881007281
  C   -0.87794545541136     -1.28712902068082     -0.53802999844918
  N   -1.24828966773690     -2.29112163066127     -1.02964463596635
