11
Coordinates from ORCA-job run
  C   0.67234707095067     -0.69435829529742     -0.19228550037276
  C   -0.55989551912320     -0.17080449309760     -0.25296842892680
  H   0.92321907280240     -1.66081370379111     -0.61158144459516
  N   1.77403164745628     -0.02843949329976      0.48811174072763
  O   1.76882470765443      1.19868111999538      0.53273880438993
  O   2.62621829025294     -0.78405546298910      0.95133866524746
  N   -0.91888621337859      1.13181690900739      0.35431199607069
  O   -0.90197187533299      1.18731457201408      1.57508589848823
  O   -1.23274986322873      2.00314359753124     -0.44462004545955
  C   -1.63108905327325     -0.82104463311264     -0.92468804736556
  N   -2.52004826477997     -1.36244011696046     -1.47544363820412
