11
Coordinates from ORCA-job run
  C   0.74672614565029      0.35076480364338      0.31926633118622
  C   -0.50293833328292      0.00937999372327     -0.02932215941647
  H   0.95755137428426      1.10598616658833      1.06430834175790
  N   1.92050577961077     -0.31826181319273     -0.22176749399721
  O   2.92297308208142     -0.23875404792622      0.48875114583863
  O   1.82743820916271     -0.89050617633450     -1.30450355009131
  N   -1.62231619569372      0.75409860622386      0.62217546295056
  O   -2.74782129714081      0.48125176226495      0.22174201635980
  O   -1.32306114225690      1.56549489089710      1.48681855717761
  C   -0.90276413477911     -0.99273988738093     -0.95305238705580
  N   -1.27729348763600     -1.82671429850651     -1.69541626470992
