11
Coordinates from ORCA-job run
  C   0.75985883869086      0.37429559581905      0.25644306609181
  C   -0.50215979304094     -0.01368321770730      0.01994569818317
  H   0.99818186167137      1.27488259083404      0.80645367204561
  N   1.91130555447021     -0.34290161340578     -0.27007864931551
  O   1.78544991956665     -1.52957315417539     -0.56102154047827
  O   2.93146254675448      0.33902060966723     -0.37286217705510
  N   -1.59651900164977      0.83243504020030      0.58955900900249
  O   -2.73785050572225      0.44080808485202      0.37695592272382
  O   -1.26216097161338      1.82843993116973      1.21485368609969
  C   -0.93932592219483     -1.14463646649317     -0.71980387917103
  N   -1.34724252693241     -2.06008740076074     -1.33844480812668
