11
Coordinates from ORCA-job run
  C   0.76454952893877      0.35497860227465      0.30274471449449
  C   -0.50619461977828      0.03504185503238      0.03643672658839
  H   1.05441849725889      1.13926689555939      0.99056529131673
  N   1.85423914612201     -0.36725923469107     -0.34612496972308
  O   2.29495346492783     -1.33436578790461      0.26480616463764
  O   2.24173339012332      0.08939858462419     -1.41584849565462
  N   -1.58963243532055      0.79204748523400      0.71476889822819
  O   -2.73392318059790      0.47120325483921      0.41521116267547
  O   -1.24716313000919      1.66061960178826      1.50450706078473
  C   -0.91531599923961     -0.99064031786957     -0.85994105821742
  N   -1.21766466242531     -1.84929093888683     -1.60612549513051
