11
Coordinates from ORCA-job run
  C   0.73095341094814      0.09021016810316      0.49003091793214
  C   -0.48272465933826      0.11505660373705     -0.08038659297407
  H   0.93324558686870      0.55320559300847      1.44667014169061
  N   1.85643306520633     -0.62407661327860     -0.09350631237981
  O   2.73232176065876     -0.93905696136823      0.71262312874668
  O   1.85016248067357     -0.84998977978459     -1.30082106865130
  N   -1.56148410292408      0.86102513527069      0.63930233172512
  O   -2.63904823651856      0.92883866442824      0.06016876473950
  O   -1.27709455454624      1.33854939918672      1.72836975739220
  C   -0.88185265457250     -0.48816391863246     -1.30265359408327
  N   -1.26191209645586     -0.98659829067044     -2.29979747413780
