11
Coordinates from ORCA-job run
  C   0.75756184960842      0.27702193654054      0.36326614658284
  C   -0.50027131968874      0.03559145205426     -0.03515333977308
  H   0.98964134109400      0.94475563997631      1.18216122778590
  N   1.90788503086201     -0.39283404343060     -0.22451577946647
  O   1.80589042775128     -0.85551175710223     -1.35770479302054
  O   2.90223677584193     -0.42703244515774      0.50093103076528
  N   -1.59459706015960      0.76961801323211      0.67265584651742
  O   -2.72607709559429      0.58381035459143      0.24090179620953
  O   -1.26965528210470      1.48890868606773      1.60649133597178
  C   -0.93338848480751     -0.84633576377832     -1.06075442742615
  N   -1.34022618280280     -1.57899207299350     -1.88827904414650
