11
Coordinates from ORCA-job run
  C   0.81352539766113      0.02785513991467     -0.55153801932070
  C   -0.50685249347467      0.15174854823709     -0.35967354469128
  H   1.28236639361850      0.15380597873578     -1.51932158237150
  N   1.72920611334276     -0.34174705972534      0.51959214949948
  O   2.69157878416904     -1.01870937338972      0.16396229397149
  O   1.47943154237273      0.05513696337885      1.65439392099231
  N   -1.15637533238773     -0.06679106898658      0.95377298304388
  O   -1.72845202899165      0.91113074680814      1.41588391829186
  O   -1.08409689256582     -1.19546879271131      1.41763196203135
  C   -1.39609794336743      0.51737244288397     -1.40736349553366
  N   -2.12423354037687      0.80566647485444     -2.28634058591325
