11
Coordinates from ORCA-job run
  C   0.76387704184863      0.38886849944696      0.21853554852613
  C   -0.50121101221098     -0.01916629937924      0.03953456701052
  H   1.01190577722156      1.30034517587173      0.74589653284264
  N   1.90260315707420     -0.32042818103396     -0.34523843598858
  O   2.90754748943683      0.37370310772735     -0.50142967848659
  O   1.78172113651253     -1.51323037608120     -0.61207128842185
  N   -1.58239420706465      0.81720237696584      0.64778092962948
  O   -1.24055270350149      1.85088722608320      1.20413860822379
  O   -2.72093461289443      0.37885051739876      0.53530992750024
  C   -0.95366846052691     -1.16516753071321     -0.66697455158964
  N   -1.36989360589529     -2.09086451628624     -1.26448215924614
