11
Coordinates from ORCA-job run
  C   0.70239998544620      0.03707395101228      0.53852240618980
  C   -0.48929216447877      0.08643582474873     -0.07459002956797
  H   0.87889914777615      0.48937060877947      1.50523983988505
  N   1.87530700028754     -0.55834065151095     -0.08349350438158
  O   2.94784331721256     -0.10636294509888      0.31725700456142
  O   1.71334589792887     -1.43479050102099     -0.92855002633209
  N   -1.61089167136369      0.74912312410620      0.65951084019559
  O   -2.71147851183327      0.67752451318478      0.12604095770172
  O   -1.33806085909590      1.29194403253696      1.72056240747896
  C   -0.82632074325459     -0.42311267180992     -1.35689972058288
  N   -1.14075139862511     -0.81086528492768     -2.42360017514803
