11
Coordinates from ORCA-job run
  C   0.80244623175055     -0.17002267516753     -0.53801530719352
  C   -0.52176129286549     -0.12774050212413     -0.32838788310987
  H   1.23512164657677     -0.47752449847289     -1.48190925720419
  N   1.78215606394509      0.21393467741177      0.46668413121277
  O   2.94118964185368      0.28895616068238      0.05943238255697
  O   1.38881651520158      0.42322021574997      1.61156556955695
  N   -1.15075047085856      0.30057293588915      0.94225689071771
  O   -1.48694776542940     -0.60650013017446      1.68850473405178
  O   -1.31602396003479      1.50375574774976      1.07610730090610
  C   -1.45094919482963     -0.51403315454648     -1.33344029645144
  N   -2.22329741530981     -0.83461877699752     -2.16279826504327
