11
Coordinates from ORCA-job run
  C   0.76025135029916      0.40367160435889      0.21101720361927
  C   -0.50023297358047     -0.02557158195600      0.05153894880393
  H   1.00288312896951      1.32473259263070      0.72430453686056
  N   1.89928670654994     -0.29809496847980     -0.36179110326950
  O   1.81456740868241     -1.51007370865313     -0.54177456182873
  O   2.86406600379877      0.42291922336197     -0.61565354481916
  N   -1.58906885778358      0.80117554546558      0.65529255531994
  O   -2.72522002975545      0.36038266454555      0.52791634871932
  O   -1.25569773429607      1.83093224555289      1.22385598203178
  C   -0.93620326233784     -1.18532056143572     -0.64300648886436
  N   -1.33363174054639     -2.12475305539092     -1.23169987657305
