11
Coordinates from ORCA-job run
  C   0.74036362908684      0.24444466401977      0.41393420074147
  C   -0.49665111221270      0.04379774056897     -0.06510950350430
  H   0.93628112740909      0.89136605406143      1.25860281064660
  N   1.91229361661350     -0.43612396829439     -0.11580116348900
  O   1.84334243298339     -0.95389104401731     -1.22752095318623
  O   2.89057670930247     -0.42318319936514      0.63252560443163
  N   -1.61208725548024      0.79564275457130      0.59242622622561
  O   -2.71647293914050      0.66621764555361      0.07805758447758
  O   -1.32804043685848      1.47149274850132      1.57085169787567
  C   -0.89323539700792     -0.80104873925236     -1.13549541592976
  N   -1.27737037469546     -1.49971465634719     -2.00247108828927
