11
Coordinates from ORCA-job run
  C   0.84460048325261      0.16399920804448     -0.40903174471195
  C   -0.49393524072842      0.09347685573559     -0.40784609294427
  H   1.39731279913800      0.45580338722308     -1.29477624245204
  N   1.69485205701539     -0.12431299453913      0.74549300837901
  O   2.07415316522463      0.85559780173935      1.37232515482981
  O   2.00171353693453     -1.29641796739419      0.91305126125494
  N   -1.28048209174412     -0.30099400900377      0.78371374699634
  O   -2.47564237317812     -0.49647378059292      0.59492044883874
  O   -0.66860707241990     -0.39807196459112      1.83924523117465
  C   -1.25386731951550      0.38989682911286     -1.57673415146492
  N   -1.84009794397910      0.65749663426575     -2.56136061990029
