11
Coordinates from ORCA-job run
  C   0.70015688260325     -0.10100864750951      0.53674902426008
  C   -0.49799873652640      0.01924586191622     -0.05411541189513
  H   0.82063583574616     -0.10197807618877      1.61192156697640
  N   1.93946453246536     -0.16426590418667     -0.22330451329144
  O   1.90635911620736     -0.58087325402701     -1.37820192910835
  O   2.93220086008848      0.22162029286850      0.39480269560605
  N   -1.69280002718937      0.13808635335702      0.83603814439488
  O   -2.74448373456070      0.42809551988296      0.27886513819793
  O   -1.52125893224312     -0.06594651061574      2.02925090108693
  C   -0.77957470016161      0.07802030760983     -1.44469356434659
  N   -1.06470109642940      0.12900405689316     -2.58631205188076
