11
Coordinates from ORCA-job run
  C   0.84400839390081     -0.02513911173552     -0.49566615970109
  C   -0.48971877464639      0.06790970254326     -0.41741771305211
  H   1.38075909293693     -0.01568846533040     -1.43636275224972
  N   1.69602652983539     -0.16981059312980      0.68096910709357
  O   2.48148999982548     -1.11068339102631      0.62746547269330
  O   1.57999264787063      0.65911397135000      1.57650270275223
  N   -1.21424673938379      0.01357643333778      0.87421805940947
  O   -0.82714364310373     -0.81372638711139      1.68811789614394
  O   -2.14443084408196      0.80317654514651      0.98574948703669
  C   -1.31499136503180      0.23180469265680     -1.56443846263798
  N   -1.99274529812155      0.35946660329907     -2.51813763748832
