11
Coordinates from ORCA-job run
  C   0.71089040248665     -0.65836912710216     -0.17177232431824
  C   -0.54635140274437     -0.20013200846002     -0.25357133625065
  H   1.01194368893036     -1.62091444002036     -0.56625765854548
  N   1.77300764914771      0.07176670231622      0.50438094731402
  O   1.66046275940321      1.28992354646526      0.61215701624075
  O   2.70392493215502     -0.62437433210708      0.90642373997000
  N   -0.98400792413750      1.09689659842535      0.31236366485770
  O   -1.25075859383164      1.95620228932596     -0.51564430540807
  O   -1.07302988208024      1.15524291671171      1.52961257094022
  C   -1.57505891597271     -0.92828471375126     -0.91167810267816
  N   -2.43002271335648     -1.53795743180363     -1.44501421212209
