11
Coordinates from ORCA-job run
  C   0.77990772308335     -0.33111501103612     -0.50198003603641
  C   -0.51517231411612     -0.01026585939910     -0.37527169163167
  H   1.21045070347824     -0.68601249795290     -1.43010886841133
  N   1.73451582461664     -0.18384580526984      0.58762430630725
  O   1.32046309048585     -0.29772098204816      1.73805535394022
  O   2.89154557708585      0.03458491729638      0.23369357546732
  N   -1.10314254167378      0.51348306130733      0.87935650160469
  O   -1.92175722062162     -0.22339623101197      1.41119295047535
  O   -0.74255231523559      1.62839748340637      1.22646077132739
  C   -1.44358422510159     -0.16236789361497     -1.44136949191318
  N   -2.21067430200122     -0.28274118167701     -2.32665337112964
