11
Coordinates from ORCA-job run
  C   0.84437181736331      0.03205770263293     -0.49765937166071
  C   -0.49191852745515      0.06949070838039     -0.41234999030848
  H   1.37988965692277      0.10367912775398     -1.43654446588934
  N   1.70225873538830     -0.14748642259725      0.67035620397066
  O   2.55684159556297     -1.01848171715454      0.54259804124238
  O   1.52754314626945      0.59334762090684      1.63187783264134
  N   -1.21272628914617     -0.06901377871705      0.87438997777165
  O   -2.13584979998435      0.71839724769238      1.04265358786213
  O   -0.83135998507265     -0.95575732683918      1.62658342335783
  C   -1.32813571408297      0.26484077315196     -1.54613491882276
  N   -2.00991463576553      0.40792606478954     -2.49577032016470
