11
Coordinates from ORCA-job run
  C   0.73586897878099      0.20290329684446      0.47512681171338
  C   -0.49205299565762      0.09770976246195     -0.05079803854283
  H   0.95388765307193      0.74723183879085      1.38638513806854
  N   1.86803658976977     -0.46743620694714     -0.15019965083916
  O   2.09973311733910     -0.22069467841111     -1.32973961053919
  O   2.49900765961305     -1.21705236834041      0.58888829178445
  N   -1.62331188606879      0.75128044700936      0.65512043240765
  O   -2.74488423118297      0.37382770343493      0.34191341806312
  O   -1.32532481732545      1.58657651277996      1.50101937608403
  C   -0.83010143313144     -0.62877507352668     -1.22518579666925
  N   -1.13985863520858     -1.22457123409617     -2.19253037153074
