11
Coordinates from ORCA-job run
  C   0.72838036177033      0.38457934522957      0.31702288307759
  C   -0.50111643294356     -0.02382682430929     -0.03127617294427
  H   0.89385131579108      1.17719173084997      1.03453199656958
  N   1.94125543010251     -0.24084740648855     -0.18847984902660
  O   2.95461334427136      0.00991479578281      0.46521771249539
  O   1.86896118216999     -0.94560140645337     -1.19190457611199
  N   -1.65798184415083      0.70351882544309      0.57958836250080
  O   -1.40426481747878      1.51841206755245      1.45522412765610
  O   -2.76226624218338      0.41617131852102      0.13375858811105
  C   -0.85605166980170     -1.06686742855003     -0.92725517496822
  N   -1.20538062754700     -1.93264501757769     -1.64542789735944
