11
Coordinates from ORCA-job run
  C   0.71913719637176     -0.54887315760171     -0.30304452991976
  C   -0.54842539443018     -0.11329262346021     -0.32613261893586
  H   1.07232979275614     -1.31242084856879     -0.98686686094988
  N   1.74957288804076     -0.06183668778268      0.61343925226499
  O   2.34943206384106      0.94560866058649      0.26425883275399
  O   1.95418591855500     -0.76466900970401      1.59361284123031
  N   -1.05780308920956      0.93075808053763      0.59363855758219
  O   -0.32315299638000      1.25682313932355      1.51660161171636
  O   -2.17142332218623      1.37309011856561      0.33630475254693
  C   -1.49585574755885     -0.62685491523797     -1.25824336360979
  N   -2.24698210181271     -1.07837479553959     -2.04354642898189
