11
Coordinates from ORCA-job run
  C   0.80174154768074     -0.24208449324142     -0.51913173426713
  C   -0.51107173625233     -0.01009532320878     -0.38115626480019
  H   1.25865861861653     -0.49415083498809     -1.46803050625411
  N   1.73871805823685     -0.12760127798105      0.58954007804151
  O   1.32529232166251     -0.35970877719722      1.72222059137346
  O   2.88249395011696      0.18818382714555      0.26735669570666
  N   -1.13665833892420      0.37414652322916      0.90556655750730
  O   -1.91322396207488     -0.45055885341251      1.36696451336246
  O   -0.84491733704684      1.47625538374128      1.34590810952073
  C   -1.42288159172189     -0.13020922847135     -1.46542071950411
  N   -2.17715153029346     -0.22417694561557     -2.36481732068658
