11
Coordinates from ORCA-job run
  C   0.71493350808622      0.43865340753883      0.27846902981744
  C   -0.50221771426471     -0.04305922626906     -0.01388184028730
  H   0.86546846609784      1.25657245347372      0.97042641815118
  N   1.93723192999114     -0.14534107346104     -0.25310901183474
  O   2.93885614709076      0.06149387865973      0.43249317766856
  O   1.88127378158833     -0.77665675096315     -1.30512706225232
  N   -1.67587308337928      0.62581097848686      0.62877441611287
  O   -2.77601722794206      0.18920457061228      0.31208943063870
  O   -1.44009514772503      1.54337544930266      1.40164862009212
  C   -0.82429165975199     -1.13069611762868     -0.86867151433789
  N   -1.11926899979121     -2.01935756975215     -1.58311166376861
