11
Coordinates from ORCA-job run
  C   0.66021066114985     -0.26597708644706      0.52721545134174
  C   -0.47142590287433      0.16732689664854     -0.04776573989178
  H   0.72291831507733     -0.50800143123135      1.57976052934663
  N   1.87580037136769     -0.51654139795515     -0.23232410876753
  O   2.64363485278174     -1.32628046380076      0.28787424136063
  O   2.03958687992418      0.07677855102551     -1.29532524576964
  N   -1.66572247272185      0.34263747414506      0.83595208240690
  O   -2.70037852594769      0.67955193198498      0.27297719498333
  O   -1.50829874845849      0.13775541960359      2.03109925085734
  C   -0.68636678621885      0.47664371255859     -1.41717338248025
  N   -0.90995864407959      0.73510639346805     -2.54429027338734
