11
Coordinates from ORCA-job run
  C   0.80108333232663     -0.32628667768321     -0.47079342062549
  C   -0.52241856414017     -0.22327702333979     -0.28400044806573
  H   1.23809062851112     -0.87841339535391     -1.29330917906256
  N   1.77160074072620      0.33581942229088      0.38841259332833
  O   1.43089655777996      0.62319851105700      1.53286929448213
  O   2.86779889423593      0.53956370101563     -0.13070659508930
  N   -1.13518243375250      0.55769469066039      0.81573110725851
  O   -1.09255369941110      1.77386505377373      0.70530747813941
  O   -1.65837758994984     -0.11171699896544      1.69480982763376
  C   -1.46059663503450     -0.87726868368273     -1.12888715384410
  N   -2.23934123129173     -1.41417859977253     -1.83043350415497
