11
Coordinates from ORCA-job run
  C   0.71837978172895      0.06678512251628      0.51354722557083
  C   -0.49874224454206      0.03805353763348     -0.04915627994235
  H   0.89396569636948      0.47252031126972      1.50084779587945
  N   1.91351442207667     -0.38065471458474     -0.18602071567504
  O   2.96073091536300      0.12006163117514      0.22445200575107
  O   1.79321192156841     -1.19587412749403     -1.09677951933570
  N   -1.63958622866477      0.57034555537227      0.75908971501249
  O   -1.39315144992356      0.92544375814450      1.90277715210354
  O   -2.72557191275830      0.60031450592561      0.19256432532082
  C   -0.84558115345550     -0.42626582641998     -1.34579093538332
  N   -1.17716974776234     -0.79072975353825     -2.41553076930181
