11
Coordinates from ORCA-job run
  C   0.81941061579161     -0.30690810503128     -0.45191471781009
  C   -0.50930391144571     -0.25469276333066     -0.28240344032709
  H   1.28867120690924     -0.86534766934998     -1.25230621591173
  N   1.74983026012520      0.42310698068206      0.39662934903010
  O   1.39370827553261      0.70488473391043      1.53772930035383
  O   2.83144756676547      0.68386505128391     -0.12745210571517
  N   -1.16607201761108      0.53505290623708      0.78502895405188
  O   -1.14765081328429      1.74957197090877      0.65087354862594
  O   -1.69475521916457     -0.12811480994835      1.66580536186344
  C   -1.40898352802770     -0.97505553162733     -1.11505054673890
  N   -2.15630243559080     -1.56636276373466     -1.80693948742220
