11
Coordinates from ORCA-job run
  C   0.76375762925502      0.30807759917624      0.31615823733899
  C   -0.50346340476495      0.00729719291412     -0.00590620614723
  H   1.01509570011368      1.12770605779724      0.97612754131196
  N   1.90965802578822     -0.39869519537708     -0.23638296990885
  O   2.98244922561757      0.19362287476771     -0.11197622852100
  O   1.73079905848075     -1.49295133622757     -0.76512247834348
  N   -1.58100255583927      0.83913729688061      0.61733195996695
  O   -1.22796872811113      1.73199891317041      1.37433817139068
  O   -2.72872281865462      0.54172255607782      0.30872342018725
  C   -0.96423748213525     -1.01515812679730     -0.87725314431349
  N   -1.39736464975002     -1.84075783238220     -1.59703830296179
