11
Coordinates from ORCA-job run
  C   0.84095638707709      0.21933575014809     -0.44705043507807
  C   -0.47663376527008     -0.02203588597392     -0.43331438630467
  H   1.37290866591946      0.49891310454876     -1.35019133046089
  N   1.66383644112911      0.16577220999775      0.75869281158902
  O   2.27533343280507      1.20229476913174      0.99483214612301
  O   1.69815254563854     -0.88868707113178      1.38013517129277
  N   -1.21618093941966     -0.33731536941881      0.81010068223310
  O   -2.12495735440581     -1.14936417418408      0.69111302417070
  O   -0.86862728845086      0.25951538834308      1.82103563136934
  C   -1.26534321680707      0.00677746311633     -1.61733119937432
  N   -1.89944490821578      0.04379381542284     -2.60802211556000
