11
Coordinates from ORCA-job run
  C   0.79745515379666      0.11382481829400     -0.53920469864558
  C   -0.51979800686320     -0.05537163027124     -0.37345300999455
  H   1.24860571241602      0.19713663381000     -1.52309686242576
  N   1.73440177183576      0.27618250726261      0.56423285981558
  O   2.60805648802698     -0.58538372071852      0.61037882568612
  O   1.59674370187301      1.25545087623269      1.28687135099001
  N   -1.15006785821678     -0.19669909052107      0.95821879878871
  O   -2.30807556433076      0.19712455731736      1.04251347381420
  O   -0.46447741380906     -0.68688071189554      1.84764718368184
  C   -1.40709058589064     -0.19358685457898     -1.47954438165053
  N   -2.13475339883797     -0.32179738493131     -2.39656354006002
