11
Coordinates from ORCA-job run
  C   0.76015191660420      0.28458572401734      0.34919118278657
  C   -0.50220613014189      0.01707078712621     -0.01772667818249
  H   1.00734344252947      1.08190019875216      1.03725554980007
  N   1.90639808223011     -0.43010051977479     -0.19172337231148
  O   1.72521516365094     -1.52552872167212     -0.71717166159137
  O   2.98123379757683      0.15668202455767     -0.06108956673367
  N   -1.58321780434655      0.85098753826691      0.59609334076165
  O   -2.72582362674411      0.58609568276447      0.24216471568821
  O   -1.23809719808337      1.71242202467407      1.39210859618376
  C   -0.95390464774148     -0.96999785136743     -0.93352969428361
  N   -1.37709299553413     -1.76311688734451     -1.69457241211765
