15

C	0.0	0.0	0.0
C	-0.391426	-0.395401	-1.463849
Cl	1.784468	0.0	0.0
H	0.435469	-0.103702	-2.114233
H	-0.306328	-0.839304	0.62814
N	-0.469428	1.274466	0.438446
H	-0.23504	1.356063	1.423208
H	-1.501206	1.088472	0.365848
N	-1.534162	0.358336	-2.107202
O	-2.407571	-0.270232	-2.68289
O	-1.391399	1.57498	-2.153136
N	-0.631021	-1.808422	-1.611185
H	0.150838	-2.288288	-1.177507
H	-1.468973	-1.994361	-1.06743
F	-2.608173	0.0	0.0
