15

C	0.0	0.0	0.0
C	-0.382773	-0.492801	-1.433986
Cl	1.781881	0.0	0.0
H	0.498684	-0.927516	-1.907684
H	-0.273278	-0.828002	0.661756
N	-0.616606	1.248924	0.310464
H	-1.636095	1.003955	0.232254
H	-0.428634	1.460939	1.285143
N	-0.570397	0.772269	-2.31965
O	0.456139	1.379549	-2.619412
O	-1.698181	1.058396	-2.706975
N	-1.461591	-1.390705	-1.434821
H	-1.721644	-1.614628	-2.386659
H	-2.260623	-0.933897	-0.912151
F	-2.980239	0.0	0.0
