15

C	0.0	0.0	0.0
C	-0.22899	-0.119454	-1.546046
Cl	1.847756	0.0	0.0
H	0.370875	-0.959142	-1.903577
H	-0.295712	-0.962672	0.419026
N	-0.622664	1.034767	0.725915
H	-0.523292	1.896814	0.20323
H	-1.629716	0.760644	0.696326
N	0.467211	1.060799	-2.253744
O	1.13992	0.799701	-3.250504
O	0.24364	2.201499	-1.850304
N	-1.558411	-0.146744	-2.011372
H	-2.270425	-0.038999	-1.224497
H	-1.726554	-0.994717	-2.53163
F	-3.039014	0.0	0.0
