15

C	0.0	0.0	0.0
C	-0.54519	-0.21527	-1.404788
Cl	1.777583	0.0	0.0
H	-1.629783	-0.358699	-1.200908
H	-0.282535	-0.871603	0.589597
N	-0.563783	1.238472	0.468993
H	-0.3217	1.3428	1.448666
H	-1.590364	0.994884	0.407702
N	-0.058272	-1.509045	-1.989413
O	0.098804	-2.462301	-1.224691
O	0.045796	-1.577823	-3.213663
N	-0.203941	0.877768	-2.274502
H	-0.943062	1.002057	-2.95301
H	-0.189798	1.697105	-1.674036
F	-2.830537	0.0	0.0
