15

C	0.0	0.0	0.0
C	-0.514328	-0.261785	-1.417804
Cl	1.833043	0.0	0.0
H	-1.591447	-0.431883	-1.227254
H	-0.246406	-0.872657	0.608348
N	-0.558712	1.233471	0.446628
H	-1.589215	0.978442	0.379533
H	-0.335238	1.333216	1.432161
N	0.091472	-1.536792	-1.909146
O	-0.146926	-2.544614	-1.242561
O	0.804604	-1.518748	-2.909709
N	-0.316509	0.786072	-2.371188
H	-0.895381	1.5528	-2.04998
H	0.647506	1.10078	-2.328608
F	-2.803904	0.0	0.0
