15

C	0.0	0.0	0.0
C	-0.376696	-0.663231	-1.39971
Cl	1.803283	0.0	0.0
H	0.515825	-1.151404	-1.795626
H	-0.302687	-0.737885	0.743506
N	-0.584641	1.243668	0.34822
H	-0.387086	1.920778	-0.380931
H	-1.605482	1.004601	0.337427
N	-0.607093	0.476045	-2.371531
O	0.363183	1.215353	-2.568931
O	-1.712856	0.631946	-2.871
N	-1.489568	-1.543177	-1.442963
H	-2.251475	-1.063494	-0.897208
H	-1.223061	-2.404378	-0.981469
F	-2.903554	0.0	0.0
