15

C	-0.385605	-0.088877	-1.492266
C	0.0	0.0	0.0
Cl	-0.198007	-1.789838	-2.06617
H	1.095212	0.0	0.0
H	-1.443995	0.14395	-1.636741
N	0.407057	0.770183	-2.326404
H	1.384239	0.677799	-2.048488
H	0.120684	1.728387	-2.171741
C	-0.55683	-1.081167	0.919963
H	-0.101663	-2.039909	0.675486
H	-1.644257	-1.166354	0.822685
H	-0.31298	-0.842974	1.957742
C	-0.447932	1.320442	0.441775
N	-0.871524	2.358112	0.794376
Cl	3.348635	0.0	0.0
