15

C	-0.393065	0.106778	-1.489563
C	0.0	0.0	0.0
Cl	-0.198086	-1.499678	-2.280166
H	1.096883	0.0	0.0
H	-1.454647	0.350367	-1.593462
N	0.389217	1.073947	-2.213492
H	0.11782	2.002841	-1.909863
H	1.369472	0.938378	-1.96902
C	-0.54921	-1.195581	0.772452
H	-0.314576	-1.08874	1.833251
H	-0.079644	-2.108812	0.411185
H	-1.634283	-1.282573	0.658489
C	-0.450122	1.252392	0.608667
N	-0.86869	2.256297	1.054652
Cl	3.342049	0.0	0.0
