15

C	-0.405115	-0.015026	-1.46856
C	0.0	0.0	0.0
Cl	-2.257331	0.320845	-1.605678
H	1.096448	0.0	0.0
H	0.031006	0.841272	-1.980393
N	-0.033469	-1.206533	-2.112542
H	-0.184417	-1.160296	-3.109848
H	-0.50485	-2.013988	-1.730373
C	-0.475805	-1.222069	0.784857
H	-0.190026	-1.112817	1.831812
H	-1.560326	-1.34615	0.725914
H	0.027782	-2.114593	0.408755
C	-0.444654	1.234395	0.642726
N	-0.787742	2.221789	1.178048
Cl	3.352856	0.0	0.0
