15

C	-0.277048	-0.022091	-1.511324
C	0.0	0.0	0.0
Cl	-2.040372	-0.228367	-1.84801
H	1.098423	0.0	0.0
H	-0.01307	0.954174	-1.922026
N	0.46304	-1.023323	-2.236189
H	1.453054	-0.847917	-2.054543
H	0.249206	-1.939781	-1.859751
C	-0.47656	-1.231233	0.765311
H	-0.106989	-1.181901	1.790916
H	-0.06	-2.135067	0.316374
H	-1.565502	-1.305546	0.779356
C	-0.508479	1.223092	0.605957
N	-0.944651	2.201777	1.087986
Cl	3.332403	0.0	0.0
