12
Coordinates from ORCA-job run
  C   0.38754361214963      0.10537150998218     -0.70081417751048
  C   -0.45522451181359     -0.06666572553889      0.54699746230495
  F   0.09607229912431      1.27851019024589     -1.31290738824765
  H   -0.06802378937647     -0.92000275541000      1.11126818736570
  H   0.27464730717956     -0.71867527768395     -1.40354687888163
  H   -0.30443923152776      0.83269972671521      1.15344222487140
  N   1.83882500603253      0.12535840251232     -0.29408042330858
  O   2.36126087946816     -0.98075802521053     -0.17933419934665
  O   2.35218128110573      1.20979581551068     -0.05041029616906
  N   -1.84396988043420     -0.24417602275551      0.15093195004415
  H   -2.21201153598203     -1.12266394629551      0.48270062494251
  H   -2.42786143592588      0.50120610792811      0.49675291393534
