12
Coordinates from ORCA-job run
  C   0.46050559999771     -0.21454282858903     -0.58545695125725
  C   -0.48659007522039      0.05380832289460      0.55919607012781
  F   -0.03799267317004      0.30480919424187     -1.73765050595255
  H   -0.04055911266759     -0.35276826391158      1.46783406838972
  H   0.66490616807595     -1.27629612817884     -0.72039994207945
  H   -0.57190008830636      1.14491373408842      0.67277520039465
  N   1.78476431787636      0.44706783951395     -0.29230419120510
  O   2.42250738281438     -0.08080487589247      0.61447125005264
  O   2.09851428076320      1.44087251048892     -0.93177103599946
  N   -1.73346047076953     -0.63965060070027      0.27525572253763
  H   -2.25491159900395     -0.13816636837053     -0.43150465367394
  H   -2.30478373038972     -0.68924253558503      1.10755496866529
