12
Coordinates from ORCA-job run
  C   0.70694397280157     -0.58133727553708     -0.24693218442108
  C   -0.78593280138230     -0.44541406272541     -0.07645463314895
  F   0.99215488137357     -1.37648520882013     -1.31927554668303
  H   -1.17174537845325     -0.04900026950502     -1.01686928035437
  H   1.23069775277981     -0.95487221167165      0.63276176591629
  H   -1.20340201056496     -1.45073508255969      0.06274646347357
  N   1.29024697534430      0.77936634032709     -0.52187499999469
  O   0.86856151987581      1.35787720730786     -1.51736182675116
  O   2.13595598023504      1.19290728269818      0.26445547310783
  N   -1.04317313898569      0.49327203943486      1.00428454422438
  H   -1.12706477747870      0.02058704779604      1.89330278309003
  H   -1.89324297554521      1.01183419325497      0.84121744154117
