12
Coordinates from ORCA-job run
  C   0.64108741046319     -0.54438234943774     -0.37108132990021
  C   -0.83291357541757     -0.53744809332244      0.01914259309919
  F   0.81952562497137     -1.28722292623306     -1.49471590727186
  H   -1.38822638263917     -0.16484835545895     -0.84608578828241
  H   1.30899891523807     -0.89618136429984      0.41586599995325
  H   -1.12147296549836     -1.58197240149823      0.16373703607881
  N   1.06173604119366      0.86958852694387     -0.66422232273097
  O   0.84765395307625      1.30141179535281     -1.78965219695009
  O   1.52331727639850      1.49379919679975      0.28996938721117
  N   -1.18628918565354      0.22925106295855      1.19285538385463
  H   -0.68756637852048     -0.09476765669395      2.01066456053317
  H   -0.98585073361195      1.21277256488925      1.07352258440533
