14

C	0.0	0.0	0.0
C	-0.510586	-0.047351	-1.4308
Cl	1.767132	0.0	0.0
H	-1.629853	-0.118812	-1.235762
H	-0.214047	0.852488	-1.958366
N	-0.430575	1.340734	0.61747
O	-0.488854	2.297646	-0.139749
O	-0.571151	1.36521	1.827998
C	-0.460286	-1.071575	0.878533
N	-0.610522	-1.956279	1.637243
N	0.005177	-1.195277	-2.185253
O	0.189783	-2.260445	-1.597138
O	0.165796	-1.02989	-3.396956
F	-2.514833	0.0	0.0
