14

C	0.0	0.0	0.0
C	-0.218813	0.133014	-1.519597
Cl	1.786412	0.0	0.0
H	0.213478	1.085954	-1.816122
H	0.325999	-0.688369	-1.984864
N	-0.410714	1.227034	0.781322
O	-0.457111	2.280772	0.163297
O	-0.524717	1.084581	1.988747
C	-0.496857	-1.219879	0.609665
N	-0.582117	-2.294651	1.081828
N	-1.569886	0.085301	-2.147837
O	-2.086088	1.158263	-2.439319
O	-1.968618	-1.021509	-2.496205
F	-2.208858	0.0	0.0
