14

C	0.0	0.0	0.0
C	-0.536732	0.131573	-1.418579
Cl	1.784829	0.0	0.0
H	-1.600687	0.442304	-1.22073
H	-0.559387	-0.849259	-1.887102
N	-0.433222	1.157809	0.91144
O	-0.821858	2.185382	0.39069
O	-0.273962	0.954485	2.108532
C	-0.463756	-1.246584	0.601594
N	-0.61229	-2.321964	1.053641
N	0.210972	1.014019	-2.335571
O	0.16953	0.693988	-3.527637
O	0.763073	2.023631	-1.906601
F	-2.501327	0.0	0.0
