14

C	0.0	0.0	0.0
C	-0.250217	-0.099499	-1.510908
Cl	1.79567	0.0	0.0
H	-0.059887	0.886192	-1.930435
H	0.453943	-0.8274	-1.915605
N	-0.417769	1.324211	0.600626
O	-0.517536	1.353474	1.818279
O	-0.467753	2.286318	-0.153817
C	-0.466537	-1.118537	0.799414
N	-0.555819	-2.094413	1.451977
N	-1.561934	-0.562696	-2.050741
O	-1.784645	-1.765951	-1.974702
O	-2.206243	0.245281	-2.715504
F	-2.217656	0.0	0.0
