17

C	-0.449875	-0.008019	-1.424931
C	0.0	0.0	0.0
Cl	0.344574	1.243959	-2.363529
H	1.094197	0.0	0.0
N	-0.173295	-1.334274	-2.134577
O	0.534253	-2.145165	-1.553388
O	-0.650596	-1.438315	-3.259485
N	-1.972095	0.157577	-1.526942
O	-2.615893	-0.86323	-1.291112
O	-2.427065	1.281224	-1.704348
C	-0.495955	-1.139474	0.745759
N	-0.853061	-2.013642	1.44826
C	-0.371417	1.294373	0.728246
H	-1.448397	1.408893	0.879277
H	0.128244	1.272432	1.699263
H	0.01281	2.154417	0.179639
H	2.510929	0.0	0.0
