17

C	-0.419356	0.008534	-1.437555
C	0.0	0.0	0.0
Cl	0.158047	-1.405465	-2.282972
H	1.096525	0.0	0.0
N	-1.944863	0.098039	-1.70635
O	-2.693863	-0.012137	-0.744218
O	-2.275495	0.25298	-2.874819
N	0.110554	1.282854	-2.10537
O	-0.552696	2.287221	-1.858495
O	1.143945	1.220921	-2.747921
C	-0.442036	-1.220637	0.6428
N	-0.742176	-2.200378	1.22035
C	-0.340685	1.235405	0.833036
H	0.22126	2.092945	0.462394
H	0.01425	1.037517	1.847045
H	-1.404763	1.467408	0.857939
H	2.540208	0.0	0.0
