17

C	-0.477965	0.040383	-1.415326
C	0.0	0.0	0.0
Cl	-2.236115	0.309666	-1.633883
H	1.093823	0.0	0.0
N	0.230992	1.10063	-2.244469
O	0.971628	1.881299	-1.657809
O	0.020843	1.049284	-3.453705
N	-0.077939	-1.278306	-2.100005
O	1.101422	-1.328079	-2.425397
O	-0.914039	-2.165579	-2.182007
C	-0.4719	-1.225898	0.61999
N	-0.835007	-2.196723	1.177565
C	-0.413386	1.195137	0.860322
H	-0.115496	2.125241	0.381767
H	-1.486659	1.203642	1.063588
H	0.134658	1.116823	1.802764
H	2.537478	0.0	0.0
