17

C	-0.446736	-0.012076	-1.424667
C	0.0	0.0	0.0
Cl	-2.196002	-0.252789	-1.701386
H	1.093985	0.0	0.0
N	-0.008575	1.314383	-2.05838
O	-0.843568	2.20054	-2.191633
O	1.195385	1.386257	-2.273084
N	0.280273	-1.073335	-2.236071
O	0.944988	-1.892524	-1.613952
O	0.152639	-0.989377	-3.454553
C	-0.458635	-1.195421	0.679669
N	-0.853033	-2.123903	1.284607
C	-0.431076	1.256841	0.752647
H	0.080531	2.129371	0.340432
H	-1.511828	1.415924	0.725236
H	-0.10732	1.153885	1.790313
H	2.546277	0.0	0.0
