17

C	-0.45807	-0.031593	-1.420842
C	0.0	0.0	0.0
Cl	0.325237	1.210552	-2.381873
H	1.094203	0.0	0.0
N	-0.182384	-1.368453	-2.111348
O	0.519877	-2.173304	-1.516729
O	-0.65392	-1.486253	-3.236718
N	-1.981559	0.128649	-1.514412
O	-2.439919	1.254375	-1.679855
O	-2.621357	-0.895142	-1.279523
C	-0.498629	-1.124127	0.767451
N	-0.865669	-1.980206	1.488157
C	-0.362142	1.307613	0.710076
H	-1.438775	1.435022	0.859039
H	0.137489	1.294073	1.681336
H	0.032593	2.15633	0.1499
H	2.508964	0.0	0.0
