17

C	-0.453201	-0.00431	-1.423102
C	0.0	0.0	0.0
Cl	0.340285	1.247927	-2.361629
H	1.094206	0.0	0.0
N	-0.182707	-1.330036	-2.135704
O	0.525527	-2.143394	-1.559079
O	-0.662557	-1.430712	-3.259269
N	-1.976594	0.163078	-1.520918
O	-2.431361	1.289322	-1.694937
O	-2.619357	-0.858158	-1.281017
C	-0.495733	-1.139398	0.745441
N	-0.849389	-2.016619	1.445663
C	-0.368944	1.293853	0.730823
H	0.015222	2.15434	0.182794
H	-1.445405	1.409177	0.883582
H	0.132776	1.269626	1.700527
H	2.508353	0.0	0.0
