17

C	-0.416911	-0.007427	-1.440466
C	0.0	0.0	0.0
Cl	0.395866	1.253638	-2.351731
H	1.094189	0.0	0.0
N	-0.101914	-1.321716	-2.143764
O	0.777561	-2.012367	-1.644756
O	-0.707171	-1.526644	-3.192722
N	-1.939185	0.148661	-1.58032
O	-2.577534	-0.824068	-1.186796
O	-2.400175	1.223157	-1.944703
C	-0.43795	-1.197133	0.696827
N	-0.767074	-2.118464	1.350047
C	-0.506465	1.24322	0.727126
H	-0.19318	2.146751	0.203237
H	-1.597019	1.243471	0.826056
H	-0.063692	1.258678	1.724747
H	2.55696	0.0	0.0
