15

C	-0.338145	0.012472	-1.480252
C	0.0	0.0	0.0
Br	0.271724	-1.655717	-2.339867
H	1.088569	0.0	0.0
H	-0.321822	0.947016	0.446062
C	-1.758383	0.161582	-1.790712
N	-2.891225	0.385448	-2.016941
C	0.506015	1.147278	-2.072312
H	1.524903	0.991922	-1.69918
H	0.128119	2.106059	-1.702988
H	0.465158	1.140002	-3.162921
N	-0.649824	-1.053914	0.798682
O	-1.46782	-1.807446	0.262237
O	-0.337106	-1.097387	1.989126
F	2.575054	0.0	0.0
