13
Coordinates from ORCA-job run
  C   0.86849568011973      0.00805386365658     -0.40039796200269
  C   -0.26249713134826     -0.58996024839286      0.47450857917006
  Cl  2.36879563429909     -0.85382973577855      0.06503449704156
  H   -0.25245682860038     -1.67649226952425      0.36630342760520
  C   1.06183375706947      1.43891155065132     -0.17193947860880
  N   1.27478260011062      2.57883225720559      0.02203101312424
  C   0.57541682259172     -0.26224355017263     -1.80869464757239
  N   0.31549568282047     -0.50635105608015     -2.92913790109549
  N   -1.61516461283869     -0.12918445077552     -0.04187519275994
  O   -2.46492932324477     -1.00129637747870     -0.15818478896340
  O   -1.72328687324005      1.06664346703361     -0.28075935276518
  C   -0.12672159580164     -0.19493414872484      1.86833286597811
  N   -0.02076381193730      0.12285069838040      2.99477894084872
