13
Coordinates from ORCA-job run
  C   0.53799660878029      0.38272542485368     -0.56803800927567
  C   -0.25300669024163     -0.30935887956879      0.57800698535224
  Cl  -0.37447216088368      1.79211978083402     -1.16602599846836
  H   0.28734202902896     -1.21383972074123      0.87344907505506
  C   0.78928702217758     -0.54587326227983     -1.67273944305263
  N   1.03503615215571     -1.26776985470942     -2.56774596382704
  C   1.81977749924965      0.82666473471891     -0.01395354292517
  N   2.84725790836980      1.16392485354998      0.44814685612671
  N   -1.59555033712544     -0.78522279848634      0.04774686678366
  O   -2.58382316568339     -0.12190546933029      0.32649328599009
  O   -1.53781971101675     -1.80259169430536     -0.63287136031222
  C   -0.43110802746348      0.58692933857330      1.70830018915360
  N   -0.54091712734762      1.29519754689137      2.63923105939972
