13
Coordinates from ORCA-job run
  C   0.62237772794621      0.33200972883210     -0.51401268086863
  C   -0.33117071421011     -0.28627663553555      0.54712394820721
  Cl  -0.08375771399263      1.83646673316129     -1.15795055181294
  H   0.08547313471606     -1.24578929238618      0.86803639353489
  C   0.86892009517303     -0.60638703272094     -1.61155134947579
  N   1.10915488866407     -1.34522450936382     -2.49403115203153
  C   1.89103830999400      0.63232802019820      0.15479555377809
  N   2.90348915511431      0.85465605687962      0.71029259616118
  N   -1.66565789594152     -0.61319858602135     -0.10278828093576
  O   -2.59924011601763      0.14874330547672      0.10266859760386
  O   -1.65682412845607     -1.62523412793814     -0.79368624653170
  C   -0.51278126330203      0.60919876790977      1.67744376851288
  N   -0.63202147968769      1.30770757150827      2.61465940385825
