13
Coordinates from ORCA-job run
  C   0.48666642802390      0.15943406180615     -0.76241205025958
  C   -0.45879324841918     -0.55825302367709      0.23591048054665
  Cl  -0.36732127043168      0.32150838812170     -2.32220543335187
  H   -0.70497763310990     -1.54371079358102     -0.16547357185641
  C   1.66112672672087     -0.69763425466792     -0.94246617219194
  N   2.58640639023922     -1.41193340038025     -1.07105383011608
  C   0.91278770091599      1.47706688755542     -0.28872000035473
  N   1.31666427867060      2.52289509187006      0.06595992021331
  N   -1.77090782556300      0.19457906345521      0.33880107497769
  O   -2.76768536007590     -0.42226826131605     -0.01285846851028
  O   -1.70183435508329      1.34198876831378      0.75784537104708
  C   0.15230935622537     -0.64923473894558      1.55340832645704
  N   0.65555881188701     -0.73243778855441      2.61226435339914
