13
Coordinates from ORCA-job run
  C   0.87071951078723      0.03095635874932     -0.41004272024403
  C   -0.27147361620834     -0.59295969105120      0.42518235835410
  Cl  2.37506519708570     -0.79202735838438      0.11494255772572
  H   -0.29499457086071     -1.67121578395551      0.24224108219783
  C   1.00289651146935      1.46453077729038     -0.15746533822879
  N   1.14384132241328      2.60802235922600      0.07541738623942
  C   0.66034820596998     -0.24935313010209     -1.83079018736019
  N   0.50714416437603     -0.52916537739808     -2.96225010581743
  N   -1.63566959342743     -0.07015510919335     -0.01417222404699
  O   -1.65188313302254      0.87274939381235     -0.79483430741800
  O   -2.58709850541651     -0.66090138339955      0.47237395731770
  C   -0.11871390344652     -0.31936523537695      1.84701041745398
  N   0.00181841028049     -0.09111582021695      2.99338712382669
