13
Coordinates from ORCA-job run
  C   0.48300664295460      0.18810800152796     -0.75886446606689
  C   -0.47590905350776     -0.55492708668356      0.20771411538018
  Cl  -0.38254741686002      0.47404161017196     -2.29405443263630
  H   -0.76266316973020     -1.50455631789619     -0.24938891050925
  C   1.62387563951973     -0.69731632382305     -1.00552619255201
  N   2.52106900790608     -1.43526126360247     -1.18813409556406
  C   0.96130734893369      1.45872354090753     -0.21221302274463
  N   1.40476756987637      2.46636968806407      0.20084895749790
  N   -1.75808430060182      0.23667902249484      0.37547392223607
  O   -2.78091955762404     -0.32016078532379     -0.00080632321149
  O   -1.64205483607426      1.35202146069078      0.86519238419415
  C   0.14739532893922     -0.74851111910301      1.50834129883325
  N   0.66075679626841     -0.91521042742505      2.55241676514310
