13
Coordinates from ORCA-job run
  C   0.85494868443899     -0.05988402622660     -0.42496695428790
  C   -0.34402676850317     -0.60618161414009      0.39044575688355
  Cl  2.20871870150147     -1.19977177415630     -0.14733249265514
  H   -0.50639091726637     -1.65077727239422      0.11689957707799
  C   1.27087103798117      1.27383621837187      0.00524194558981
  N   1.66078007907841      2.32592519642205      0.35664784597030
  C   0.50548549317113     -0.06640433644594     -1.84652135643120
  N   0.20070263979330     -0.10682804555395     -2.98132101176677
  N   -1.61336679342616      0.13162587675374     -0.00122394827629
  O   -1.53854484168007      1.35306289155739     -0.03510937184540
  O   -2.58513010671401     -0.57166692668150     -0.24035696296291
  C   -0.13338930093710     -0.46318741544365      1.82292237726155
  N   0.01934209256242     -0.36074877206280      2.98367459544241
