15

C	0.0	0.0	0.0
C	-0.550469	0.298845	-1.395181
Cl	1.792957	0.0	0.0
H	0.035268	-0.295356	-2.103554
H	-1.587981	-0.054265	-1.389426
C	-0.387605	1.047373	0.951759
N	-0.630694	1.897774	1.724352
C	-0.485674	-1.360994	0.480204
H	-0.062436	-1.596916	1.458372
H	-0.171654	-2.125516	-0.235961
H	-1.577381	-1.329368	0.53581
N	-0.428996	1.71656	-1.723758
H	-1.227983	2.185144	-1.306515
H	-0.526976	1.825624	-2.726013
Br	-3.89909	0.0	0.0
