15

C	0.0	0.0	0.0
C	-0.538245	0.279692	-1.404485
Cl	1.792916	0.0	0.0
H	0.056782	-0.323371	-2.097305
H	-1.574368	-0.07697	-1.404879
C	-0.392237	1.055227	0.939711
N	-0.638103	1.911477	1.704876
C	-0.4776	-1.361539	0.486815
H	-0.054199	-1.590492	1.46626
H	-0.153776	-2.125988	-0.22522
H	-1.569465	-1.340308	0.539894
N	-0.419328	1.692223	-1.751757
H	-0.441917	1.785488	-2.759573
H	-1.249529	2.157692	-1.397088
Br	-3.863552	0.0	0.0
