15

C	0.0	0.0	0.0
C	-0.540105	-0.399815	-1.373742
Cl	1.804833	0.0	0.0
H	-1.627689	-0.2913	-1.282811
H	-0.176934	0.322793	-2.115032
C	-0.362964	1.397385	0.269001
N	-0.577641	2.530696	0.49051
C	-0.504983	-0.916117	1.099542
H	-0.10445	-0.608817	2.067021
H	-1.597657	-0.849738	1.105881
H	-0.195466	-1.934411	0.867694
N	-0.199137	-1.781303	-1.685094
H	-0.981197	-2.223038	-2.148616
H	0.607538	-1.824019	-2.29264
Br	-3.976209	0.0	0.0
