15

C	0.0	0.0	0.0
C	-0.550305	0.323135	-1.390028
Cl	1.793021	0.0	0.0
H	0.04749	-0.240927	-2.111568
H	-1.582578	-0.04554	-1.398624
C	-0.385176	1.028472	0.973195
N	-0.626501	1.863592	1.762665
C	-0.482761	-1.3704	0.455699
H	-0.058474	-1.622698	1.42938
H	-1.574921	-1.341929	0.513355
H	-0.166264	-2.121523	-0.273216
N	-0.451203	1.749811	-1.68397
H	-0.560677	1.879755	-2.682604
H	-1.251224	2.197908	-1.246838
Br	-3.894049	0.0	0.0
