18

C	0.0	0.0	0.0
C	-0.263352	-0.112517	-1.573793
Br	1.911394	0.0	0.0
H	0.526599	-0.807043	-1.873267
N	-0.427004	1.266377	0.734231
O	-0.87961	2.203893	0.096372
O	-0.168089	1.289696	1.931991
N	-0.455545	-1.258464	0.728246
O	-0.863901	-1.215262	1.870925
O	-0.264871	-2.282122	0.074178
N	0.108548	1.178835	-2.169301
H	-0.649232	1.823747	-1.980853
H	0.147112	1.032245	-3.171606
C	-1.539419	-0.676995	-2.186881
H	-1.299206	-0.841505	-3.251084
H	-1.841816	-1.619816	-1.736138
H	-2.359774	0.021424	-2.082791
F	-2.319712	0.0	0.0
