18

C	0.0	0.0	0.0
C	-0.3635	-0.19761	-1.490024
Cl	1.856041	0.0	0.0
H	0.227661	-1.045775	-1.852457
N	-0.516444	1.223258	0.472212
H	-0.132027	2.02864	-0.003002
H	-0.431868	1.325109	1.4733
C	-0.487508	-1.146582	0.85893
H	-0.16196	-2.104391	0.449617
H	-0.083977	-1.049916	1.870112
H	-1.578892	-1.106102	0.901982
C	0.073647	0.9765	-2.252105
N	0.391106	1.927864	-2.863422
C	-1.855662	-0.455642	-1.716722
H	-2.075081	-0.433262	-2.787022
H	-2.488751	0.271444	-1.210003
H	-2.140859	-1.435505	-1.335238
Br	-4.958393	0.0	0.0
