18

C	0.0	0.0	0.0
C	-0.50416	-0.205565	-1.44364
Cl	1.795868	0.0	0.0
H	-1.601789	-0.247741	-1.344006
N	-0.471603	1.293531	0.439641
H	-0.200172	1.421983	1.409526
H	-1.495416	1.24535	0.416887
C	-0.440659	-1.153144	0.893134
H	-0.034621	-2.108053	0.553522
H	-1.533909	-1.182838	0.881625
H	-0.095221	-0.971244	1.914904
C	-0.05569	-1.491266	-1.975412
N	0.310272	-2.505586	-2.44258
C	-0.128095	0.924784	-2.401992
H	-0.604501	0.758577	-3.37184
H	-0.473595	1.872202	-1.989476
H	0.954068	0.972324	-2.541836
Br	-3.834357	0.0	0.0
