18

C	0.0	0.0	0.0
C	-0.367472	-0.264504	-1.478131
Cl	1.856138	0.0	0.0
H	0.209004	-1.139957	-1.797907
N	-0.516557	1.242215	0.416947
H	-0.406551	1.403488	1.40797
H	-0.153227	2.022555	-0.113654
C	-0.480177	-1.106719	0.914391
H	-1.570824	-1.063607	0.96986
H	-0.161879	-2.082259	0.543363
H	-0.064242	-0.968033	1.915448
C	0.088123	0.86324	-2.298091
N	0.410331	1.778574	-2.960648
C	-1.864334	-0.503861	-1.690836
H	-2.478813	0.281388	-1.252344
H	-2.078925	-0.570742	-2.760211
H	-2.180209	-1.436521	-1.224622
Br	-4.968306	0.0	0.0
