18

C	0.0	0.0	0.0
C	-0.491822	-0.115084	-1.468204
Cl	1.799414	0.0	0.0
H	-1.58272	-0.24123	-1.370415
N	-0.470783	1.180218	0.675025
H	-1.4894	1.097355	0.729505
H	-0.247189	2.008789	0.136809
C	-0.444126	-1.218017	0.793667
H	-0.02986	-2.133258	0.36769
H	-0.096125	-1.108397	1.821891
H	-1.53611	-1.263219	0.780687
C	0.047383	-1.305624	-2.122449
N	0.481034	-2.24471	-2.680415
C	-0.222373	1.122389	-2.326944
H	-0.80716	1.963989	-1.953806
H	0.838929	1.380679	-2.327113
H	-0.53693	0.936961	-3.355656
Br	-3.829094	0.0	0.0
