18

C	0.0	0.0	0.0
C	-0.211226	-0.050555	-1.556368
Cl	1.85719	0.0	0.0
H	0.535264	0.647792	-1.95753
N	-0.526286	1.188997	0.499539
H	-0.662919	1.247689	1.493185
H	-0.212597	2.042329	0.067437
C	-0.554306	-1.183475	0.749859
H	-0.111404	-2.118767	0.41001
H	-0.345373	-1.073826	1.817378
H	-1.639685	-1.175414	0.591442
C	-1.461986	0.481591	-2.114712
N	-2.228401	0.959196	-2.866879
C	0.066926	-1.424466	-2.17159
H	1.025638	-1.813152	-1.826855
H	-0.728922	-2.125509	-1.916813
H	0.099158	-1.331974	-3.260846
Br	-4.235367	0.0	0.0
