21

C	-0.313887	-0.069262	-1.508843
C	0.0	0.0	0.0
Br	-0.093702	1.754689	-2.319285
H	1.09717	0.0	0.0
C	0.75673	-0.931593	-2.174523
H	0.572261	-1.981986	-1.921416
H	0.734108	-0.83405	-3.263218
H	1.726558	-0.644434	-1.747247
C	-1.731409	-0.491571	-1.869203
H	-2.474447	0.149281	-1.387456
H	-1.889857	-0.448945	-2.950017
H	-1.892613	-1.522745	-1.540314
C	-0.438507	-1.300225	0.68338
H	-0.115814	-2.188059	0.13475
H	0.044294	-1.346188	1.663551
H	-1.524807	-1.359321	0.834214
C	-0.571668	1.185191	0.761774
H	-0.115183	2.120088	0.440974
H	-0.35279	1.061964	1.826768
H	-1.660929	1.274254	0.655272
F	2.755795	0.0	0.0
