21

C	-0.162048	6e-06	-1.509708
C	0.0	0.0	0.0
Br	-2.114473	-1.9e-05	-2.083399
H	1.101699	0.0	0.0
C	0.492306	1.237256	-2.106577
H	-0.028577	2.155363	-1.834065
H	0.526831	1.172937	-3.196947
H	1.505823	1.239001	-1.686896
C	0.492348	-1.237215	-2.106593
H	1.505861	-1.238938	-1.686902
H	0.526878	-1.172878	-3.196961
H	-0.02851	-2.155344	-1.8341
C	-0.513206	-1.250407	0.699387
H	-0.026968	-2.15502	0.329831
H	-1.600062	-1.366298	0.594349
H	-0.279379	-1.182613	1.767346
C	-0.5132	1.250407	0.699392
H	-0.026888	2.155008	0.329899
H	-0.279457	1.18257	1.767365
H	-1.600042	1.366355	0.594276
F	2.731237	0.0	0.0
