14
Coordinates from ORCA-job run
  C   -0.43956760449097     -0.25516126514115     -0.27664500069751
  C   0.86488683275393      0.50890107002559     -0.19560135621572
  Br  -0.06585619182127     -2.18628473164042     -0.49753729398830
  H   1.36325059632140      0.49362169321099     -1.16391884511522
  H   0.65850093127544      1.53613713309801      0.10477960388534
  N   -1.23943425677899      0.29491661121485     -1.30469029262335
  H   -2.13006281549201     -0.18663449005206     -1.36307249049101
  H   -0.77535645549711      0.24795084169695     -2.20299897705200
  N   -1.28699959774488     -0.06797088788882      0.99032412871771
  O   -2.25201011957116     -0.80928952728956      1.10459893392045
  O   -0.99466629087294      0.87577998809930      1.71044839486266
  N   1.85027224409669     -0.03488778252913      0.78640791607000
  O   1.41884338913757     -0.59484722026186      1.78690092558483
  O   3.02919933868429      0.17876856745731      0.52100435314213
