14
Coordinates from ORCA-job run
  C   -0.36300051395057     -0.59998679797520     -0.24943094089485
  C   1.03613476251000     -0.36889337448993      0.28757462757310
  Br  -0.70320091975469     -2.51484867856782     -0.13110695788397
  H   1.76090874783074     -0.79272722224841     -0.40780013747855
  H   1.16466777099322     -0.79912825368369      1.27647076619839
  N   -0.54416954136809     -0.17855147185531     -1.57538813864081
  H   -1.46961118220790     -0.41271250396264     -1.91108202335259
  H   -0.40367842482316      0.82360154326603     -1.63394483343956
  N   -1.38034453537638      0.02890429302861      0.75289292353845
  O   -1.04782248151493      0.07463696144350      1.93020710095103
  O   -2.43963144705062      0.40561637348161      0.27273408294190
  N   1.37300047829769      1.08631738807272      0.42767626703851
  O   2.44256871430940      1.33036896098208      0.96766456439821
  O   0.57617857210529      1.91740278250845     -0.00646730094926
