17

C	-0.563947	0.000449	-1.415104
C	0.0	0.0	0.0
Cl	0.183629	-1.378191	-2.285302
H	1.092052	0.0	0.0
C	-2.066643	-0.113775	-1.508157
H	-2.380313	-1.015722	-0.9814
H	-2.377837	-0.173286	-2.549783
H	-2.51453	0.765423	-1.045326
N	-0.084503	1.240872	-2.176055
O	1.006261	1.697122	-1.875709
O	-0.810939	1.633839	-3.08494
C	-0.381	-1.205577	0.702787
N	-0.67759	-2.204384	1.247709
N	-0.408294	1.14483	0.765349
O	-0.111566	1.127689	1.974453
O	-0.88294	2.135705	0.165354
H	2.317786	0.0	0.0
