17

C	-0.520865	0.007635	-1.432481
C	0.0	0.0	0.0
Cl	0.232213	-1.389722	-2.269263
H	1.091961	0.0	0.0
C	-2.018928	-0.072854	-1.592517
H	-2.280592	-0.127548	-2.648082
H	-2.465937	0.819043	-1.154048
H	-2.378883	-0.965293	-1.079293
N	0.015115	1.2385	-2.177547
O	1.097474	1.680213	-1.827909
O	-0.665946	1.644127	-3.11595
C	-0.4398	-1.176282	0.712703
N	-0.816596	-2.137838	1.278068
N	-0.385463	1.177143	0.739841
O	-0.0596	1.188941	1.939921
O	-0.857035	2.156638	0.120667
H	2.314411	0.0	0.0
