17

C	-0.531758	0.000138	-1.42779
C	0.0	0.0	0.0
Cl	0.220083	-1.394281	-2.269997
H	1.091847	0.0	0.0
C	-2.032177	-0.091287	-1.566507
H	-2.480204	0.797567	-1.12279
H	-2.309428	-0.151716	-2.617736
H	-2.376643	-0.985511	-1.045662
N	-0.012776	1.22983	-2.183111
O	-0.690634	1.604711	-3.136473
O	1.059073	1.695748	-1.832994
C	-0.398993	-1.197973	0.702311
N	-0.736563	-2.175621	1.263585
N	-0.403625	1.157874	0.749552
O	-0.879218	2.140664	0.138441
O	-0.09954	1.157718	1.956616
H	2.319424	0.0	0.0
