17

C	-0.544862	0.000813	-1.422171
C	0.0	0.0	0.0
Cl	0.210297	-1.383417	-2.278647
H	1.091961	0.0	0.0
C	-2.046514	-0.105227	-1.540831
H	-2.497199	0.777383	-1.087118
H	-2.375154	-1.004611	-1.018287
H	-2.338826	-0.164188	-2.588143
N	-0.045247	1.236869	-2.179924
O	1.034992	1.699727	-1.852156
O	-0.745355	1.618585	-3.114887
C	-0.383079	-1.206719	0.697588
N	-0.708003	-2.192286	1.253728
N	-0.409606	1.148457	0.759677
O	-0.882331	2.137731	0.154928
O	-0.111941	1.136723	1.968685
H	2.318148	0.0	0.0
