17

C	-0.598877	-0.048883	-1.399672
C	0.0	0.0	0.0
Cl	0.12506	-1.455568	-2.244907
H	1.096618	0.0	0.0
C	-2.103542	-0.168016	-1.437107
H	-2.395956	-1.053176	-0.871241
H	-2.537426	0.725077	-0.987078
H	-2.45358	-0.260219	-2.463941
N	-0.146119	1.165477	-2.216908
O	-0.952751	1.613546	-3.026433
O	0.999936	1.549079	-2.051913
C	-0.355405	-1.18813	0.746043
N	-0.655063	-2.163805	1.331545
N	-0.389399	1.168955	0.73143
O	-0.104805	1.180799	1.944304
O	-0.81858	2.158684	0.093993
H	2.306421	0.0	0.0
