17

C	-0.420142	-0.002217	-1.448318
C	0.0	0.0	0.0
Cl	0.53624	1.152585	-2.390758
H	1.097762	0.0	0.0
C	-0.236269	-1.382029	-2.054355
H	-0.455313	-1.341749	-3.122484
H	-0.894953	-2.100519	-1.563424
H	0.80432	-1.678017	-1.90223
N	-1.91425	0.347278	-1.607484
O	-2.640459	-0.043225	-0.700167
O	-2.287432	0.874844	-2.645863
C	-0.380006	-1.183351	0.73358
N	-0.606309	-2.188574	1.302111
N	-0.391028	1.191557	0.735773
O	-0.191945	1.171543	1.955526
O	-0.779476	2.177701	0.095048
H	2.374763	0.0	0.0
