14
Coordinates from ORCA-job run
  C   -0.60501446417158     -0.09317218192049      0.05530415296720
  C   0.74760075595960     -0.33326141491731      0.70838815523043
  Cl  -1.77940642846637     -0.94557426125833      1.36687124321718
  H   0.94598358730700     -1.39918395697854      0.79557068031171
  H   0.79455365687200      0.14764674225608      1.68296676535601
  N   -0.71020639424871     -0.74127082998354     -1.18225149756743
  H   -0.55096758687776     -1.73602636416098     -1.10868352842368
  H   -1.59712561385775     -0.57062576096110     -1.63766050471369
  N   -0.90304736989246      1.27088532857858     -0.04986363101779
  H   -1.81873384076034      1.43944952928335     -0.44526763580059
  H   -0.82058154896167      1.75207841740296      0.83426617885078
  N   1.83137847292791      0.25597434955322     -0.13151180918747
  O   2.33545979247969     -0.47316948249280     -0.98130315064472
  O   2.13010698169045      1.42624988559891      0.09317458142206
