14
Coordinates from ORCA-job run
  C   -0.63810855257081     -0.11811418261004      0.23837919447086
  C   0.78605426555195     -0.38356250853884      0.72112678736055
  Cl  -1.69388916206197     -1.09850087988880      1.39318979472143
  H   0.98947263831329     -1.44903170094138      0.79695604398115
  H   0.94746033091661      0.12348533104876      1.67077804204045
  N   -0.76111600711382     -0.55721365243065     -1.10943570324397
  H   -0.54495223665438     -1.54082539940065     -1.22134521776247
  H   -1.68819131803885     -0.37641086080093     -1.47295317405899
  N   -1.00470076294385      1.24891438951180      0.45080260476173
  H   -0.40852153095281      1.84099886283190     -0.11645560343793
  H   -1.97630658023544      1.40209247404167      0.21011431749642
  N   1.75883457381999      0.16345709674351     -0.26883975393663
  O   2.43769806433586     -0.64395967447745     -0.89649603507958
  O   1.79826627763422      1.38567070491109     -0.39582129731302
