14
Coordinates from ORCA-job run
  C   -0.55613812676113     -0.03665101441211      0.13485231150719
  C   0.85687246989412      0.53401761032676      0.28039244823183
  Cl  -0.95380596179823     -1.00490109493887      1.63259966769281
  H   0.98677718947694      1.00649963426028      1.25304726977058
  H   1.02587566576404      1.24050928743341     -0.53072763554764
  N   -0.60282784339202     -0.96420858687905     -0.95415725695704
  H   -0.47071936936036     -0.46898870091312     -1.82867836189278
  H   -1.48209404129404     -1.46452909851095     -0.97061098886417
  N   -1.43977131547904      1.08412725389931     -0.01720519591230
  H   -2.39093193520134      0.75563366629555     -0.13985355455738
  H   -1.42050125000080      1.68212175377103      0.80211050698587
  N   1.89203025244254     -0.52333486135472      0.14963319675223
  O   2.35233687321136     -0.70119523327686     -0.97572884807907
  O   2.20389739249796     -1.13810061570066      1.16532644086988
