14
Coordinates from ORCA-job run
  C   -0.53695488693295     -0.26688059005183      0.15802689108191
  C   0.94136970780601     -0.44220214103695     -0.19012007248617
  Cl  -0.87476448473060     -1.04106702826946      1.74475457074047
  H   1.25358521617701     -1.45777505801813      0.03591239394207
  H   1.09194032003551     -0.21242167439860     -1.24554224157070
  N   -1.25474292355182     -1.06279022135145     -0.82931949056506
  H   -2.18218023511975     -1.29079629415681     -0.49197565966840
  H   -1.34699631868293     -0.51895143422414     -1.68106603083262
  N   -0.84277668826469      1.12524179030057      0.29312495403193
  H   -1.83608096434387      1.27975256374138      0.40210643538850
  H   -0.46934723150870      1.67636528519341     -0.46941680877143
  N   1.80704263230598      0.49711452777206      0.56921694939678
  O   2.23280297584178      0.12238347636413      1.65707006692531
  O   2.01810288096903      1.59202679813583      0.04722804238741
