15

C	0.0	0.0	0.0
C	-0.561682	-0.011829	-1.414877
Cl	1.804759	0.0	0.0
H	-0.238374	-0.933168	-1.919911
H	-1.654996	-0.056682	-1.23442
C	-0.526606	1.179241	0.790919
H	-0.235873	2.098313	0.282472
H	-1.624035	1.066114	0.783112
H	-0.138623	1.167834	1.812125
C	-0.35441	-1.267853	0.657618
N	-0.53364	-2.303611	1.182006
N	-0.212311	1.208609	-2.129245
H	0.629561	1.072825	-2.673759
H	-0.969978	1.448866	-2.754783
H	-3.288722	0.0	0.0
