15

C	0.0	0.0	0.0
C	-0.597136	-0.016687	-1.40382
Cl	1.797737	0.0	0.0
H	-0.125114	-0.815786	-1.983006
H	-1.662583	-0.250211	-1.214069
C	-0.527066	1.173414	0.802619
H	-1.624679	1.078141	0.787183
H	-0.21203	2.095963	0.314426
H	-0.148342	1.144328	1.82663
C	-0.348568	-1.270772	0.658882
N	-0.530772	-2.307825	1.180094
N	-0.439918	1.28215	-2.057471
H	-1.3415	1.747809	-2.027004
H	-0.202147	1.146675	-3.030624
H	-3.327721	0.0	0.0
