15

C	0.0	0.0	0.0
C	-0.615707	-0.060014	-1.394609
Cl	1.79431	0.0	0.0
H	-1.65499	-0.380879	-1.192984
H	-0.083045	-0.807754	-1.989844
C	-0.528219	1.184772	0.785547
H	-1.625841	1.085753	0.773215
H	-0.147977	1.17024	1.809242
H	-0.215641	2.101804	0.285326
C	-0.337039	-1.256516	0.695549
N	-0.506049	-2.278103	1.250621
N	-0.58739	1.251148	-2.043329
H	-1.494988	1.67312	-1.861755
H	-0.520904	1.120304	-3.044823
H	-3.315812	0.0	0.0
