15

C	0.0	0.0	0.0
C	-0.536204	-0.043096	-1.438914
Cl	1.802331	0.0	0.0
H	-1.622091	-0.190811	-1.298159
H	-0.100456	-0.909426	-1.946577
C	-0.53432	1.184959	0.776023
H	-0.206557	2.115159	0.307393
H	-1.633953	1.08372	0.728964
H	-0.183338	1.164007	1.810101
C	-0.358039	-1.25807	0.671909
N	-0.527639	-2.295862	1.1959
N	-0.316866	1.154824	-2.229028
H	0.628758	1.499028	-2.106895
H	-0.96367	1.870986	-1.922752
H	-3.242804	0.0	0.0
