16

C	0.0	0.0	0.0
C	-0.342602	0.197326	-1.537426
F	1.383152	0.0	0.0
H	0.58375	-0.123873	-2.018024
C	-0.385641	1.140781	0.869178
N	-0.579031	2.013594	1.631878
N	-0.528362	-1.25015	0.417973
H	-0.260714	-1.398018	1.386971
H	-1.559292	-1.041064	0.385376
N	-0.382747	1.687042	-1.799503
O	0.693734	2.279256	-1.682914
O	-1.452891	2.212401	-2.074163
N	-1.462187	-0.431606	-2.128768
H	-2.252302	-0.266433	-1.466161
H	-1.262335	-1.424848	-2.132469
F	-2.77354	0.0	0.0
