16

C	0.0	0.0	0.0
C	-0.48163	0.072842	-1.448895
F	1.413959	0.0	0.0
H	-1.580131	0.091343	-1.359927
C	-0.333858	1.293208	0.666324
N	-0.515602	2.275367	1.283806
N	-0.52487	-1.141117	0.641468
H	-0.302733	-1.081455	1.62945
H	-1.564444	-0.958691	0.515406
N	-0.093764	-1.243156	-2.116528
O	1.024062	-1.302222	-2.637869
O	-0.916585	-2.152947	-2.123123
N	0.093116	1.193757	-2.108513
H	1.086078	1.042054	-2.233446
H	-0.340301	1.333421	-3.010719
F	-2.739547	0.0	0.0
