14

C	0.0	0.0	0.0
C	-0.259709	0.012228	-1.528274
Br	1.945971	0.0	0.0
H	0.424345	-0.713797	-1.965728
H	0.078156	1.004003	-1.842878
N	-0.557953	1.059801	0.700666
H	-1.580015	1.017643	0.525841
H	-0.406074	0.929078	1.695193
N	-0.334517	-1.403178	0.589062
O	-0.362364	-2.352264	-0.182955
O	-0.488693	-1.444994	1.802913
C	-1.535236	-0.253296	-2.203767
N	-2.243544	-0.504992	-3.10932
Br	-3.581705	0.0	0.0
