14

C	0.0	0.0	0.0
C	-0.498733	-0.177224	-1.441417
Br	1.93899	0.0	0.0
H	-0.084057	-1.07761	-1.89347
H	-1.594483	-0.266766	-1.366455
N	-0.495111	1.105468	0.723837
H	-1.518751	1.003868	0.755593
H	-0.261043	1.959097	0.229129
N	-0.382071	-1.287856	0.766653
O	-0.323127	-2.331251	0.124936
O	-0.65555	-1.179585	1.949629
C	-0.158179	0.994762	-2.234956
N	0.102878	1.947842	-2.868502
Br	-3.665556	0.0	0.0
