14

C	0.0	0.0	0.0
C	-0.23614	0.220429	-1.529202
Br	1.982628	0.0	0.0
H	0.305563	1.145701	-1.736976
H	0.346179	-0.569098	-2.007548
N	-0.432409	0.974519	0.897928
H	-0.030385	0.869607	1.815704
H	-0.376605	1.905054	0.516672
N	-0.341318	-1.402491	0.495248
O	-0.39113	-1.537669	1.709259
O	-0.407137	-2.292077	-0.339923
C	-1.488428	0.286917	-2.32283
N	-2.088589	0.384152	-3.331418
Br	-3.176194	0.0	0.0
