14

C	0.0	0.0	0.0
C	-0.247499	-0.207683	-1.527751
Br	1.952225	0.0	0.0
H	0.459505	0.464361	-2.019448
H	0.068159	-1.222597	-1.774365
N	-0.51863	1.12686	0.652124
H	-1.539637	0.981545	0.718748
H	-0.343894	1.9514	0.089035
N	-0.406838	-1.258313	0.792545
O	-0.38908	-2.320562	0.182756
O	-0.641288	-1.108612	1.980106
C	-1.513614	0.059338	-2.22038
N	-2.220718	0.295408	-3.131316
Br	-3.560125	0.0	0.0
