15
Coordinates from ORCA-job run
  C   0.82329281971988     -0.26721136268438      0.23815263807701
  C   -0.64039265992999      0.18148334022838      0.14191282233788
  Br  1.12446784042316     -1.87937743509686     -0.82706024121701
  H   -0.71163033300127      1.07284307882076      0.78132382028714
  H   1.00893076984172     -0.57630944761895      1.27012544936162
  C   1.80391749093472      0.81027785803332     -0.18657324512424
  H   2.83182949006914      0.47317500956854     -0.04831410482928
  H   1.66431149651603      1.07082079310106     -1.23717143080162
  H   1.64877452465315      1.70780823832833      0.42100893358035
  C   -1.65000793485174     -0.85223153525507      0.64579186084022
  H   -2.65383696935203     -0.42390972504305      0.66055562454376
  H   -1.38844108589543     -1.15939331674814      1.66151854278182
  H   -1.65673345242933     -1.73344161280174      0.00484238483951
  C   -0.96614534282329      0.61321963730983     -1.21991756626331
  N   -1.23733665387472      0.96024647985797     -2.30819548841385
