15
Coordinates from ORCA-job run
  C   0.84022048405038      0.22506049384558      0.62918358607816
  C   -0.69841744547406      0.24933893744034      0.55520483399831
  Br  1.39780477913790     -1.19086357713388      1.86227629590911
  H   -1.07920886071463      0.31857267328661      1.58016472095379
  H   1.17668218316634      1.14487388908278      1.11187601052622
  C   1.52895646088531      0.04833965757144     -0.71072186672946
  H   2.61027357384843      0.12818449699094     -0.59267407115360
  H   1.19916065330643      0.83089216971637     -1.40074471982436
  H   1.30831693245480     -0.92607875419709     -1.14761809979024
  C   -1.32659782778822     -0.96613300760755     -0.13183430613411
  H   -0.99853454617943     -1.88378125347057      0.35747821484984
  H   -2.41432976584557     -0.90773850036444     -0.06544456044673
  H   -1.05593508725537     -1.00783992614193     -1.18746896108570
  C   -1.09148993959788      1.48034376511238     -0.14018914867767
  N   -1.39690159399444      2.45482893586901     -0.72048792847355
