19

C	-0.17468	0.036967	-1.524235
C	0.0	0.0	0.0
F	-0.012778	-1.316478	-1.99202
H	1.106048	0.0	0.0
C	-1.525901	0.463239	-2.058646
H	-1.504356	0.478384	-3.153616
H	-2.295427	-0.243492	-1.737636
H	-1.778899	1.453801	-1.683042
N	0.887881	0.853828	-2.003189
H	1.003139	0.740446	-3.003143
H	1.754658	0.593224	-1.493932
C	-0.648979	-1.176868	0.684608
H	-0.254416	-2.111263	0.286567
H	-0.426976	-1.146232	1.757265
H	-1.73931	-1.161696	0.566903
N	-0.521656	1.274575	0.551572
H	0.009793	1.998475	0.072056
H	-0.189564	1.313136	1.51277
F	2.788919	0.0	0.0
