19

C	-0.100058	-0.072413	-1.524523
C	0.0	0.0	0.0
F	-1.401107	-0.432482	-1.952054
H	1.097414	0.0	0.0
C	0.276339	1.252359	-2.145677
H	0.283718	1.141832	-3.232388
H	-0.409455	2.036181	-1.830026
H	1.28105	1.487862	-1.785698
N	0.81924	-1.080187	-2.041767
H	0.51106	-1.981492	-1.69093
H	1.70326	-0.873442	-1.550666
C	-0.549628	-1.234329	0.70037
H	-0.115574	-2.159677	0.314508
H	-0.308274	-1.185429	1.766922
H	-1.640182	-1.298703	0.59253
N	-0.522599	1.248569	0.56091
H	-1.451201	1.093989	0.938957
H	0.080739	1.515656	1.329951
F	2.747185	0.0	0.0
