19

C	-0.353508	0.067048	-1.47778
C	0.0	0.0	0.0
F	-1.712318	0.554277	-1.618152
H	1.095409	0.0	0.0
C	0.575024	1.044479	-2.163179
H	0.346117	2.046706	-1.804147
H	1.591034	0.780818	-1.84826
H	0.461092	1.009469	-3.253042
N	-0.285842	-1.217831	-2.102253
H	-0.490289	-1.110339	-3.089541
H	-0.994045	-1.821838	-1.70094
C	-0.54737	-1.225981	0.717797
H	-1.643766	-1.29095	0.649631
H	-0.105009	-2.14366	0.32186
H	-0.278547	-1.16685	1.776511
N	-0.392544	1.270518	0.622223
H	0.248849	1.434423	1.388168
H	-1.335241	1.213067	0.992243
F	2.742444	0.0	0.0
