19

C	-0.330383	-0.041328	-1.485443
C	0.0	0.0	0.0
F	0.021739	1.260475	-1.9929
H	1.10097	0.0	0.0
C	0.5948	-0.994952	-2.208963
H	0.569076	-0.798888	-3.285487
H	0.295291	-2.029108	-2.0299
H	1.59774	-0.818572	-1.802439
N	-1.721648	-0.254087	-1.732365
H	-2.218553	0.411203	-1.146857
H	-1.924447	-0.044811	-2.703772
C	-0.497025	-1.233574	0.730905
H	-1.587434	-1.320346	0.699919
H	-0.055075	-2.135711	0.303221
H	-0.172487	-1.186957	1.776748
N	-0.636196	1.203822	0.57705
H	-0.408476	1.20251	1.566998
H	-0.129554	1.991118	0.184851
F	2.778955	0.0	0.0
