19

C	-0.213013	0.035591	-1.526522
C	0.0	0.0	0.0
F	-0.195509	-1.340909	-1.985425
H	1.098067	0.0	0.0
C	-1.537931	0.578727	-2.019689
H	-1.645579	1.602464	-1.668636
H	-1.566871	0.555457	-3.114836
H	-2.366955	-0.026764	-1.642878
N	0.894083	0.740989	-2.061762
H	0.989065	0.555447	-3.052564
H	1.748811	0.488032	-1.536166
C	-0.61019	-1.19962	0.690686
H	-0.318303	-1.194912	1.746636
H	-0.25545	-2.126324	0.243336
H	-1.70907	-1.187795	0.638415
N	-0.449411	1.282035	0.586634
H	0.383569	1.731728	0.947701
H	-1.055193	1.096374	1.377482
F	2.767344	0.0	0.0
