17

C	0.0	0.0	0.0
C	-0.680004	0.011014	-1.447652
Cl	1.717287	0.0	0.0
H	-1.751666	0.19055	-1.413011
N	-0.446512	1.253034	0.778988
O	-0.541023	1.136586	1.990187
O	-0.640262	2.25649	0.111808
N	-0.527697	-1.292315	0.882414
O	-1.714616	-1.646604	0.892389
O	0.314065	-1.861998	1.536108
N	-0.537878	-1.341607	-2.039012
O	-1.581304	-1.988616	-2.160411
O	0.591327	-1.69699	-2.362944
N	-0.222625	1.030843	-2.397753
O	0.972983	1.198316	-2.595016
O	-1.157108	1.652053	-2.912236
F	-1.802044	0.0	0.0
