12
Coordinates from ORCA-job run
  C   0.58223786881846     -0.41297470458269      0.34529064493653
  C   -0.56989168519908     -0.09824399119919     -0.61457358904697
  H   0.17500081903274     -0.91572303054584      1.22819015059180
  H   -1.04980898771844     -1.01852690885099     -0.95354151043360
  H   -0.24473685810670      0.48878740692964     -1.47164608286026
  C   1.24412969293369      0.82104239692626      0.78382909869881
  N   1.75372770651791      1.82428142584906      1.11790147092721
  C   1.53386885575903     -1.30734544129010     -0.32205293387860
  N   2.26514367843922     -2.03700373572163     -0.87950149799374
  N   -1.62690643651668      0.69995899911750      0.08756444036801
  O   -1.76329181493300      0.51143608599304      1.29326056260038
  O   -2.29847283902715      1.44431149737494     -0.61572075390956
