12
Coordinates from ORCA-job run
  C   0.57967385788231     -0.41815545237525      0.34246930808711
  C   -0.56014992283219     -0.08483043747658     -0.62575879716036
  H   0.16262591610265     -0.94731568347904      1.20513893396824
  H   -1.02842377607493     -0.99882357902718     -0.99662153748965
  H   -0.22628814617084      0.52697802785036     -1.46197896020996
  C   1.22681397648963      0.80743610896566      0.82429794495262
  N   1.72423874326691      1.80515453634582      1.19151388144251
  C   1.54717308260065     -1.28855714924837     -0.33378546946489
  N   2.29281025265703     -1.99941254925061     -0.89656580292575
  N   -1.63317970426748      0.68675824584532      0.08145188494954
  O   -2.30101403820254      1.44374952190431     -0.61193701750572
  O   -1.78528024145121      0.46601840994556      1.27977563135631
