12
Coordinates from ORCA-job run
  C   0.72357778092847      0.23221372760250      0.22505790246024
  C   -0.55562406330927      0.15997787736040     -0.61524291905651
  H   0.61688546961628      1.03958726995836      0.95641616419532
  H   -0.55326902214225     -0.68714106161762     -1.29883417028416
  H   -0.70287545787029      1.08757964442702     -1.17198113316082
  C   1.86167385009952      0.52524562373132     -0.65226244636076
  N   2.74989082761632      0.77895098853278     -1.37663339034749
  C   0.93595174005165     -1.02328914799408      0.95439740803724
  N   1.07774887069211     -2.03993450788948      1.52363924124858
  N   -1.75207985859337      0.00219227060695      0.27412946256476
  O   -1.68742601919760      0.50048720282403      1.39452083983323
  O   -2.71545411789156     -0.57586988754217     -0.21320695912965
