12
Coordinates from ORCA-job run
  C   0.70487489255768      0.25505367214929      0.25735826450523
  C   -0.52097504661749      0.12267590623488     -0.65208487587349
  H   0.54146992098253      1.08969242551845      0.94642644475468
  H   -0.46399398543764     -0.75188612855819     -1.29778712854094
  H   -0.65077161514247      1.02331865965708     -1.25560702770430
  C   1.88654023327899      0.53441127470369     -0.56516961619226
  N   2.80830867438812      0.77517576710054     -1.25097166035570
  C   0.89715301185550     -0.96432030791270      1.05069360939072
  N   1.02702643812836     -1.95205012219309      1.67140109717365
  N   -1.76544806309289     -0.02091446619112      0.17135095564178
  O   -1.77537417943349      0.52340508824002      1.27202759728332
  O   -2.68881028146718     -0.63556176874885     -0.34763766008269
