19

C	0.0	0.0	0.0
C	-0.536437	-0.240653	-1.426371
Cl	1.806027	0.0	0.0
H	-1.624642	-0.141646	-1.310758
C	-0.366797	1.35489	0.435947
N	-0.609431	2.450916	0.783247
C	-0.519602	-1.014338	1.005755
H	-1.61166	-1.028401	0.925186
H	-0.106182	-2.000583	0.792132
H	-0.233179	-0.724597	2.018456
C	-0.235549	-1.650615	-1.926868
H	-0.598303	-1.746752	-2.954575
H	0.838131	-1.861204	-1.925317
H	-0.748455	-2.408135	-1.33196
C	-0.057571	0.811905	-2.422011
H	-0.584868	0.672567	-3.369542
H	1.016355	0.728918	-2.612618
H	-0.27402	1.823681	-2.069577
Br	-3.969132	0.0	0.0
