19

C	0.0	0.0	0.0
C	-0.44354	0.008065	-1.483005
Cl	1.806924	0.0	0.0
H	0.164848	-0.775084	-1.954813
C	-0.401203	1.235868	0.679063
N	-0.693739	2.23981	1.214796
C	-0.506592	-1.209155	0.770334
H	-0.065892	-1.235608	1.768783
H	-1.594793	-1.14909	0.859998
H	-0.234307	-2.121924	0.235107
C	-0.135295	1.342831	-2.157661
H	-0.302018	1.251383	-3.234301
H	-0.807298	2.119054	-1.78208
H	0.896098	1.665485	-1.998944
C	-1.919898	-0.338594	-1.640069
H	-2.583503	0.262316	-1.014445
H	-2.21893	-0.173293	-2.678473
H	-2.134935	-1.380582	-1.400414
Br	-5.061157	0.0	0.0
