19

C	0.0	0.0	0.0
C	-0.567597	-0.146281	-1.421005
Cl	1.806197	0.0	0.0
H	-1.651029	-0.040993	-1.261126
C	-0.352881	1.32464	0.533335
N	-0.561111	2.399937	0.958605
C	-0.49533	-1.077085	0.954573
H	-1.590059	-1.068287	0.922219
H	-0.111527	-2.051739	0.650689
H	-0.153029	-0.867425	1.969757
C	-0.304102	-1.526605	-2.012967
H	0.765237	-1.75937	-2.036559
H	-0.828445	-2.307595	-1.460415
H	-0.679048	-1.551533	-3.039677
C	-0.098466	0.959535	-2.360263
H	0.968714	0.871724	-2.584079
H	-0.286299	1.950018	-1.939194
H	-0.652884	0.889914	-3.299975
Br	-3.953096	0.0	0.0
