12

C	0.0	0.0	0.0
C	-0.478293	-0.578504	-1.324973
F	1.38059	0.0	0.0
H	-0.199442	0.124327	-2.114803
H	-0.297681	-0.664704	0.821399
H	-1.571882	-0.659095	-1.289736
N	-0.483547	1.342291	0.117507
H	-0.325998	1.661723	1.067062
H	-1.498142	1.293032	-0.003084
C	0.123786	-1.878245	-1.600366
N	0.611278	-2.92131	-1.827187
Br	-3.733134	0.0	0.0
