12

C	0.0	0.0	0.0
C	-0.414809	0.171518	-1.459729
F	1.404408	0.0	0.0
H	-1.510726	0.179061	-1.501384
H	-0.356393	-0.948966	0.39936
H	-0.03484	1.138236	-1.810092
N	-0.496244	1.067253	0.771163
H	-0.038982	1.938387	0.542839
H	-0.467758	0.885801	1.761332
C	0.144094	-0.872697	-2.313778
N	0.605856	-1.708391	-2.996704
Br	-3.850426	0.0	0.0
