12

C	0.0	0.0	0.0
C	-0.513313	-0.200683	-1.415932
F	1.407324	0.0	0.0
H	-0.166826	-1.156346	-1.817844
H	-0.331663	-0.829496	0.624706
H	-1.611873	-0.202385	-1.338326
N	-0.483645	1.212417	0.532047
H	-0.378702	1.270185	1.53275
H	-0.066723	2.012877	0.077826
C	-0.066579	0.876952	-2.294035
N	0.278474	1.755897	-2.991245
Br	-3.924617	0.0	0.0
