12

C	0.0	0.0	0.0
C	-0.480261	-0.222652	-1.429585
F	1.40742	0.0	0.0
H	-1.578554	-0.215129	-1.398973
H	-0.325701	-0.830969	0.626634
H	-0.125264	-1.186543	-1.800598
N	-0.504845	1.208404	0.511295
H	-0.089159	2.017992	0.072312
H	-0.462128	1.270943	1.515047
C	0.006038	0.837654	-2.310364
N	0.376298	1.712713	-3.000486
Br	-3.959087	0.0	0.0
