12

C	0.0	0.0	0.0
C	-0.488906	-0.214121	-1.426954
F	1.407073	0.0	0.0
H	-1.58857	-0.210584	-1.389663
H	-0.32812	-0.830548	0.624721
H	-0.136513	-1.17622	-1.806821
N	-0.501132	1.206117	0.520222
H	-0.460765	1.262115	1.52397
H	-0.095747	2.019648	0.081083
C	-0.013456	0.848286	-2.306958
N	0.349463	1.722386	-2.9998
Br	-3.953682	0.0	0.0
