12

C	0.0	0.0	0.0
C	-0.440113	-0.210272	-1.454199
F	1.387391	0.0	0.0
H	-1.536847	-0.231972	-1.456586
H	-0.344259	-0.853931	0.586767
H	-0.058669	-1.164277	-1.829972
N	-0.467018	1.191444	0.626563
H	-1.47235	1.080685	0.762785
H	-0.325948	1.981714	0.005796
C	0.042716	0.867189	-2.312851
N	0.408682	1.747995	-2.997259
Br	-3.702675	0.0	0.0
