12

C	0.0	0.0	0.0
C	-0.439636	-0.217372	-1.453414
F	1.387865	0.0	0.0
H	-0.067518	-1.17825	-1.821588
H	-0.348019	-0.851567	0.589302
H	-1.536526	-0.230247	-1.453797
N	-0.468587	1.194295	0.620092
H	-1.470329	1.072219	0.776382
H	-0.353882	1.978686	-0.013602
C	0.055915	0.84519	-2.323353
N	0.433193	1.707276	-3.024576
Br	-3.698883	0.0	0.0
