10
Coordinates from ORCA-job run
  C   -1.19265346273773     -0.68445255459254      0.33873189272040
  C   -0.12131368100603      0.05861090406471      0.02634586248682
  H   -2.19042692643019     -0.32484493239924      0.12054236209203
  H   -1.06918467861274     -1.63439843574583      0.83468161085236
  N   1.22889546233865     -0.48483141599005      0.33048507235494
  O   1.31428106785143     -1.45204398464068      1.07618445908863
  O   2.17979274913680      0.07861648434296     -0.21467140924902
  N   -0.05588963429996      1.32742082903969     -0.50457673165328
  H   0.79625083272968      1.50544069130675     -1.01389512851791
  H   -0.88975172896990      1.61048241461422     -0.99382799017498
