10
Coordinates from ORCA-job run
  C   -1.20911646644771     -0.62815466373765      0.38712826341259
  C   -0.11956643190071      0.00790794957910     -0.06695913136522
  H   -1.10823263242625     -1.53525048408580      0.96206094925166
  H   -2.19776381043350     -0.25051885919710      0.15809966077496
  N   1.21708489214490     -0.53853125036810      0.28782417084633
  O   1.28088987704149     -1.67081925485679      0.74910350680837
  O   2.17919068923449      0.20964631151162      0.10497295176583
  N   -0.02174084126394      1.10410513225669     -0.89439664461770
  H   0.83134709370378      1.62715090976665     -0.76858227466200
  H   -0.85109236965254      1.67546420913137     -0.91725145221483
