10
Coordinates from ORCA-job run
  C   -1.24276016147082     -0.66842999565562      0.12242400079763
  C   -0.11345395321625      0.02759080177552     -0.07308407070185
  H   -1.19770855172403     -1.69242960826148      0.45867260057548
  H   -2.20610461396821     -0.21780775484400     -0.08093600502107
  N   1.18387247153804     -0.62917968176804      0.23772494555182
  O   2.16395301907753      0.11294996948913      0.32567312604078
  O   1.19944632027983     -1.84233442315096      0.40207262623007
  N   0.06250708868298      1.29173957457397     -0.58992950925743
  H   -0.75744622620392      1.87435214149280     -0.53374085048380
  H   0.90569460700485      1.74254897634868     -0.26887686373163
