10
Coordinates from ORCA-job run
  C   -1.22119022222995     -0.63024915168245      0.34204374479855
  C   -0.10578726905522      0.05974971172618      0.06341338723332
  H   -1.17348032447766     -1.69455342407505      0.51131366640076
  H   -2.17381520187020     -0.12190202555081      0.42330770817232
  N   1.17503208984138     -0.68637378411521     -0.05623369745729
  O   2.11131461051211     -0.08194884553233     -0.58264860259205
  O   1.21879807547463     -1.84043042395292      0.35016473213718
  N   0.07599796186744      1.41683192145834     -0.08172562353832
  H   -0.76717267252565      1.92200840979322     -0.30239593802322
  H   0.86130295246311      1.65686761193103     -0.66723937713124
