10
Coordinates from ORCA-job run
  C   -1.13256957611915     -0.84745275140758     -0.07044270845247
  C   -0.12937013114098      0.03664728245936      0.02844533711022
  H   -2.13953761980536     -0.51134615512721     -0.28369580807568
  H   -0.94791834831500     -1.89796488275901      0.09065069185121
  N   1.23887829097834     -0.47520434359905      0.30678075811235
  O   1.36272019330167     -1.63142405738370      0.68978460047755
  O   2.16649673813732      0.31217584488272      0.11063712397689
  N   -0.15986827474738      1.41181880773180     -0.03289027876030
  H   -0.96929307474823      1.78294388460022     -0.50392434617922
  H   0.71146180245877      1.81980637060244     -0.33534537006055
