10
Coordinates from ORCA-job run
  C   -1.21212028641054     -0.73058771865294     -0.05712709715021
  C   -0.11955788728638      0.03848765120048      0.05615852863072
  H   -2.19936762279936     -0.28677667308944     -0.02781392779543
  H   -1.11537769985702     -1.80100850052002     -0.14910519014333
  N   1.21451133922679     -0.61587811813940     -0.00598519677805
  O   2.17994746662384      0.12911793466021     -0.18477416405496
  O   1.27305172845213     -1.83373567865448      0.10465249970839
  N   -0.01673814750925      1.39209777868722      0.28609191020954
  H   0.83841533690764      1.79549280966286     -0.06479965302023
  H   -0.84376422734785      1.91279051484553      0.04170229039357
