10
Coordinates from ORCA-job run
  C   -1.17252240492738     -0.74056369084661     -0.28795976370826
  C   -0.10383939336321      0.04203337535364     -0.07954075999698
  H   -1.07287799677795     -1.81424135951735     -0.25789175753963
  H   -2.13609972928083     -0.30213748718223     -0.51543252009551
  N   1.19414776858277     -0.60654618729860      0.24592653084698
  O   2.07102774245742      0.12753836533415      0.70543389256584
  O   1.30793010377344     -1.81107383436324      0.05876066371424
  N   0.01607782938656      1.41034926420157     -0.17406706354188
  H   -0.85793670657197      1.90481766136428     -0.09426035821491
  H   0.75409278672114      1.78982389295438      0.39903113597011
