10
Coordinates from ORCA-job run
  C   -1.09072017317714     -0.87476131903627     -0.22645473029672
  C   -0.09711625048924      0.01607573463299     -0.09562222579760
  H   -2.04870027061488     -0.57060171224790     -0.62924009720316
  H   -0.93320895643362     -1.90728003969726      0.04313946183771
  N   1.19480907337013     -0.44545881144308      0.47819514735719
  O   1.39690028726950     -1.64967112864001      0.56710119372925
  O   1.97473424648679      0.43547354943496      0.84509717090916
  N   -0.04753538829358      1.33948254872458     -0.47179035981625
  H   -0.95228876280795      1.76852127103463     -0.58171559824207
  H   0.60212619468999      1.88821990723737      0.07029003752250
