10
Coordinates from ORCA-job run
  C   -1.19245440905257     -0.62047516087978      0.44714150183932
  C   -0.12664636945889      0.03034337346958     -0.04135658810767
  H   -2.16122068182665     -0.13770010741203      0.47585744067125
  H   -1.09523259335938     -1.63760332099288      0.79280855215843
  N   1.18699910327357     -0.66623746367037     -0.04431219522612
  O   1.20738288856874     -1.87422461274866      0.15392682600497
  O   2.17917921582255      0.04061475700033     -0.23107737523072
  N   -0.04802530471532      1.27500994747423     -0.62474751464959
  H   0.86170768474181      1.70200615776030     -0.54023328246809
  H   -0.81068953399384      1.88826642999928     -0.38600736499178
