15

C	0.0	0.0	0.0
C	-0.66368	0.005825	-1.355535
Cl	1.763775	0.0	0.0
H	-0.574644	-0.997896	-1.780571
H	-1.769435	0.140215	-1.076064
N	-0.369833	1.301154	0.739025
O	-0.294142	1.282885	1.961551
O	-0.666834	2.273156	0.055813
C	-0.522349	-1.16453	0.808371
H	-0.231849	-2.096379	0.316278
H	-0.118063	-1.142348	1.818982
H	-1.620559	-1.056651	0.811126
C	-0.17639	0.970079	-2.323657
N	0.19546	1.698619	-3.167149
H	-3.1251	0.0	0.0
