15

C	0.0	0.0	0.0
C	-0.663172	-0.052223	-1.353548
Cl	1.777057	0.0	0.0
H	-0.405652	0.815266	-1.961157
H	-1.783915	-0.005745	-1.044816
N	-0.355401	1.365261	0.61875
O	-0.435969	2.320829	-0.145074
O	-0.448182	1.422178	1.837995
C	-0.502848	-1.099715	0.897544
H	-0.07432	-1.016941	1.894467
H	-0.231882	-2.061663	0.458279
H	-1.599109	-0.987698	0.919048
C	-0.3647	-1.279957	-2.05861
N	-0.144577	-2.275419	-2.645437
H	-3.071068	0.0	0.0
