15

C	0.0	0.0	0.0
C	-0.674539	-0.040658	-1.347321
Cl	1.776483	0.0	0.0
H	-0.421584	0.829824	-1.953363
H	-1.796445	0.006126	-1.021505
N	-0.352033	1.359917	0.633746
O	-0.441262	2.321433	-0.121477
O	-0.432604	1.406738	1.854759
C	-0.497881	-1.107941	0.891956
H	-0.06432	-1.03169	1.887103
H	-1.593909	-0.999584	0.920232
H	-0.226888	-2.065572	0.44377
C	-0.3962	-1.267421	-2.060255
N	-0.197606	-2.262848	-2.65467
H	-3.065472	0.0	0.0
