15

C	-0.545925	0.044475	-1.414178
C	0.0	0.0	0.0
Cl	0.107129	1.433238	-2.301311
H	1.092552	0.0	0.0
H	-0.31681	0.940115	0.465462
N	-0.157746	-1.250272	-2.155547
O	0.899605	-1.283579	-2.755132
O	-0.954305	-2.177419	-2.01372
C	-2.00807	0.126686	-1.454328
N	-3.176147	0.258244	-1.420178
C	-0.492101	-1.191459	0.811499
H	-0.08639	-2.126624	0.421569
H	-1.582122	-1.273718	0.858438
H	-0.104856	-1.077503	1.826961
H	2.85558	0.0	0.0
