15

C	-0.434567	-0.015371	-1.429882
C	0.0	0.0	0.0
Cl	-2.220902	0.255454	-1.645476
H	1.095952	0.0	0.0
H	-0.331769	0.947273	0.431683
N	0.232845	1.152839	-2.174947
O	0.112313	2.25208	-1.654968
O	0.8186	0.892562	-3.218225
C	-0.111132	-1.257764	-2.124402
N	0.101469	-2.297643	-2.629225
C	-0.490855	-1.197559	0.795514
H	-1.581513	-1.267654	0.839109
H	-0.093038	-2.126008	0.378875
H	-0.104144	-1.113694	1.813453
H	2.801862	0.0	0.0
