15

C	-0.468853	0.035711	-1.426785
C	0.0	0.0	0.0
Cl	-2.276673	0.105343	-1.605246
H	1.09344	0.0	0.0
H	-0.314583	-0.968087	0.403057
N	0.081277	1.283392	-2.130968
O	1.003806	1.109472	-2.915474
O	-0.412943	2.354515	-1.806745
C	-0.029426	-1.142161	-2.171979
N	0.25551	-2.1294	-2.7425
C	-0.467122	1.141248	0.890421
H	0.017495	2.076065	0.608708
H	-0.15289	0.910268	1.911164
H	-1.549862	1.287949	0.879522
H	2.784191	0.0	0.0
