15

C	-0.47819	-0.019293	-1.427104
C	0.0	0.0	0.0
Cl	0.028011	-1.508418	-2.252578
H	1.093245	0.0	0.0
H	-0.342204	-0.930103	0.464815
N	-2.019644	0.011288	-1.419325
O	-2.552798	1.095361	-1.648623
O	-2.594769	-1.011801	-1.069773
C	-0.026204	1.129961	-2.209604
N	0.332473	2.050548	-2.845147
C	-0.479841	1.223385	0.768264
H	-0.185034	2.144772	0.259553
H	0.018923	1.222282	1.740818
H	-1.562354	1.246915	0.930803
H	2.793884	0.0	0.0
