15

C	-0.476462	0.022865	-1.432783
C	0.0	0.0	0.0
Cl	0.174609	-1.320351	-2.384538
H	1.093084	0.0	0.0
H	-0.323212	0.943622	0.453998
N	-2.018686	-0.082821	-1.420816
O	-2.603466	0.958223	-1.131253
O	-2.537181	-1.17983	-1.574213
C	-0.155365	1.279056	-2.109521
N	0.087449	2.286583	-2.663338
C	-0.506118	-1.191691	0.796712
H	0.026184	-1.203496	1.751172
H	-0.277662	-2.129518	0.286821
H	-1.582011	-1.157645	0.997214
H	2.794336	0.0	0.0
