15

C	-0.473253	-0.003304	-1.42634
C	0.0	0.0	0.0
Cl	-2.28224	-0.010505	-1.596156
H	1.093434	0.0	0.0
H	-0.311238	-0.959153	0.427051
N	0.02795	1.255624	-2.146903
O	-0.529139	2.30901	-1.866208
O	0.984409	1.10897	-2.897254
C	0.013832	-1.168607	-2.16179
N	0.320434	-2.155084	-2.722313
C	-0.47379	1.16239	0.858246
H	-1.557268	1.304055	0.842422
H	-0.158605	0.962228	1.885328
H	0.00663	2.091909	0.551344
H	2.787732	0.0	0.0
