15

C	-0.502633	0.019543	-1.429855
C	0.0	0.0	0.0
Cl	0.026794	1.455276	-2.315132
H	1.092823	0.0	0.0
H	-0.339407	-0.949049	0.427003
N	0.026906	-1.254225	-2.142028
O	0.811892	-1.148185	-3.065143
O	-0.424415	-2.293356	-1.672731
C	-1.962843	-0.060213	-1.516608
N	-3.138186	-0.084059	-1.547369
C	-0.508036	1.172911	0.823766
H	-0.134822	2.116889	0.423205
H	-1.600651	1.219518	0.885783
H	-0.106514	1.073639	1.835075
H	2.858811	0.0	0.0
