15

C	-0.439666	0.053145	-1.427721
C	0.0	0.0	0.0
Cl	-2.235822	0.283397	-1.619123
H	1.091018	0.0	0.0
H	-0.338384	0.920229	0.482599
N	0.184342	1.282924	-2.109932
O	0.042498	2.34255	-1.520837
O	0.748717	1.109744	-3.182156
C	-0.086241	-1.137018	-2.194078
N	0.14895	-2.115521	-2.80012
C	-0.481814	-1.242221	0.731466
H	-0.086602	-1.213845	1.749633
H	-1.57212	-1.318823	0.77985
H	-0.083575	-2.144961	0.261171
H	2.802645	0.0	0.0
