15

C	-0.033406	0.01423	-0.003943
C	-0.426878	0.084339	-1.494242
F	1.378496	-0.018889	0.057747
H	-1.477516	0.386221	-1.458982
C	-0.455383	1.224779	0.714075
N	-0.601817	2.251742	1.26564
C	-0.516464	-1.206755	0.653683
N	-0.480466	-2.258754	1.185061
C	-0.318927	-1.285315	-2.162759
H	0.666183	-1.728509	-1.999571
H	-1.085615	-1.928552	-1.730847
H	-0.491566	-1.195361	-3.237654
C	0.401601	1.077313	-2.178345
N	1.043309	1.857249	-2.778575
F	-2.352794	-0.226738	0.119001
