15

C	-0.027848	0.032135	-0.001719
C	-0.420207	0.107112	-1.492015
F	1.383471	0.071805	0.064883
H	-1.481464	0.367416	-1.460209
C	-0.515603	1.206155	0.735301
N	-0.722158	2.210821	1.308217
C	-0.44692	-1.223016	0.635756
N	-0.360106	-2.278226	1.154574
C	-0.258653	-1.247838	-2.179361
H	-1.000111	-1.924826	-1.755158
H	0.74304	-1.65479	-2.022707
H	-0.435603	-1.149945	-3.25288
C	0.371389	1.14067	-2.160667
N	0.982428	1.952544	-2.750437
F	-2.330331	-0.335001	0.105543
