15

C	-0.015807	0.034795	0.001388
C	-0.407959	0.201841	-1.481525
F	1.395683	0.050202	0.06861
H	-1.467348	0.467639	-1.431236
C	-0.486389	1.171004	0.805804
N	-0.679429	2.144111	1.435108
C	-0.453478	-1.24942	0.564093
N	-0.38082	-2.335354	1.017643
C	-0.257222	-1.111149	-2.248292
H	-1.005692	-1.805766	-1.867057
H	0.740316	-1.535927	-2.114105
H	-0.430393	-0.94775	-3.314428
C	0.391491	1.267224	-2.087354
N	1.012539	2.1074	-2.624713
F	-2.32431	-0.305806	0.090008
