13

C	-0.462888	-0.007597	-1.429316
C	0.0	0.0	0.0
Cl	-2.236503	-0.004111	-1.579374
H	1.09259	0.0	0.0
H	-0.078528	-0.858473	-1.981981
H	-0.398397	0.839709	0.561228
N	0.043103	1.226909	-2.127021
O	-0.046993	2.288843	-1.521445
O	0.466834	1.070167	-3.267447
N	-0.435396	-1.246121	0.67203
O	-0.402971	-2.287176	0.017545
O	-0.763308	-1.161451	1.853092
Br	3.391492	0.0	0.0
