13

C	-0.587299	-0.085003	-1.385434
C	0.0	0.0	0.0
Cl	-2.338932	-0.352937	-1.343035
H	1.090425	0.0	0.0
H	-0.127952	-0.933211	-1.89337
H	-0.328542	-0.869051	0.568745
N	-0.244735	1.108444	-2.270997
O	-1.135866	1.833639	-2.684411
O	0.950533	1.194525	-2.511415
N	-0.483051	1.182697	0.751139
O	-0.543498	2.250408	0.144854
O	-0.752874	1.021284	1.939215
Br	3.430616	0.0	0.0
