13

C	-0.578501	-0.027941	-1.398173
C	0.0	0.0	0.0
Cl	0.07262	1.236968	-2.413917
H	1.088548	0.0	0.0
H	-1.661455	0.065079	-1.373853
H	-0.378136	-0.859166	0.557852
N	-0.325345	-1.410191	-1.983774
O	0.392459	-1.54578	-2.96202
O	-0.930957	-2.30227	-1.389658
N	-0.520171	1.201262	0.716489
O	-1.691039	1.524018	0.495404
O	0.22324	1.754841	1.51829
Br	3.503053	0.0	0.0
