13

C	-0.604721	-0.004721	-1.384751
C	0.0	0.0	0.0
Cl	0.165708	1.177397	-2.441006
H	1.086065	0.0	0.0
H	-1.669666	0.199973	-1.368947
H	-0.370789	-0.859948	0.565838
N	-0.468442	-1.37321	-1.997084
O	0.61745	-1.929886	-1.913992
O	-1.480806	-1.82084	-2.53703
N	-0.505946	1.207631	0.727553
O	0.251704	1.744329	1.52493
O	-1.671184	1.55462	0.511955
Br	3.537517	0.0	0.0
