18

C	0.0	0.0	0.0
C	-0.582771	-0.260048	-1.397906
Br	1.965542	0.0	0.0
H	-1.635634	-0.531768	-1.212114
C	-0.487623	1.332206	0.562451
H	-1.582974	1.316985	0.52924
H	-0.088255	2.161034	-0.023005
H	-0.15084	1.433549	1.594996
C	-0.353376	-1.064453	0.944894
N	-0.578398	-1.8577	1.783162
N	0.075031	-1.470706	-1.996657
O	0.750455	-1.330736	-3.016338
O	-0.10163	-2.538078	-1.412384
C	-0.506628	0.918364	-2.341012
H	-1.191221	1.689445	-1.986932
H	-0.835888	0.610714	-3.333173
H	0.508224	1.3136	-2.421183
Cl	-3.641276	0.0	0.0
