14

C	-0.413805	0.091108	-1.462182
C	0.0	0.0	0.0
F	-1.805626	0.262774	-1.509454
H	1.09234	0.0	0.0
H	-0.384527	-0.92182	0.453941
N	0.184372	1.194267	-2.159144
H	1.176436	0.987283	-2.260552
H	0.120911	1.972472	-1.505803
C	-0.131974	-1.170758	-2.181229
N	0.077916	-2.170386	-2.758204
N	-0.431098	1.232552	0.656992
H	0.244966	1.472706	1.368434
H	-1.337198	1.119082	1.087696
Cl	3.422305	0.0	0.0
