14

C	-0.384808	0.046719	-1.470378
C	0.0	0.0	0.0
F	-1.700296	0.505816	-1.624351
H	1.099854	0.0	0.0
H	-0.345344	0.948519	0.418256
N	0.492859	0.946848	-2.141805
H	1.439801	0.853558	-1.78064
H	0.492056	0.801951	-3.141685
C	-0.404112	-1.319274	-2.062833
N	-0.374883	-2.384092	-2.55804
N	-0.622289	-1.126424	0.690849
H	0.039695	-1.893158	0.702968
H	-0.780615	-0.871153	1.656539
Cl	3.452142	0.0	0.0
