14

C	0.0	0.0	0.0
C	-0.490594	0.067499	-1.427743
Br	2.017096	0.0	0.0
H	-1.59989	0.19924	-1.293666
H	-0.255351	-0.868	-1.928472
C	-0.320785	1.187377	0.817215
N	-0.506551	2.044685	1.601418
N	-0.527787	-1.211512	0.537909
H	-1.571161	-1.026354	0.457314
H	-0.302487	-1.24929	1.528817
N	0.077767	1.159741	-2.229687
O	0.144363	2.278496	-1.720745
O	0.414952	0.893775	-3.387171
H	-2.843289	0.0	0.0
