14

C	0.0	0.0	0.0
C	-0.524513	0.028576	-1.438982
Br	1.980776	0.0	0.0
H	-0.237107	0.932152	-1.973122
H	-1.641658	-0.023959	-1.244702
C	-0.341281	1.319302	0.568981
N	-0.515222	2.390498	1.021342
N	-0.516483	-1.017447	0.854347
H	-0.370553	-1.9069	0.385326
H	-1.548052	-0.822972	0.80372
N	-0.089167	-1.105074	-2.26067
O	0.315417	-0.862463	-3.404657
O	-0.184906	-2.24474	-1.791024
H	-2.874757	0.0	0.0
