14

C	0.0	0.0	0.0
C	-0.522879	-0.042359	-1.43214
Br	1.964639	0.0	0.0
H	-1.628747	-0.001985	-1.291428
H	-0.115739	0.774822	-2.023999
C	-0.318937	1.351807	0.529914
N	-0.490424	2.409981	1.015111
N	-0.570838	-1.069645	0.733592
H	-0.375865	-0.941038	1.72236
H	-1.61392	-0.901137	0.584856
N	-0.162156	-1.299261	-2.124441
O	-0.867172	-2.288623	-1.93402
O	0.815545	-1.265133	-2.881891
H	-2.906498	0.0	0.0
