14

C	0.0	0.0	0.0
C	-0.517009	0.015564	-1.435409
Br	1.964787	0.0	0.0
H	-1.622751	0.05463	-1.300534
H	-0.102472	0.853067	-1.993209
C	-0.314389	1.33381	0.576623
N	-0.484462	2.381912	1.083411
N	-0.574273	-1.096054	0.689025
H	-1.617696	-0.918155	0.544794
H	-0.381051	-1.008223	1.682567
N	-0.158235	-1.215757	-2.174087
O	-0.869891	-2.207365	-2.025878
O	0.824455	-1.158409	-2.923138
H	-2.906115	0.0	0.0
