16

C	-0.209719	0.06643	-1.537977
C	0.0	0.0	0.0
Cl	-0.103406	-1.655113	-2.229914
H	1.092069	0.0	0.0
N	-1.532268	0.502168	-1.921267
H	-1.631272	0.416724	-2.926743
H	-1.599761	1.485578	-1.678113
N	0.859875	0.880216	-1.971089
H	0.959947	0.870642	-2.976799
H	1.735474	0.616032	-1.478413
N	-0.616238	-1.182905	0.651933
O	-1.796739	-1.09541	0.998494
O	0.093859	-2.173956	0.801053
C	-0.524601	1.211457	0.599578
N	-0.921619	2.215099	1.064695
F	2.582059	0.0	0.0
