16

C	-0.181777	-0.089617	-1.530023
C	0.0	0.0	0.0
Cl	-0.157536	1.87674	-2.119492
H	1.090141	0.0	0.0
N	0.920605	-0.713835	-2.054998
H	1.774881	-0.495803	-1.499865
H	1.023732	-0.611794	-3.053531
N	-1.431432	-0.586177	-1.942525
H	-2.168489	0.046003	-1.655468
H	-1.463311	-0.703371	-2.947686
N	-0.475901	-1.299842	0.582955
O	0.210293	-2.288512	0.356874
O	-1.522973	-1.297885	1.233574
C	-0.652883	1.098173	0.671269
N	-1.16135	1.970478	1.272869
F	2.565771	0.0	0.0
