16

C	-0.01208	0.037228	-1.537203
C	0.0	0.0	0.0
Cl	-1.656883	0.125586	-2.275444
H	1.093316	0.0	0.0
N	0.685219	1.27029	-1.842271
H	0.810233	1.335682	-2.847021
H	1.604555	1.151808	-1.395913
N	0.603209	-1.199717	-1.963544
H	0.750983	-1.153822	-2.966522
H	1.514954	-1.203161	-1.49365
N	-0.565886	-1.261948	0.540478
O	0.202407	-2.207381	0.690731
O	-1.773174	-1.280058	0.795894
C	-0.61913	1.147526	0.619462
N	-1.089012	2.077057	1.163078
F	2.581136	0.0	0.0
