16

C	-0.5342	-0.020334	-1.441295
C	0.0	0.0	0.0
Cl	0.387226	-1.165105	-2.465611
H	1.089635	0.0	0.0
N	-1.908921	-0.49586	-1.43334
H	-2.285279	-0.454509	-2.374381
H	-2.457693	0.112774	-0.832297
N	-0.281946	1.290493	-2.013771
H	-0.433908	1.25823	-3.015048
H	-0.910131	1.969407	-1.596465
N	-0.457885	-1.209095	0.734276
O	-1.24801	-1.071341	1.673375
O	-0.006357	-2.282949	0.356513
C	-0.51822	1.180214	0.665051
N	-0.932464	2.187217	1.110961
F	2.455149	0.0	0.0
