16

C	-0.16654	-0.104982	-1.528785
C	0.0	0.0	0.0
Cl	-1.858611	-0.927957	-1.912289
H	1.09196	0.0	0.0
N	-0.189372	1.212424	-2.073761
H	-1.013022	1.726285	-1.78599
H	-0.166558	1.164953	-3.085672
N	0.860315	-0.927836	-2.034452
H	1.037804	-0.725653	-3.008936
H	1.704902	-0.748762	-1.460492
N	-0.456464	-1.212889	0.724122
O	0.054883	-2.275653	0.39665
O	-1.290371	-1.075312	1.621675
C	-0.608699	1.184886	0.557637
N	-1.06771	2.176998	0.989859
F	2.540652	0.0	0.0
