16

C	-0.169795	-0.077895	-1.533009
C	0.0	0.0	0.0
Cl	-0.096555	1.889601	-2.096869
H	1.089916	0.0	0.0
N	0.925675	-0.718369	-2.056408
H	1.046282	-0.586853	-3.049677
H	1.776754	-0.51351	-1.490621
N	-1.423423	-0.545045	-1.967805
H	-2.154609	0.095436	-1.686725
H	-1.441999	-0.646021	-2.974819
N	-0.466149	-1.301463	0.585484
O	0.176578	-2.299406	0.287537
O	-1.453359	-1.291592	1.322794
C	-0.657169	1.097609	0.669274
N	-1.180364	1.970016	1.257883
F	2.564432	0.0	0.0
