18
Coordinates from ORCA-job run
  C   0.93239158317835     -0.01600041960774      0.08330149516671
  C   -0.53099713531727     -0.38093818432516      0.36946501100902
  Br  1.89565975898817      0.17292355377497      1.87325890191143
  H   -0.52514593683774     -1.37165410108886      0.84364166907543
  N   1.04169408424487      1.28870022694162     -0.53280816283571
  H   1.94462861530406      1.70473999650698     -0.34577995344930
  H   0.94272968944367      1.16402413452020     -1.53519462599922
  N   1.55076017150301     -1.03148057583729     -0.69805024887895
  H   2.53341807269604     -0.83234707177592     -0.84273814942085
  H   1.46071420995395     -1.94358072482168     -0.26564607325203
  C   -1.29322900906115     -0.47277268150981     -0.95752813393251
  H   -2.30321190349466     -0.84727605117659     -0.77315953816546
  H   -0.80107501549272     -1.13685133547434     -1.66806290184309
  H   -1.38842262094058      0.51888706830244     -1.40794948711822
  C   -1.22812464021465      0.60897203565004      1.29560222482858
  H   -2.29753846047027      0.38556681005730      1.33372827621795
  H   -0.83702990837916      0.56677373368666      2.31144840965512
  H   -1.09622155510394      1.62331358617719      0.91547128703112
