18
Coordinates from ORCA-job run
  C   0.89474867896889     -0.16969249179996     -0.21718273951082
  C   -0.55808936255908     -0.46967483365138      0.17760805938145
  Br  1.46129537766371     -1.53948830423937     -1.62084333072654
  H   -0.55908386490370     -1.45485919740934      0.66321185838374
  N   1.74397026934372     -0.25834341669231      0.92081204239588
  H   1.65072718816031     -1.15235438187746      1.38884735698223
  H   2.71415516815544     -0.12235997637761      0.66302234637782
  N   1.00856437467682      1.10928872731882     -0.88429436415519
  H   1.12301543311840      1.81968456672494     -0.16850510697043
  H   1.81547631497987      1.13093502838515     -1.49403252729109
  C   -1.51077769698655     -0.50120911054243     -1.01193945598414
  H   -1.39625680265853      0.41168356861810     -1.59870914723957
  H   -2.54222584278761     -0.56088615369228     -0.65478060970857
  H   -1.32779290675582     -1.35564476380185     -1.66242743219879
  C   -1.02931888632187      0.58068422200421      1.19003790834444
  H   -1.12025939589234      1.55714976250276      0.70674015440174
  H   -0.34858080566815      0.66853476775289      2.03676785402189
  H   -2.01856724053352      0.30755198677714      1.56566713349593
