14

C	0.0	0.0	0.0
C	-0.354951	-0.082775	-1.540031
Br	1.956445	0.0	0.0
H	0.563525	-0.382277	-2.053491
H	-0.307049	0.893375	0.520968
N	-0.392223	-1.170202	0.808627
O	-0.360592	-2.274784	0.248107
O	-0.500744	-1.006906	2.02558
C	-0.61052	1.304485	-1.954677
N	-0.740594	2.417318	-2.308439
N	-1.385691	-0.961008	-2.067865
H	-2.183156	-0.786396	-1.4463
H	-1.074766	-1.906124	-1.871143
H	-2.145518	0.0	0.0
