14

C	0.0	0.0	0.0
C	-0.55769	-0.064706	-1.417051
Br	1.918879	0.0	0.0
H	-1.59261	-0.437491	-1.22769
H	-0.388589	0.862522	0.530595
N	-0.398531	-1.212117	0.800407
O	-0.542667	-2.262976	0.185022
O	-0.441735	-1.07554	2.017591
C	0.17707	-0.932375	-2.324823
N	0.698983	-1.627313	-3.117714
N	-0.598397	1.320432	-1.906692
H	-0.719477	1.30079	-2.914259
H	-1.470808	1.679014	-1.508842
H	-2.739699	0.0	0.0
