14

C	0.0	0.0	0.0
C	-0.520751	0.509391	-1.334526
Br	1.913663	0.0	0.0
H	-1.613894	0.552796	-1.166735
H	-0.342878	0.70061	0.775735
N	-0.606382	-1.28988	0.35246
O	-1.749484	-1.420613	-0.264729
O	-0.382684	-1.681283	1.522048
C	-0.243609	-0.432044	-2.431363
N	0.000886	-1.060812	-3.394713
N	-0.032628	1.860245	-1.597573
H	-0.562796	2.245103	-2.370748
H	0.941292	1.823991	-1.876564
H	-2.80824	0.0	0.0
