13
Coordinates from ORCA-job run
  C   -0.21841998183614     -0.26396462281695      0.10174672549349
  C   0.89259537467036      0.38155367999559     -0.38786792281618
  C   -1.48423376187121      0.46257785356527      0.43566885314227
  H   -1.74842581421574      0.29226611472395      1.48364272977595
  H   -2.30146961479007      0.08486723736483     -0.18444054837430
  H   -1.38797834555490      1.53430909982017      0.27382561497837
  N   -0.25233691803731     -1.61068153297248      0.24347995759670
  H   -0.97596314334712     -2.01701884576482      0.81108730667140
  H   0.60413619865888     -2.13835012693840      0.16360401445019
  C   0.90980617480150      1.78855427215145     -0.60631026550268
  N   0.91607476241323      2.95208026249893     -0.78118042111429
  C   2.06374875433679     -0.37852354439953     -0.67540132447534
  N   2.98146631477171     -1.08766984722801     -0.87785471982558
