13
Coordinates from ORCA-job run
  C   -0.20506334022942     -0.16342118123278      0.24396029658125
  C   0.89891640483768      0.39953297367935     -0.35138574558836
  C   -1.49384994506117     -0.36643771025768     -0.49070540737475
  H   -1.72536681847730     -1.43376811947234     -0.54071785243206
  H   -2.31076172718513      0.13229053921879      0.03948611702787
  H   -1.44679748655697      0.02962840179664     -1.50314908983872
  N   -0.16498026909816     -0.63659238793977      1.51292147190440
  H   -1.03500872373608     -0.81094919500834      1.98590043355027
  H   0.62406180277857     -0.40831331772162      2.09936208577079
  C   0.88353231390876      0.83381411611894     -1.70730277812998
  N   0.86175685014992      1.19400009374979     -2.82723170066754
  C   2.08990258419018      0.56433533716815      0.41439002598747
  N   3.02365835447913      0.66488044990088      1.12447214320937
