13
Coordinates from ORCA-job run
  C   -0.19131608580516     -0.16162188246765      0.25668697239356
  C   0.86996262397311      0.42353683638441     -0.39285966625129
  C   -1.48052772684348     -0.47391937621486     -0.43760805423295
  H   -1.47255380695169     -0.13494761457611     -1.47176664369920
  H   -1.65805663075946     -1.55257614680029     -0.42170124266168
  H   -2.31176649976788      0.01405182639255      0.07993367543512
  N   -0.10304650716436     -0.55525146389894      1.55018756495677
  H   0.68141190062527     -0.24799144217807      2.10579500149469
  H   -0.95400160535951     -0.74849019432817      2.05010886803812
  C   0.80888631434383      0.77538575483340     -1.77115656297091
  N   0.75088919042904      1.06830395311234     -2.90912638026896
  C   2.06208106144435      0.69991660943682      0.33871541084490
  N   2.99903777183595      0.89360314030457      1.02479105692184
