13
Coordinates from ORCA-job run
  C   -0.23138023236086     -0.25312650160466      0.10271009335874
  C   0.92419717624725      0.33792532823323     -0.35089497167149
  C   -1.49765678390301      0.51878742911821      0.30866384786752
  H   -1.36220750619938      1.57802443962365      0.09938607333393
  H   -1.83892840196537      0.41026750744992      1.34254260963944
  H   -2.27932008782380      0.12735291444299     -0.34786064135969
  N   -0.30835780085728     -1.58786316568805      0.32015990558773
  H   -1.07628090395722     -1.94378047881858      0.86296462496006
  H   0.53715506412964     -2.13856149291642      0.32521943748673
  C   0.99132102559078      1.72932517719147     -0.64685754348230
  N   1.04021967612110      2.88046579922538     -0.88529835171455
  C   2.09302848258145     -0.46129192049113     -0.51494971038564
  N   3.00621029239671     -1.19752503576601     -0.61478537362048
