13
Coordinates from ORCA-job run
  C   -0.23444475703296     -0.03673040202366      0.26775068276982
  C   0.94870797996539      0.18641345236502     -0.39646891305963
  C   -1.53691549591894     -0.20432683695011     -0.45156281764373
  H   -2.23042958653268      0.58430623389251     -0.14790301496889
  H   -1.40857776890257     -0.16104284515872     -1.53124009503696
  H   -1.98611848882070     -1.16803147463596     -0.19377113989455
  N   -0.29787008697854     -0.04792274753364      1.62070488199452
  H   -1.11286019573727     -0.43793774497045      2.06187278815470
  H   0.55722293293716     -0.07374579616752      2.15589720243400
  C   2.14994058036327      0.32752813654516      0.35799809440304
  N   3.08697652147969      0.42631671976364      1.06388988633865
  C   1.01050635606392      0.27047564130292     -1.81656952290012
  N   1.05386200911423      0.33569766357080     -2.99059803259086
