13
Coordinates from ORCA-job run
  C   -0.21011797169213     -0.25574073990202      0.13490519007621
  C   0.90875553058970      0.37906770537078     -0.35062584591358
  C   -1.49683212201224      0.46835728544379      0.38336513079577
  H   -1.42738830783765      1.51853656368902      0.10713388366583
  H   -2.30295371584200      0.00962561866359     -0.19694315085791
  H   -1.76078363549157      0.39946730606435      1.44198072405918
  N   -0.18880679187173     -1.56439261222313      0.48460781483269
  H   -1.06439715280852     -2.04351573239025      0.60658269015203
  H   0.59973849411952     -2.13461707910487      0.21733107998584
  C   2.09529053313519     -0.38025923406231     -0.56876123411785
  N   3.02284072390937     -1.08962061003681     -0.71860586314968
  C   0.91397376630863      1.77152263578335     -0.64840828855039
  N   0.90968064949343      2.92256889270450     -0.89256213097815
