13
Coordinates from ORCA-job run
  C   -0.22864642777252     -0.24314585410911      0.12840037076166
  C   0.94335558517772      0.33044627111748     -0.30524303010865
  C   -1.48894458273367      0.54560802801108      0.30420731293141
  H   -1.81716259566099      0.49090763926434      1.34565915771906
  H   -1.35118642406346      1.59089013698698      0.03425485554740
  H   -2.28197676081360      0.12751542035338     -0.32324419644974
  N   -0.29047035993239     -1.54752294576516      0.48957272903578
  H   0.48063224527572     -2.15858163445250      0.26470948365956
  H   -1.19491180324257     -1.98081924902379      0.56512019898253
  C   1.03362791086113      1.71742771537332     -0.61495008475236
  N   1.10141431234837      2.86413954408640     -0.86974170612981
  C   2.09949810334173     -0.48949983414082     -0.45909295156206
  N   2.99477079721451     -1.24736523770161     -0.55965213963477
