13
Coordinates from ORCA-job run
  C   -0.21037898090809     -0.07345788373501      0.28141788819894
  C   0.84073977620643      0.42227204035755     -0.45376646153506
  C   -1.44503678795354     -0.62666255481062     -0.35987852393306
  H   -1.51782238806799     -1.69948812338278     -0.15542158599766
  H   -1.43694704330005     -0.48293439770089     -1.43864977744112
  H   -2.33194104204099     -0.14178764343323      0.05599364112232
  N   -0.20113356566026     -0.04981412379264      1.63401249798325
  H   -0.87625163754697     -0.59857222263861      2.13762390472261
  H   0.65347415956137      0.17296007057345      2.12203380966717
  C   1.99833552906893      0.89809931290081      0.22899516825243
  N   2.91241684704486      1.25589745346561      0.87900419487212
  C   0.81929089368302      0.44916367721684     -1.87716240550532
  N   0.79625423991328      0.47432439497951     -3.05320235040662
