13
Coordinates from ORCA-job run
  C   -0.19337638980534     -0.15434648384077      0.25817457311335
  C   0.86784524662050      0.43184650954266     -0.39073968936782
  C   -1.47080294865578     -0.49617258928147     -0.44393029865521
  H   -2.31231310821687      0.00405233823122      0.04470545832901
  H   -1.44918177853789     -0.19354835253952     -1.48893410608629
  H   -1.64297163457486     -1.57450696537101     -0.39358955272623
  N   -0.11592093702462     -0.51895747432338      1.56000196360729
  H   0.66215360825131     -0.20218298606128      2.11890868947276
  H   -0.96545834641505     -0.73108285396758      2.05410315735902
  C   0.81814185033675      0.75097694962458     -1.77764195820960
  N   0.76900201088320      1.01240784764524     -2.92382164524500
  C   2.05094483121769      0.73011093303745      0.34628040262993
  N   2.98093759592095      0.94140312730385      1.03648300577880
