13
Coordinates from ORCA-job run
  C   -0.19340106748094     -0.15252547370178      0.25679700565408
  C   0.86621665829517      0.43841506615759     -0.39043396483136
  C   -1.48174273067593     -0.46524410356626     -0.43848257049222
  H   -1.49056876445400     -0.08607651881867     -1.45828629333029
  H   -2.32228420119720     -0.02461837683879      0.10625696551855
  H   -1.63009436689502     -1.54813188544536     -0.46661945751689
  N   -0.09874262637353     -0.56338490354493      1.54437039572435
  H   0.68633656600118     -0.26050718819938      2.10127214969201
  H   -0.94473956518640     -0.77606217263776      2.04478191838376
  C   2.06610072236874      0.68740487179374      0.33760231992298
  N   3.00643391579270      0.84433905692114      1.02838488384991
  C   0.79937887872394      0.80346318438388     -1.76503432791544
  N   0.73610658108129      1.10092844349656     -2.90160902465943
