13
Coordinates from ORCA-job run
  C   -0.20901760292674     -0.27342141222481      0.09750466308654
  C   0.92253602034050      0.45494934818166     -0.18472980341889
  C   -1.57313444230584      0.34345957675900      0.12020197136039
  H   -2.00654630699407      0.24417802453339      1.11887731805511
  H   -1.54219045527654      1.39830946797789     -0.14507774128928
  H   -2.22947998870111     -0.17308334602138     -0.58651117199490
  N   -0.14390483657433     -1.58187720069137      0.44181630324818
  H   0.72239327684779     -2.08422497032694      0.31720511770337
  H   -0.98632444912980     -2.13004623713741      0.41261599401027
  C   2.18600135607021     -0.20500455220462     -0.19651971316168
  N   3.18046609914220     -0.83523133249468     -0.18945557764574
  C   0.86694832609952      1.84693768196133     -0.47974687524213
  N   0.81125300340821      2.99605495168794     -0.72618048471122
