13
Coordinates from ORCA-job run
  C   -0.18710854832792     -0.24410863943688      0.18132451524249
  C   0.84588530078709      0.34737005508923     -0.50702624624165
  C   -1.53128465177200      0.40094042820189      0.31826362200279
  H   -1.55963036390275      1.37790049612269     -0.16005581680185
  H   -1.78111037201008      0.52457268758075      1.37630163141780
  H   -2.29436744480871     -0.23597625534385     -0.13688763429239
  N   -0.06615849770550     -1.48213926958892      0.71735195736629
  H   -0.74305977146223     -1.78033303275397      1.39837936079827
  H   0.84602554911324     -1.90993374708059      0.77492315828259
  C   2.09895196781947     -0.32755915517894     -0.58782731501927
  N   3.09359869389494     -0.95740490503860     -0.59565455838389
  C   0.70234200108939      1.61779124688579     -1.13384763954548
  N   0.57591613728506      2.66888009054140     -1.64724503482570
