13
Coordinates from ORCA-job run
  C   -0.24391789171169     -0.22195418101226      0.13653101076842
  C   0.95458130899343      0.24035276851353     -0.35396869197332
  C   -1.47789132634805      0.62662408014561      0.16483445035030
  H   -2.24698878895897      0.18338763020891     -0.47303805807346
  H   -1.27641827735379      1.63764900928648     -0.18299442142589
  H   -1.87113004797441      0.68288048110504      1.18419783067986
  N   -0.39600799625921     -1.50261951170167      0.55146776020435
  H   -1.19919821170207     -1.73207898809664      1.11139651231142
  H   0.42055993962560     -2.08079907901396      0.68322783381831
  C   2.08415545432701     -0.62965145697522     -0.35373137320784
  N   2.95684488689493     -1.41901332628269     -0.31195269143959
  C   1.09656724494014      1.56106933866009     -0.86703035972853
  N   1.19984370552708      2.65415323516276     -1.28993980228403
