13
Coordinates from ORCA-job run
  C   -0.21049308816387     -0.26013908382831      0.12416560313066
  C   0.91301310327891      0.39227446429906     -0.32586394214299
  C   -1.49812854542694      0.45487512810276      0.39310923452555
  H   -1.77265436031337      0.33798762164317      1.44478372227593
  H   -1.42425465499071      1.51642000796283      0.16566550205282
  H   -2.29936766888793      0.02463833715400     -0.21524705811177
  N   -0.19399396909213     -1.58247980161355      0.41882149900432
  H   0.59483762787984     -2.14256388899476      0.13145286267877
  H   -1.07182636064293     -2.06426589434191      0.51084258036376
  C   2.09864882690203     -0.36078456090240     -0.56907805860078
  N   3.02368891233420     -1.06757590215407     -0.74520594645097
  C   0.92179518503067      1.79553307551471     -0.56738743853897
  N   0.91873499209224      2.95508049715846     -0.76705856018635
