13
Coordinates from ORCA-job run
  C   -0.23879950482961     -0.24725771742175      0.09832907049205
  C   0.92794467344688      0.31694576893557     -0.36108287599702
  C   -1.46856632585122      0.56339229792469      0.36689425769304
  H   -1.79117927096383      0.42327698917801      1.40293022419619
  H   -2.27948664713447      0.23249512710800     -0.28728642238661
  H   -1.29513832076985      1.62462940863804      0.20014458600008
  N   -0.36227924015612     -1.58598742958083      0.26496619453282
  H   -1.13013098214467     -1.93357385436842      0.81323949871510
  H   0.46289462190859     -2.16608030904770      0.23124299060932
  C   2.05862983743345     -0.52139510227033     -0.58709895381027
  N   2.93636479747155     -1.29195010988978     -0.73518920510741
  C   1.04338144474967      1.71495019002954     -0.60552959555888
  N   1.13436491683965      2.87155474076495     -0.80155976937842
