13
Coordinates from ORCA-job run
  C   -0.23784468888154     -0.07649090154169      0.25558683032476
  C   0.93068483213703      0.32176131523696     -0.34989690704199
  C   -1.47997906537301     -0.38008741060950     -0.52321913927746
  H   -2.27616854937321      0.31046002540543     -0.23293904455371
  H   -1.81908634411361     -1.39754288319961     -0.30672096749692
  H   -1.31415307181566     -0.29250599850282     -1.59510204200665
  N   -0.35070378462791     -0.14611174903898      1.60378490918881
  H   0.48071054024746     -0.08587655511943      2.17271780240183
  H   -1.12402321851019     -0.65519888761611      1.99599419672723
  C   2.07327051867414      0.58673676392480      0.46044396047452
  N   2.96098113423503      0.77343786955718      1.21092457724170
  C   1.03623932859083      0.46501141212183     -1.76263339979737
  N   1.11907236881065      0.57740699938194     -2.93094077618475
