13
Coordinates from ORCA-job run
  C   -0.20994554114877     -0.27873221194225      0.07818901057041
  C   0.92409201358142      0.46400002585302     -0.15237905405718
  C   -1.57450632384690      0.33609039934917      0.12106105069003
  H   -1.54096323781063      1.40412213060108     -0.08451144804690
  H   -2.22327724555044     -0.13966715284232     -0.62035973792190
  H   -2.01829106787099      0.18171212730287      1.10813855750400
  N   -0.14760043279174     -1.60399720046042      0.35045942579742
  H   0.72027555447121     -2.09897950653594      0.20896459226114
  H   -0.98942812098162     -2.14987021644530      0.28560759720473
  C   2.18818560418850     -0.19412662248921     -0.18366959650653
  N   3.18326971441152     -0.82316524337204     -0.19421025251876
  C   0.87102302780381      1.87044979068089     -0.36856498720539
  N   0.81816605554462      3.03216368030045     -0.54772515777106
