13
Coordinates from ORCA-job run
  C   -0.22082246513846     -0.05240256464410      0.27588591894235
  C   0.90448879034701      0.29314021990703     -0.43485416185627
  C   -1.49702820620307     -0.45843355718901     -0.39328229383964
  H   -1.79465406565301     -1.45676385150095     -0.05915409351894
  H   -2.29352410705677      0.23983565901543     -0.12286815591790
  H   -1.39636009710785     -0.47255520504036     -1.47668149315270
  N   -0.25837693993490      0.02471129020961      1.62763301546166
  H   0.60002009370735      0.16199172123144      2.13996762233852
  H   -1.00011419558560     -0.44633966856828      2.11644502226680
  C   2.08360742158166      0.66523695763451      0.27480955916122
  N   3.00661669210542      0.95284260412813      0.94666242348030
  C   0.92795905590755      0.28223438674336     -1.85854719677312
  N   0.93918802303067      0.26850200807319     -3.03501616659229
