13
Coordinates from ORCA-job run
  C   -0.21346051763116     -0.07662502675106      0.27602485019204
  C   0.88012318104233      0.36672398142270     -0.42978820516709
  C   -1.48590036161995     -0.49049629329664     -0.39577493106738
  H   -1.41084922157039     -0.41951430534209     -1.47895782400025
  H   -2.30731063840452      0.14643031738510     -0.05712554113051
  H   -1.72868140225968     -1.52425009789443     -0.13205369327192
  N   -0.22335174722225     -0.09913629354517      1.63056139219416
  H   -0.93222307337049     -0.63924358738652      2.09645455884964
  H   0.64106256664511      0.03424575748853      2.13414026046097
  C   2.06121065806023      0.73049233229458      0.28073150119583
  N   2.99000429351089      0.99875816379930      0.95254598982395
  C   0.87247609454629      0.45476699473846     -1.85096802816994
  N   0.85690016827361      0.51884805708724     -3.02579032990952
