13
Coordinates from ORCA-job run
  C   -0.21500541656774     -0.26862094597991      0.09683336192128
  C   0.90856743808555      0.40409500224251     -0.32236272526790
  C   -1.54069815911918      0.40880682409731      0.25682870067581
  H   -1.47850142359209      1.47258560233534      0.03652417223699
  H   -1.90208050257132      0.28751901221223      1.28235166193154
  H   -2.27168617765773     -0.04767891416907     -0.41584715363458
  N   -0.20053749603011     -1.60422006080160      0.32168322199490
  H   0.68294934466886     -2.09031173698171      0.36042208951964
  H   -0.95859706269720     -2.01355020158697      0.84007741367806
  C   2.13686919598289     -0.30876748575684     -0.44450936264881
  N   3.10276087071423     -0.97869092857491     -0.50974014945463
  C   0.88243918946222      1.79490502359370     -0.62718275869596
  N   0.85252019932161      2.94492880936990     -0.87407847225633
