13
Coordinates from ORCA-job run
  C   -0.21476568419283     -0.26059470986610      0.11636558770198
  C   0.92250978903336      0.39202395217653     -0.29798244029791
  C   -1.51237669353941      0.45325898636886      0.33591373370216
  H   -1.82208954924841      0.34667946155649      1.37874986143672
  H   -2.29142423856155      0.01449069381579     -0.29461997436555
  H   -1.43423770269474      1.51259924335060      0.10005550360895
  N   -0.20638006240243     -1.58122058458009      0.41525654308374
  H   -1.08444316573659     -2.06459065099020      0.49535957138567
  H   0.59507379927375     -2.14199127921400      0.16788080711272
  C   2.11904899087260     -0.35795142445608     -0.49195546829738
  N   3.05452192330704     -1.06016896237659     -0.62617216757303
  C   0.93604664659151      1.79405895992750     -0.54672931773054
  N   0.93751594729769      2.95240631428728     -0.75312223976753
