13
Coordinates from ORCA-job run
  C   -0.23482174818478     -0.09322593607884      0.25240763237012
  C   0.96038780553221      0.22194954228374     -0.35003688316473
  C   -1.50004182765580     -0.27710189058649     -0.52690990111901
  H   -2.26403857121037      0.41988267393690     -0.16970257607271
  H   -1.87696974657746     -1.29345824189601     -0.38537845863042
  H   -1.34640043123207     -0.10512070696429     -1.59026359458397
  N   -0.31988566726915     -0.32347677119361      1.58443357331149
  H   -1.22778433846250     -0.32272189996639      2.01647651171418
  H   0.45975789973010     -0.08524783186787      2.17910995547114
  C   2.12059392521585      0.39234934108132      0.46045465562272
  N   3.01942984332514      0.52085197436347      1.20990023616849
  C   1.06779364079079      0.39898361776724     -1.75884329598554
  N   1.14197921599805      0.54733612912084     -2.92364785510178
