13
Coordinates from ORCA-job run
  C   -0.21045069883432     -0.27076817708715      0.10087280127021
  C   0.92606036800214      0.45028695437131     -0.18038218264661
  C   -1.57473210476479      0.34569264026735      0.08248800773183
  H   -1.53893010540169      1.39383553214280     -0.20763275095913
  H   -2.02736630186697      0.27047896867246      1.07471128055438
  H   -2.21750673089924     -0.18793203009178     -0.62401730868175
  N   -0.15148337263327     -1.56943304183767      0.48194187111519
  H   0.71668063035035     -2.07449092702894      0.38413287995195
  H   -0.99323386721828     -2.11854634080061      0.44971311624357
  C   0.87555341591544      1.83332422675074     -0.51535812023092
  N   0.82414347230217      2.97514406420082     -0.79488137772823
  C   2.18943637647978     -0.20921323738039     -0.14901271689093
  N   3.18282891856868     -0.83937863217895     -0.10257549972955
