13
Coordinates from ORCA-job run
  C   -0.21212947388236     -0.12817768954440      0.25980051543694
  C   0.83845742597590      0.51958447734445     -0.34548992327969
  C   -1.41900029681826     -0.57804042759008     -0.50492447992799
  H   -1.39750547125912     -1.66616632723149     -0.62001890232429
  H   -1.45696461071809     -0.13174656135949     -1.49722112776460
  H   -2.32934201066962     -0.30886414532810      0.03743809029942
  N   -0.22802280474804     -0.37212370944598      1.59044239096350
  H   -0.90436064039274     -1.01957788232273      1.95689325513155
  H   0.60766922142605     -0.22913691144898      2.13707730489021
  C   1.97356672927894      0.88028850746012      0.43864446218656
  N   2.86201692474630      1.13568789409474      1.16753680076202
  C   0.83581377762534      0.82804924087975     -1.73492255361282
  N   0.82980122943570      1.07022353449219     -2.88625583276081
