13
Coordinates from ORCA-job run
  C   -0.21871530323368     -0.08887115057444      0.26746995529800
  C   0.90480757656179      0.34411174799234     -0.39702022035997
  C   -1.49180815574353     -0.42263937778787     -0.44729610591159
  H   -2.28105234686547      0.26382064240075     -0.12755368523565
  H   -1.37982186829644     -0.34777733066482     -1.52716615514586
  H   -1.80907074879507     -1.44007834260629     -0.20017341765962
  N   -0.26125894331238     -0.16320717434570      1.61875827967660
  H   -0.99974301617858     -0.69043804161026      2.05157642791845
  H   0.59056963213569     -0.06173303256967      2.14940173790685
  C   2.07929162803031      0.64406795538831      0.35230114436510
  N   2.99698415999809      0.86727539108065      1.05487089505549
  C   0.92947408276797      0.49130570245026     -1.81259203094256
  N   0.94034330293129      0.60616301084672     -2.98357682496527
