16

C	-0.415858	0.039824	-1.472412
C	0.0	0.0	0.0
F	-0.047122	1.245506	-1.982072
H	1.096026	0.0	0.0
N	0.372061	-1.019539	-2.242444
O	0.94753	-0.673898	-3.262741
O	0.275128	-2.161076	-1.805477
C	-1.878964	-0.194407	-1.762898
H	-2.046114	-0.138172	-2.84213
H	-2.457432	0.589433	-1.27039
H	-2.192011	-1.168498	-1.388615
C	-0.499854	-1.153742	0.720776
N	-0.841006	-2.086021	1.352378
C	-0.455186	1.215759	0.650021
N	-0.777152	2.21053	1.190014
H	2.465817	0.0	0.0
