16

C	-0.391596	-0.102097	-1.469743
C	0.0	0.0	0.0
F	-1.747239	-0.275396	-1.630478
H	1.094971	0.0	0.0
N	-0.08336	1.24068	-2.126617
O	-0.9644	2.095184	-2.067669
O	1.021287	1.373247	-2.641821
C	0.375741	-1.194638	-2.160574
H	0.021652	-2.153942	-1.779531
H	0.212592	-1.149908	-3.238629
H	1.43736	-1.072802	-1.919993
C	-0.412762	-1.210172	0.688855
N	-0.716429	-2.211307	1.226164
C	-0.513346	1.173073	0.681122
N	-0.904549	2.129164	1.242601
H	2.495303	0.0	0.0
