16

C	-0.427879	0.05989	-1.469995
C	0.0	0.0	0.0
F	0.0311	1.229246	-1.989096
H	1.096071	0.0	0.0
N	0.258456	-1.065009	-2.240603
O	-0.034572	-2.198562	-1.869988
O	0.96008	-0.768432	-3.195286
C	-1.909994	-0.050525	-1.738184
H	-2.087248	-0.003566	-2.816471
H	-2.409392	0.793021	-1.258291
H	-2.302076	-0.98516	-1.339794
C	-0.497096	-1.15533	0.721173
N	-0.832695	-2.085754	1.359583
C	-0.448957	1.215526	0.655636
N	-0.769731	2.216037	1.186089
H	2.470471	0.0	0.0
