16

C	-0.291743	0.375159	-1.447166
C	0.0	0.0	0.0
F	0.172513	-0.629546	-2.237324
H	1.106733	0.0	0.0
N	-1.800343	0.438588	-1.707131
O	-2.311941	-0.438783	-2.394871
O	-2.389848	1.381367	-1.183788
C	0.348923	1.679579	-1.835482
H	0.219713	1.839434	-2.908694
H	-0.093587	2.505167	-1.281438
H	1.410552	1.586043	-1.586371
C	-0.503679	-1.315098	0.342963
N	-0.873528	-2.390923	0.642112
C	-0.416364	1.002577	0.957506
N	-0.649271	1.816799	1.774684
H	2.471284	0.0	0.0
