16

C	-0.286839	0.075458	-1.494374
C	0.0	0.0	0.0
F	0.184166	-1.064604	-2.064213
H	1.106981	0.0	0.0
N	-1.797801	0.079762	-1.773535
O	-2.286455	-0.879625	-2.359845
O	-2.405121	1.071472	-1.379328
C	0.348072	1.277548	-2.137107
H	1.409509	1.243907	-1.870357
H	-0.101421	2.196544	-1.762035
H	0.223223	1.215439	-3.220962
C	-0.511086	-1.221368	0.588506
N	-0.892667	-2.231067	1.055366
C	-0.408068	1.175917	0.739396
N	-0.630427	2.138977	1.377749
H	2.473085	0.0	0.0
