16

C	-0.306793	0.108097	-1.490451
C	0.0	0.0	0.0
F	0.102125	-1.045616	-2.085358
H	1.097924	0.0	0.0
N	-1.820553	0.17216	-1.720634
O	-2.402067	-0.863337	-2.026867
O	-2.346662	1.26948	-1.542934
C	0.375085	1.288508	-2.1237
H	0.2192	1.261848	-3.204484
H	1.438399	1.190594	-1.882678
H	-0.011546	2.222001	-1.719604
C	-0.498409	-1.232364	0.579762
N	-0.865445	-2.242792	1.057129
C	-0.432478	1.161226	0.751113
N	-0.697861	2.106134	1.400201
H	2.486423	0.0	0.0
