17
Coordinates from ORCA-job run
  C   -0.59726008294125     -0.27637477091240      0.46729496314309
  C   0.72572295665007      0.48174053485323      0.35587460557086
  H   -0.56869216669390     -0.88256818578104      1.37519122364816
  H   0.90099293056305      1.02706694537312      1.28327714702953
  C   -0.95088065533829     -1.09895317781606     -0.75050143446716
  H   -0.17819274261874     -1.85025817233551     -0.92782318410309
  H   -1.89851933848441     -1.61413992009542     -0.59610732310844
  H   -1.05848012365953     -0.47101547755965     -1.63413734411890
  N   -1.64032604913196      0.77827882750802      0.74659977129799
  O   -2.56916150122739      0.90733745106034     -0.04252564932792
  O   -1.47034090654326      1.43535243820680      1.77027812251060
  N   0.75711056555322      1.35076163774771     -0.75605335058496
  H   1.52530541686808      2.00463263257925     -0.69597831832871
  H   0.83002182661773      0.84501615773572     -1.62869874954401
  N   1.81123311780637     -0.60880852717361      0.34585426650477
  O   2.42916844400403     -0.78873528841966     -0.69977876656421
  O   1.95229830857620     -1.23933310497083      1.38923402044240
