17
Coordinates from ORCA-job run
  C   -0.60812020034380     -0.27803940102739      0.48134342009436
  C   0.73233582521370      0.45153735277678      0.35793534808034
  H   -0.62351180345974     -0.87843755557257      1.39581673975086
  H   0.95829277326800      0.97356929663231      1.28736370636800
  C   -0.93721476959938     -1.11931706510327     -0.73179412296116
  H   -0.89991350321036     -0.50995977733175     -1.63461823722813
  H   -1.93254502683745     -1.54830976115854     -0.63616618502934
  H   -0.21905214357650     -1.93811265041328     -0.81413222426558
  N   -1.65490543008847      0.78821638820357      0.70249540383792
  O   -1.31714886355129      1.78318015931007      1.34050373785990
  O   -2.78451086054217      0.56868501573345      0.28057772840047
  N   0.75286885457751      1.31042211020928     -0.78399828470793
  H   1.09074305319802      2.23032599286817     -0.54315097087208
  H   1.32707915841349      0.91466899435158     -1.51754897418936
  N   1.78203186467176     -0.64612981039428      0.28080721279531
  O   2.46532547372567     -0.73521488425059     -0.73518988180014
  O   1.86824559814100     -1.36708440483354      1.26975558386657
