17
Coordinates from ORCA-job run
  C   -0.50412434112351     -0.39774932021376      0.29077721476528
  C   0.71394229293123      0.40014779748366     -0.14360404274250
  H   -0.19217407068866     -1.27276396476356      0.86073086548304
  H   0.41786192367818      1.43164544583061     -0.37245734015156
  C   -1.37934070295286     -0.79000104844052     -0.88931477850674
  H   -0.83493781720715     -1.47736552602547     -1.53587920849840
  H   -2.27701804953300     -1.29454280757518     -0.52794712156984
  H   -1.68085818805237      0.09339968526978     -1.45795697334495
  N   -1.35911108571031      0.40712589054881      1.22533122636997
  O   -1.50434029261620      1.60070682292852      0.96874410665968
  O   -1.90543050689564     -0.20387560107159      2.13602623690201
  N   1.42429486610189     -0.29474975584639     -1.19423240071591
  H   2.38004786864571      0.04361525700039     -1.20864129277852
  H   1.00544165603662     -0.06512582092668     -2.08699458020498
  N   1.66682742068434      0.55092424650450      1.02577671954025
  O   2.83858271350459      0.79740539984321      0.75796724042257
  O   1.19033631319713      0.46920329945367      2.15267412837061
