17
Coordinates from ORCA-job run
  C   -0.50426175666484     -0.30945221316446      0.24600381184733
  C   0.79294167408398      0.33002445412249     -0.23122511154912
  H   -0.27977522555168     -1.21259256481535      0.81504378924739
  H   0.60070436979472      1.27368981047520     -0.73887386072593
  C   -1.46847209595760     -0.57452656583248     -0.89703529416249
  H   -2.39348455641173     -1.00845020409779     -0.51348124623361
  H   -1.70433477184090      0.35567787326366     -1.41870630871613
  H   -1.02950645695172     -1.27856012128610     -1.60484831203052
  N   -1.18934088293861      0.60144387046269      1.22107287071646
  O   -1.17997637225072      1.80309717178315      0.95483933394200
  O   -1.74899043056942      0.07654286114991      2.17874554490628
  N   1.61455778784753     -0.52031626505252     -1.03524652972659
  H   1.54808943603111     -1.49577508724796     -0.78102633648246
  H   1.46479186254644     -0.38877020801320     -2.02290597880518
  N   1.61298438303925      0.70444056411687      0.98603257362734
  O   1.74210843320636     -0.17698182071659      1.83464459750560
  O   2.12096460258784      1.81850844485248      1.00896645663964
