17
Coordinates from ORCA-job run
  C   -0.60614918020089     -0.27516027602763      0.45762169714700
  C   0.72900460397462      0.46494694931021      0.37036456672860
  H   -0.59388106453179     -0.89539018555617      1.35632373097619
  H   0.90506712877949      0.99059326378687      1.30890757940332
  C   -0.95969426158803     -1.07469599685665     -0.77530150545111
  H   -1.04262014017341     -0.43445065025091     -1.65274548641762
  H   -0.20012214212520     -1.83960550803133     -0.95101283765319
  H   -1.91965269104091     -1.57227315432171     -0.64021522601984
  N   -1.63509770643436      0.79106336278171      0.74251846828266
  O   -1.46794475382437      1.42654606170028      1.78018681051793
  O   -2.54978601339923      0.95134376710091     -0.05726718593788
  N   0.78271411194690      1.35369115840517     -0.72481277139511
  H   0.85475164385906      0.86399377043866     -1.60659057785808
  H   1.55974026421273      1.99503177650539     -0.64646809779111
  N   1.79854959998789     -0.64160421952901      0.34902086874334
  O   2.42348487894852     -0.81055499650831     -0.69410673785730
  O   1.92063572160898     -1.29347512294749      1.38157670458222
