17
Coordinates from ORCA-job run
  C   -0.53849313493197     -0.40219992066718      0.16191984652661
  C   0.68991850961503      0.38581397644352     -0.25030108461773
  H   -0.25444951292847     -1.40522380360460      0.48240016051081
  H   0.42974693339212      1.40179690497661     -0.54246391028148
  C   -1.58882726135778     -0.43492827880446     -0.93501560673436
  H   -1.91595261838515      0.57955144748380     -1.17425982242225
  H   -2.45088851360497     -1.01764337847145     -0.60678186626920
  H   -1.16550161300004     -0.88824558227870     -1.83004722847121
  N   -1.15489958224168      0.22591912544248      1.37535159838134
  O   -1.77046731323472     -0.52007330289506      2.12920553550173
  O   -1.04930983788185      1.44634248580052      1.49234957669837
  N   1.36846077773067     -0.28386006939401     -1.31295853784466
  H   2.11558009355488      0.28637619742097     -1.68785741154685
  H   1.74561474721233     -1.17213961644875     -1.00388253887837
  N   1.60105254367368      0.56891007658298      0.95791658641280
  O   1.67808257125684     -0.37190678820869      1.74768898772593
  O   2.26133321113110      1.60251052662201      0.99573571530851
