18
Coordinates from ORCA-job run
  C   0.73984344963500      0.26332991586516      0.19664533194599
  C   -0.79556911324421      0.16656512799900      0.24671926161730
  Cl  1.08913099412612      1.95332516066930      0.91860228200342
  H   -1.11104933845027      0.39161193102371      1.26510236357022
  C   1.43058426738496     -0.72497589626636      1.11803345600799
  H   2.49515677198361     -0.48839689745217      1.17170573906758
  H   1.31256490395816     -1.73655944637570      0.72683244242958
  H   1.01558216273095     -0.67935075855963      2.12392454612897
  N   1.22269275201458      0.12906388366293     -1.12012026552865
  H   0.88035436900947      0.84663855855968     -1.74430461626694
  H   2.23383176065937      0.11337157809995     -1.14792343354326
  N   -1.17616303742553     -1.27962375323666      0.05704452127549
  O   -1.30993557528787     -1.69901534756166     -1.08865076406111
  O   -1.31089451320489     -1.94677753823301      1.08353911723964
  C   -1.53323383388254      1.01630212274069     -0.76704969367360
  H   -2.60962144638631      0.92882141374347     -0.60784988139011
  H   -1.32097153348389      0.68128095262260     -1.78138423284287
  H   -1.25330304013673      2.06338899269871     -0.64986617397965
