18
Coordinates from ORCA-job run
  C   0.70742497744901      0.40550633788023      0.22769928403933
  C   -0.81568113338998      0.17137424308104      0.23207785099141
  Cl  0.93789765793694      2.05031691110874      0.94803682596185
  H   -1.18579278199042      0.36272971161865      1.23920226003491
  C   1.42308296586565     -0.57785272470332      1.14751131913578
  H   0.98733805786967     -0.58720019902580      2.14885926491418
  H   2.47515139894760     -0.29870924198108      1.23099913071494
  H   1.36848255157741     -1.58476943792213      0.72536528030836
  N   1.20468852244612      0.46024015071643     -1.12226870812854
  H   0.96645052792019     -0.40380269736024     -1.59791967646697
  H   2.21225366491067      0.56902570468158     -1.11543176324198
  N   -1.06186245899618     -1.29590323326142      0.02379855726218
  O   -0.73766862208619     -1.77315033796732     -1.06528284362102
  O   -1.55431731281037     -1.92826396929974      0.95478328012396
  C   -1.58908248981654      0.95712080205850     -0.80770206829299
  H   -1.40850517498188      2.02165870857338     -0.66107001916656
  H   -2.65843844351410      0.76246692444126     -0.69816450342249
  H   -1.27142190733758      0.68821234736126     -1.81249347114632
