18
Coordinates from ORCA-job run
  C   0.74066750387990      0.09737110735933      0.40210600996249
  C   -0.70172102701297      0.17033857846572     -0.17521715431126
  Cl  0.70518084733217     -1.02253695432960      1.81632130104963
  H   -0.69397999500007      0.99749947195787     -0.89185394898192
  C   1.68729028286931     -0.48188975568250     -0.63674858698947
  H   1.64689925603577      0.11233696848783     -1.55615612645898
  H   1.44668067300803     -1.51646009565977     -0.87312014963180
  H   2.69837279361589     -0.43875706490918     -0.23140601312109
  N   1.28269420578714      1.34749439207114      0.86164920295529
  H   1.51373958675416      1.93105280237080      0.06538378873234
  H   0.61627625372494      1.84553018588121      1.43946084108300
  N   -1.64388478124517      0.63774633081998      0.89975157111056
  O   -2.41276217656819     -0.17791392672849      1.39763991414372
  O   -1.55932490786076      1.82430350039845      1.22548332754775
  C   -1.22872906774199     -1.09797744804672     -0.81187004747113
  H   -0.67021398279223     -1.31225891123999     -1.72347637529292
  H   -1.14933895161639     -1.94266751567653     -0.12938217396547
  H   -2.27884651316956     -0.97521166553954     -1.07956538036074
