18
Coordinates from ORCA-job run
  C   0.64651065833170      0.39562576744011      0.45673494903745
  C   -0.85907485039627      0.33857523251522      0.14142122069444
  Cl  0.80629955986031      0.91140433629761      2.17123369574608
  H   -1.27857583395548      1.29754303517667      0.44336795398826
  C   1.40420657505346     -0.91271472665792      0.29399208992172
  H   1.03402573821423     -1.69213779807703      0.95678170043003
  H   1.31892235390523     -1.26833092254618     -0.73624744733484
  H   2.45841112257721     -0.73216834179975      0.51305641188290
  N   1.17211203734868      1.48227712841285     -0.36637493803016
  H   1.97108694643598      1.89797019731752      0.09746794966639
  H   1.49912656597735      1.09780264071078     -1.24696189014861
  N   -1.55915719715525     -0.67465615589140      0.99533688550313
  O   -2.29037963438712     -0.25117974797361      1.88755116693193
  O   -1.37024282863299     -1.86261041835056      0.73142643375756
  C   -1.16919759549552      0.04088532765174     -1.31468441080600
  H   -0.76147870018306      0.83431397837575     -1.94082522585233
  H   -2.25137344003223      0.02105457421765     -1.46014435912159
  H   -0.77122147746624     -0.92565410681948     -1.62213218626637
