18
Coordinates from ORCA-job run
  C   0.73939576823723      0.32582840909908      0.48569829285162
  C   -0.77356196818031      0.35306983819670      0.16549525636198
  Cl  0.88034441513792      0.67759965209048      2.25125095399290
  H   -1.14460683593203      1.34278369164288      0.44021264390838
  C   1.43785782383715     -0.99062603581558      0.20448414300530
  H   1.37799250421893     -1.23390867642010     -0.85999231510841
  H   0.99501298511748     -1.80574656092070      0.77072245962460
  H   2.48699390997581     -0.87978700032170      0.47881506378195
  N   1.44210574032347      1.37777275219367     -0.20461295960891
  H   0.96905696525936      2.26996738008269     -0.12603776546029
  H   1.58549929302806      1.14288077481581     -1.17820407806288
  N   -1.55847928736919     -0.57723255761729      1.04261733389644
  O   -1.39046539651851     -1.78469759755213      0.87579450969998
  O   -2.33377484324927     -0.06913037122638      1.84865707752193
  C   -1.10672371063984      0.02051585503090     -1.27881097921257
  H   -2.18040494598692      0.13408235958972     -1.44363435355180
  H   -0.83212177781276     -1.00626866775855     -1.51732958664593
  H   -0.59212063944660      0.70289675489048     -1.95612569699429
