18
Coordinates from ORCA-job run
  C   0.72127470652590      0.38642297698218      0.21731642971865
  C   -0.79593918849286      0.13435384018628      0.31063069237453
  Cl  0.99918830718696      1.94439936568280      1.09824285894322
  H   -1.08845504402651      0.20796621395938      1.35795641132154
  C   1.50936968249287     -0.68341181128774      0.96521039350796
  H   1.15084805415500     -0.80953668753295      1.98901689557595
  H   2.56326102734257     -0.40090633641359      1.00057372767109
  H   1.42787287769816     -1.63788757747916      0.43848141592898
  N   1.11377302720623      0.59699327385807     -1.15155922017335
  H   2.11926272601456      0.71002036208550     -1.20945679805498
  H   0.83775850951384     -0.20937105057576     -1.70228874619237
  N   -1.05109912486289     -1.30341950096623     -0.04148646826116
  O   -0.81126736291084     -1.65167662427709     -1.19919044750183
  O   -1.46618669104217     -2.04231600277302      0.84785816601908
  C   -1.65013386779014      1.02140686152171     -0.57263924669084
  H   -1.46536333887182      2.06510135283402     -0.31981231329004
  H   -1.40820975910325      0.87262225508689     -1.62249290114662
  H   -2.70695454103559      0.80023908910871     -0.40636084974982
