18
Coordinates from ORCA-job run
  C   0.68047594374625     -0.02065152147764      0.41049709112263
  C   -0.70824662238890      0.14378596058476     -0.23225498519011
  Cl  0.72558323926254     -1.47934151564256      1.46566444829328
  H   -0.61439195279250      0.94965218566509     -0.96575849644081
  C   1.73168597215658     -0.22994627670340     -0.67666461417131
  H   2.71376391786431     -0.32746901199752     -0.20971522995625
  H   1.55068167903427     -1.12891948051076     -1.26691860490779
  H   1.74758364616850      0.64034967984070     -1.33983412189301
  N   0.92071463974319      1.11526506170888      1.26654004446084
  H   1.86179030276271      1.08211389937384      1.63931307087015
  H   0.78790199507158      1.98380239082396      0.75997146302298
  N   -1.66169537775830      0.70521219966904      0.78353905018509
  O   -1.83074185616694      1.92348090290064      0.76178711849882
  O   -2.19708585891785     -0.08144776620442      1.55644558662949
  C   -1.31086502736520     -1.09231575846922     -0.86591140276444
  H   -2.25944376958034     -0.83363891843000     -1.34106994099079
  H   -1.49441050994113     -1.85621882308765     -0.11386773033274
  H   -0.64630036089877     -1.49371320804374     -1.63176274643604
