18
Coordinates from ORCA-job run
  C   0.70076113617144      0.17712155286778      0.32878550470053
  C   -0.74419050201832      0.20213090060320     -0.20962992990881
  Cl  0.70560308752802     -0.96437582073531      1.79438282470743
  H   -0.79767706941135      1.06902527222491     -0.87503323020462
  C   1.66064117066699     -0.43333912874319     -0.67811471651053
  H   2.67659677175574     -0.36936971982401     -0.28301685976395
  H   1.44015312219169     -1.48170084427179     -0.86797208897928
  H   1.61610600834932      0.13531554183359     -1.61029850305954
  N   1.13483234694149      1.48518264182414      0.65395102133791
  H   2.06283516591719      1.46960061354125      1.05723495222768
  H   0.49334041540064      1.95766854391490      1.27776919844828
  N   -1.69445063881733      0.54578881630175      0.91323276077671
  O   -1.58642961860067      1.67341782431755      1.39772774400415
  O   -2.50203095451199     -0.30085570156726      1.27638787421178
  C   -1.20112335918017     -1.05940635469902     -0.90771306815288
  H   -1.07325882998372     -1.93322342082982     -0.26991675297673
  H   -0.63508231728069     -1.19323271646633     -1.82974546089203
  H   -2.25662593511829     -0.97974800029235     -1.16703126996609
