18
Coordinates from ORCA-job run
  C   0.70774816302408      0.13380786144303      0.33375700660216
  C   -0.73869725223568      0.23882113448839     -0.19073961541862
  Cl  0.68366270178372     -1.09785891203956      1.72453644646450
  H   -0.76797439260413      1.14762873242681     -0.79930718553757
  C   1.64203630992487     -0.44218235635570     -0.71644210177800
  H   2.66114995235026     -0.43848585642940     -0.32435529878341
  H   1.61332667869792      0.18686504428214     -1.60964020882424
  H   1.38506983556907     -1.46792035734281     -0.97245691583481
  N   1.18573614821630      1.40410270371800      0.73756779170663
  H   2.11484999031737      1.33312532891193      1.13229875918660
  H   0.56331853723618      1.85613849640391      1.39498487524927
  N   -1.67113120990363      0.54005132824954      0.95868817527039
  O   -1.52369235558633      1.63040357240955      1.51331217426086
  O   -2.50422693429797     -0.30137786928425      1.27312188786611
  C   -1.23964108721322     -0.96063206503314     -0.96418582015391
  H   -1.13511214915952     -1.87701885927731     -0.38451177683961
  H   -0.68370999379719     -1.05237490199506     -1.89744982017429
  H   -2.29371294232209     -0.83209302457607     -1.20917837326206
