18
Coordinates from ORCA-job run
  C   0.76746171897848      0.35733695938897      0.28439857387269
  C   -0.77706653211462      0.19900270160160      0.21422237630616
  Cl  1.01572177551138      2.02117531851144      0.93620351008028
  H   -1.19976094926266      0.44918721122780      1.18737531280454
  C   1.37360871547360     -0.63108668354235      1.26497956563296
  H   2.42526962653544     -0.38432111594895      1.40425186623880
  H   1.30830751929615     -1.64598224014725      0.86313521685679
  H   0.85942434510134     -0.60139784238501      2.22678485121035
  N   1.47734796832357      0.28660122121970     -0.96526954511794
  H   1.17280652385116      1.01470231635428     -1.59989934352181
  H   1.30306019475501     -0.61442196107227     -1.39761418100203
  N   -1.06957908432456     -1.26151004321860      0.04611791857859
  O   -1.58645402004822     -1.85219078870620      0.99188005241785
  O   -0.73916724889136     -1.78146607420146     -1.02146152311277
  C   -1.45202117631091      0.96689413242722     -0.90331186185281
  H   -2.53447263770278      0.83382843820540     -0.84913048219747
  H   -1.11224865416906      0.61189924158569     -1.87562986195703
  H   -1.23323808500194      2.03074920869997     -0.80603244523715
