18
Coordinates from ORCA-job run
  C   0.73509733156999      0.33982184150804      0.48274033751996
  C   -0.77766094178977      0.34690259207405      0.15988572226675
  Cl  0.86962925304025      0.71712080241709      2.24335101014675
  H   -1.15980565967687      1.33586800857261      0.42178455271680
  C   1.44725799511552     -0.97318704568314      0.22041636015822
  H   2.49451595301770     -0.84890600449237      0.49609223510506
  H   1.01075203998788     -1.78523246395384      0.79598826419218
  H   1.39251498639046     -1.23045047084623     -0.84101948803743
  N   1.42824042375060      1.38943775757118     -0.22088829168416
  H   0.94631822179745      2.27789583590865     -0.15416143164245
  H   1.57322549854588      1.14324459128393     -1.19150448714207
  N   -1.55347920602127     -0.58114856123801      1.04709675843394
  O   -2.33255063200627     -0.07195025227670      1.84880181178577
  O   -1.37530321606496     -1.78880647534700      0.89246517619950
  C   -1.10501294502912     -0.00606284368684     -1.28088544487386
  H   -2.18011765186499      0.09049618514542     -1.44729663712382
  H   -0.81582078859167     -1.03108965614894     -1.50931489563069
  H   -0.59980066217081      0.67704615919212     -1.96455155239047
