18
Coordinates from ORCA-job run
  C   0.70157312519369      0.33538416366797      0.37636636499003
  C   -0.81509744802684      0.33919053710835      0.11847991954894
  Cl  0.92159979331097      0.67573836431915      2.17623334294245
  H   -1.18556265317233      1.34312818910036      0.33649816317628
  C   1.41850374169083     -0.96765880077660      0.08280098212373
  H   0.99723091523471     -1.78807512058505      0.65745248888413
  H   2.47286662808108     -0.86095633734729      0.34733525457408
  H   1.34788907731845     -1.19287621253182     -0.98267489440151
  N   1.24943296884586      1.38051289223637     -0.42470976169925
  H   0.91244842756803      2.28848045227513     -0.12595935651614
  H   2.26066418852428      1.38112008455924     -0.36863306694515
  N   -1.55139769973894     -0.52864463735735      1.09382288952707
  O   -2.33389108206320      0.02847391947295      1.85918482283277
  O   -1.34805094873535     -1.74012085424042      1.03689912850535
  C   -1.18864783759310     -0.09598989044835     -1.28764119884547
  H   -2.26093300061998      0.04248075005208     -1.44337788202491
  H   -0.95267231764420     -1.14848584597859     -1.44092338237108
  H   -0.64295587817394      0.50929834647389     -2.01015381430132
