16
Coordinates from ORCA-job run
  C   -0.60558291449749      0.00054365684245     -0.25784177037673
  C   0.85900906429443     -0.42781209057066     -0.23197737997778
  Br  -1.00132954281005      0.98479566615220     -1.88447595598491
  H   1.03535843819491     -1.01675526182781     -1.13646357956245
  H   0.97069053633022     -1.09850410676815      0.62582918314484
  N   -0.80653623957515      0.91290166512196      0.95429667272245
  O   -0.69479305360087      0.32619086667388      2.02920694936630
  O   -0.99977734038276      2.11060523086202      0.80928041319406
  C   -1.57141416143372     -1.16375964812885     -0.13913535039039
  H   -1.36928275331503     -1.71163766921348      0.78170431216418
  H   -2.60435296896453     -0.81180456919364     -0.13033382939143
  H   -1.43764789337474     -1.82779775692493     -0.99404421447142
  C   1.85908830277847      0.71709823993057     -0.12841986953729
  H   1.73280514655410      1.43477038942276     -0.93999275575414
  H   1.75741884957324      1.24759261299574      0.82075355653983
  H   2.87634653022899      0.32357277462594     -0.17738638168511
