20

C	-0.444444	0.084832	-1.451813
C	0.0	0.0	0.0
F	-1.805607	0.309531	-1.528553
H	1.094626	0.0	0.0
C	0.283544	1.113308	-2.284283
H	0.019564	0.998003	-3.338221
H	1.360286	0.99898	-2.147387
H	-0.02509	2.107961	-1.958449
N	-0.226891	-1.2779	-2.099228
O	0.941032	-1.573294	-2.326474
O	-1.208396	-1.985927	-2.31627
C	-0.513706	-1.261333	0.686649
H	-1.604003	-1.336879	0.626737
H	-0.07432	-2.160908	0.250607
H	-0.221436	-1.239714	1.739156
C	-0.449103	1.253982	0.751039
H	-0.016698	2.159119	0.320106
H	-1.538361	1.350629	0.762752
H	-0.091944	1.191712	1.781603
Br	3.669257	0.0	0.0
