20

C	-0.33961	-0.012789	-1.481964
C	0.0	0.0	0.0
F	0.154142	1.123842	-2.06481
H	1.097871	0.0	0.0
C	0.179729	-1.19922	-2.255512
H	1.251142	-1.273869	-2.056251
H	-0.3242	-2.114562	-1.956282
H	0.017095	-1.029847	-3.322792
N	-1.857792	0.085329	-1.657302
O	-2.500434	-0.946615	-1.465338
O	-2.346128	1.179037	-1.923263
C	-0.445742	-1.250971	0.749778
H	-0.076659	-1.182909	1.776015
H	-0.017751	-2.157057	0.317194
H	-1.533538	-1.354761	0.777006
C	-0.498129	1.269108	0.682054
H	-1.587262	1.264	0.806604
H	-0.217092	2.158237	0.117393
H	-0.040524	1.341689	1.671579
Br	3.614286	0.0	0.0
