15

C	-0.322007	-0.039684	-1.510064
C	0.0	0.0	0.0
Cl	0.0003	1.655658	-2.172205
H	1.092593	0.0	0.0
N	0.517903	-1.036769	-2.042958
H	1.490258	-0.88275	-1.762362
H	0.433615	-1.116968	-3.047416
C	-1.726805	-0.316975	-1.830411
N	-2.830509	-0.572968	-2.142522
C	-0.520807	-1.184494	0.664217
N	-0.94008	-2.132465	1.217295
N	-0.574021	1.21215	0.664219
O	-1.800113	1.308963	0.628215
O	0.204806	2.000331	1.182462
Br	3.356111	0.0	0.0
