15

C	-0.321757	-0.034931	-1.50949
C	0.0	0.0	0.0
Cl	0.008374	1.661944	-2.164886
H	1.09364	0.0	0.0
N	0.516255	-1.033116	-2.04534
H	1.488943	-0.879405	-1.765281
H	0.432254	-1.108785	-3.05039
C	-1.725922	-0.309292	-1.833278
N	-2.827467	-0.566833	-2.15105
C	-0.521222	-1.185682	0.662011
N	-0.944781	-2.131802	1.215537
N	-0.574615	1.209002	0.669891
O	-1.798176	1.323163	0.605039
O	0.20135	1.975965	1.223742
Br	3.356601	0.0	0.0
