15

C	-0.328407	0.096388	-1.504906
C	0.0	0.0	0.0
Cl	-2.08191	0.508331	-1.747877
H	1.094494	0.0	0.0
N	0.489899	1.101957	-2.093394
H	0.509556	1.004912	-3.101086
H	1.437021	1.045583	-1.712554
C	-0.160941	-1.241421	-2.106035
N	0.001352	-2.263585	-2.665477
C	-0.573867	-1.174816	0.624796
N	-1.016349	-2.148305	1.11085
N	-0.447861	1.243457	0.715463
O	0.203334	2.256454	0.494201
O	-1.423533	1.152612	1.45947
Br	3.30651	0.0	0.0
