18

C	-0.305613	0.055108	-1.507172
C	0.0	0.0	0.0
Cl	0.143289	-1.624481	-2.20359
H	1.095037	0.0	0.0
N	-1.66765	0.352317	-1.805521
H	-1.816879	0.340006	-2.807757
H	-2.280732	-0.335585	-1.383995
C	0.660204	1.024971	-2.161624
H	0.387295	2.039494	-1.856935
H	1.657917	0.78655	-1.776077
H	0.617957	0.953071	-3.252396
C	-0.547077	-1.191904	0.779209
H	-0.053455	-2.102503	0.44264
H	-1.633765	-1.315693	0.684391
H	-0.317682	-1.055572	1.838521
C	-0.453535	1.24715	0.60038
N	-0.807757	2.234314	1.133604
F	2.62177	0.0	0.0
