18

C	-0.313651	0.053494	-1.503686
C	0.0	0.0	0.0
Cl	0.190706	-1.605761	-2.213177
H	1.095041	0.0	0.0
N	-1.68641	0.304513	-1.793248
H	-2.270964	-0.407857	-1.372442
H	-1.840692	0.291146	-2.795095
C	0.616583	1.059202	-2.155368
H	0.573887	0.992689	-3.246217
H	1.622481	0.847719	-1.776926
H	0.312488	2.062347	-1.843664
C	-0.545491	-1.188797	0.784723
H	-0.097388	-2.109174	0.411701
H	-0.259494	-1.077069	1.833331
H	-1.639019	-1.275464	0.74273
C	-0.452616	1.246817	0.601834
N	-0.808943	2.233185	1.135099
F	2.618423	0.0	0.0
