18

C	-0.046974	0.008483	-1.530818
C	0.0	0.0	0.0
Cl	-1.743994	0.232162	-2.193751
H	1.099809	0.0	0.0
N	0.761897	1.136274	-1.928243
H	0.94936	1.079072	-2.923655
H	1.648708	1.002335	-1.416621
C	0.486977	-1.312813	-2.070198
H	1.475884	-1.425557	-1.613125
H	-0.152482	-2.164084	-1.830516
H	0.586191	-1.251038	-3.157553
C	-0.593659	-1.218466	0.688878
H	-1.640501	-1.376178	0.406939
H	-0.016036	-2.11088	0.44232
H	-0.54599	-1.086178	1.77229
C	-0.519784	1.234949	0.559763
N	-0.95158	2.188458	1.095755
F	2.654315	0.0	0.0
