18

C	-0.564884	0.022255	-1.422002
C	0.0	0.0	0.0
Cl	0.312672	1.287864	-2.370296
H	1.094473	0.0	0.0
N	-0.280706	-1.248016	-2.076859
H	-0.860724	-1.961055	-1.645505
H	-0.556942	-1.173264	-3.050658
C	-2.045354	0.397481	-1.491199
H	-2.628018	-0.328941	-0.913196
H	-2.229126	1.39238	-1.084205
H	-2.387186	0.372485	-2.529988
C	-0.322176	-1.298712	0.748944
H	0.051605	-1.202768	1.770179
H	-1.38957	-1.555322	0.794342
H	0.244457	-2.104536	0.280492
C	-0.478004	1.146048	0.750568
N	-0.873964	2.06785	1.366187
F	2.550695	0.0	0.0
