18

C	-0.170162	-0.037129	-1.547362
C	0.0	0.0	0.0
Cl	-0.048834	1.684516	-2.145306
H	1.096836	0.0	0.0
N	0.936566	-0.751163	-2.137539
H	0.747766	-1.746304	-2.072987
H	1.771425	-0.542406	-1.557219
C	-1.499306	-0.56913	-2.045411
H	-1.617172	-1.615615	-1.748722
H	-1.530694	-0.508396	-3.134421
H	-2.326905	0.008738	-1.630227
C	-0.39852	-1.326875	0.652258
H	-1.47872	-1.508133	0.65481
H	0.106588	-2.147507	0.136958
H	-0.042994	-1.332179	1.685235
C	-0.64675	1.101486	0.67398
N	-1.220228	1.954758	1.245542
F	2.638849	0.0	0.0
