17

C	-0.628273	-0.158684	-1.393192
C	0.0	0.0	0.0
Br	-0.176773	1.487652	-2.502471
H	1.089059	0.0	0.0
N	0.00366	-1.260734	-2.027031
H	0.143267	-1.986441	-1.332177
H	-0.551412	-1.607307	-2.799095
N	-2.054418	-0.283028	-1.289436
H	-2.451269	-0.384943	-2.216066
H	-2.457058	0.539617	-0.855184
N	-0.406787	-1.119332	0.791638
H	0.181524	-1.189745	1.611672
H	-1.3864	-1.068338	1.035468
N	-0.454885	1.320613	0.613314
O	0.350247	2.236327	0.701469
O	-1.628203	1.370967	1.012
Br	3.528539	0.0	0.0
