17

C	-0.49251	-0.012262	-1.455734
C	0.0	0.0	0.0
Br	0.226231	-1.740778	-2.263015
H	1.089595	0.0	0.0
N	-1.920842	-0.185752	-1.534977
H	-2.362463	0.656941	-1.182153
H	-2.206534	-0.358471	-2.490843
N	0.020755	1.13076	-2.108397
H	-0.173892	1.119216	-3.101436
H	1.02271	1.221506	-1.949703
N	-0.514074	-1.031977	0.832868
H	-1.36393	-1.411232	0.435378
H	0.188287	-1.751266	0.927707
N	-0.455319	1.340419	0.558775
O	0.383185	2.216338	0.726982
O	-1.660345	1.461099	0.796779
Br	3.506815	0.0	0.0
