13

C	0.0	0.0	0.0
C	-0.261091	0.149254	-1.522431
F	1.385719	0.0	0.0
H	0.072933	-0.807769	-1.958909
H	-1.325714	0.264847	-1.682719
C	-0.466116	1.172711	0.762878
N	-0.46701	2.143798	1.434659
C	-0.649526	-1.214557	0.511444
N	-0.597122	-2.330009	0.928022
N	0.456424	1.316829	-2.021783
H	1.450259	1.129363	-2.030345
H	0.160483	1.509649	-2.969385
H	-2.21742	0.0	0.0
