13

C	0.0	0.0	0.0
C	-0.280955	-0.069378	-1.526581
F	1.385579	0.0	0.0
H	-1.361281	-0.113809	-1.649736
H	0.103847	0.870258	-1.947785
C	-0.46011	1.287964	0.547044
N	-0.572562	2.393241	0.945919
C	-0.60258	-1.126939	0.718695
N	-0.533637	-2.135522	1.340022
N	0.349506	-1.268422	-2.064057
H	-0.056536	-1.488512	-2.961659
H	1.339357	-1.113213	-2.190773
H	-2.300555	0.0	0.0
