13

C	0.0	0.0	0.0
C	-0.372477	0.501587	-1.453434
F	1.381905	0.0	0.0
H	0.599337	0.685189	-1.925236
H	-0.90147	1.447382	-1.351133
C	-0.503778	0.900081	1.044133
N	-0.514331	1.706542	1.909733
C	-0.46165	-1.375629	0.228147
N	-0.490567	-2.550016	0.350498
N	-1.152032	-0.369863	-2.306839
H	-2.005032	-0.528747	-1.761154
H	-0.679851	-1.265671	-2.386427
H	-2.265404	0.0	0.0
