13

C	0.0	0.0	0.0
C	-0.195843	-0.405631	-1.532793
F	1.381874	0.0	0.0
H	0.595183	0.171539	-2.02451
H	0.105872	-1.460215	-1.556146
C	-0.501331	1.347478	0.284374
N	-0.558406	2.514513	0.472053
C	-0.511496	-0.983565	0.95095
N	-0.560509	-1.87336	1.729226
N	-1.422114	-0.225601	-2.267542
H	-2.162395	-0.47907	-1.604289
H	-1.560064	0.776033	-2.377601
H	-2.237969	0.0	0.0
