13

C	0.0	0.0	0.0
C	-0.260045	0.003713	-1.530693
F	1.387338	0.0	0.0
H	-1.321313	0.119659	-1.70869
H	0.059522	-0.998285	-1.86391
C	-0.429808	1.254121	0.650658
N	-0.489662	2.285612	1.217617
C	-0.710068	-1.13365	0.616067
N	-0.638818	-2.208864	1.131696
N	0.476959	1.100909	-2.152354
H	0.265057	1.116153	-3.140376
H	1.467745	0.930794	-2.051665
H	-2.202759	0.0	0.0
