13

C	0.0	0.0	0.0
C	-0.259546	-0.162303	-1.520915
F	1.385602	0.0	0.0
H	0.09316	0.785853	-1.962389
H	-1.326178	-0.262338	-1.686204
C	-0.700218	1.197113	0.494945
N	-0.618642	2.323257	0.884723
C	-0.443231	-1.180351	0.767631
N	-0.506137	-2.153879	1.429167
N	0.44154	-1.344812	-2.014149
H	1.439555	-1.17805	-1.997161
H	0.168532	-1.513781	-2.973061
H	-2.209928	0.0	0.0
