13

C	0.0	0.0	0.0
C	-0.261204	0.150726	-1.521124
F	1.385221	0.0	0.0
H	-1.324392	0.274634	-1.686287
H	0.064196	-0.811651	-1.951189
C	-0.42193	1.194403	0.761312
N	-0.489693	2.176027	1.408989
C	-0.727896	-1.178597	0.504376
N	-0.657487	-2.301017	0.910733
N	0.465758	1.308221	-2.035398
H	0.193106	1.463496	-2.997751
H	1.458966	1.117044	-2.01608
H	-2.200658	0.0	0.0
