13

C	0.0	0.0	0.0
C	-0.263388	-0.005416	-1.527956
F	1.385374	0.0	0.0
H	-1.327537	-0.109035	-1.698581
H	0.065687	0.990546	-1.869856
C	-0.691768	1.14157	0.621564
N	-0.631757	2.210981	1.148532
C	-0.441072	-1.248692	0.653648
N	-0.470641	-2.271402	1.239905
N	0.457833	-1.114657	-2.144026
H	1.450684	-0.921764	-2.13423
H	0.162134	-1.205279	-3.107681
H	-2.212892	0.0	0.0
