13

C	0.0	0.0	0.0
C	-0.264113	-0.055119	-1.527401
F	1.386462	0.0	0.0
H	0.052302	0.934404	-1.898867
H	-1.326518	-0.176758	-1.694295
C	-0.683082	1.164249	0.585468
N	-0.62259	2.250903	1.075426
C	-0.441878	-1.228545	0.690076
N	-0.482629	-2.262421	1.255638
N	0.470926	-1.172162	-2.110592
H	0.198002	-1.273887	-3.080854
H	1.463022	-0.976175	-2.080905
H	-2.217479	0.0	0.0
