17

C	-0.560229	-0.017138	-1.417255
C	0.0	0.0	0.0
Br	0.370128	1.179799	-2.656879
H	1.094301	0.0	0.0
H	-0.308983	-1.004467	-1.808741
C	-2.060053	0.216709	-1.526496
H	-2.599798	-0.457476	-0.854227
H	-2.397126	0.025443	-2.547048
H	-2.306197	1.246339	-1.27035
C	-0.415892	-1.24532	0.77576
H	-1.492119	-1.288574	0.962324
H	-0.108538	-2.126873	0.20901
H	0.105125	-1.263797	1.730671
N	-0.416356	1.220402	0.764774
O	-0.497976	1.124364	1.989855
O	-0.617933	2.261673	0.140722
Br	3.46695	0.0	0.0
