17

C	-0.493235	0.051797	-1.446524
C	0.0	0.0	0.0
Br	-0.169809	-1.675921	-2.318071
H	1.091515	0.0	0.0
H	-1.579019	0.167708	-1.464834
C	0.218403	1.142866	-2.227319
H	-0.038158	2.121303	-1.808034
H	1.299859	1.006548	-2.144419
H	-0.079472	1.132028	-3.277544
C	-0.553283	-1.125773	0.852219
H	-0.093007	-2.063725	0.545624
H	-1.63851	-1.200354	0.760475
H	-0.291561	-0.951494	1.897856
N	-0.462945	1.296806	0.60504
O	0.374176	2.105216	0.991772
O	-1.686099	1.467358	0.670416
Br	3.576096	0.0	0.0
