14
Coordinates from ORCA-job run
  C   -0.40213830655423      0.30679497583314     -0.16199256487170
  C   0.80992392792885     -0.58507785489294      0.05851997739504
  F   -0.31166325515205      0.80075121507501     -1.46893073536149
  H   0.76894325940501     -0.97519395569604      1.07932277824711
  H   0.70388732495400     -1.43456587016821     -0.63387423557244
  C   -1.71910994530599     -0.43287549212711     -0.03529661067494
  H   -1.73043107169476     -1.27237788796327     -0.73289353721983
  H   -1.85473737386453     -0.80611058428855      0.98142207963099
  H   -2.54411379377773      0.23777720191949     -0.27800432212482
  C   -0.36167891035245      1.46637378720905      0.74697048117506
  N   -0.35471005737396      2.40144590247997      1.45573717343421
  N   2.02430030838214      0.19345586141009     -0.10688689057878
  H   2.13862678062129      0.44234440555252     -1.08054652719062
  H   2.83190111278440     -0.34374170434315      0.17845293371219
