14
Coordinates from ORCA-job run
  C   -0.46633900922683      0.22120541841002     -0.29340759227983
  C   0.79707478811421     -0.58821811801117     -0.01023373272323
  F   -0.63376599474978      0.30610468036407     -1.66897955392149
  H   0.81151608538393     -0.83407898319520      1.06182613817097
  H   0.68192638507629     -1.52395496026807     -0.56453886146761
  C   -1.71221067616839     -0.41733961617315      0.29213613792765
  H   -1.80173722002492     -1.43813895269254     -0.08491453881709
  H   -2.59295445294622      0.14759683988440     -0.01461565659038
  H   -1.66718474304555     -0.43872942505077      1.38195227790859
  C   -0.29161282920676      1.59117038733799      0.22635779593361
  N   -0.13813515726103      2.65507440021973      0.69790964522968
  N   1.97347229306268      0.11316840732330     -0.49263230679823
  H   2.70556088477501     -0.53683537456590     -0.74054411649925
  H   2.33438964621737      0.74297529641727      0.21168436392661
