14
Coordinates from ORCA-job run
  C   -0.49656147841402      0.27522756133861     -0.49545782626972
  C   0.85586022119279     -0.43507967110584     -0.54076200560425
  F   -1.00122183351751      0.28060434929632     -1.79489737758981
  H   1.43798440758196      0.01635354481339     -1.35559228818225
  H   0.65779972588453     -1.47612257129379     -0.81006539541132
  C   -1.49729665197913     -0.40175641859218      0.41513165576981
  H   -2.44110607595036      0.14510863831542      0.41243934158652
  H   -1.67367859222950     -1.41468426806960      0.04657551100042
  H   -1.09824410454141     -0.45091567770744      1.42728580188678
  C   -0.28317032185941      1.67907107904694     -0.09264468089631
  N   -0.06879417789603      2.78138268002808      0.24984939129690
  N   1.48147864368364     -0.38272219241133      0.77259519754801
  H   2.16803003887268     -1.11853327686525      0.86656536693274
  H   1.95892019917177      0.50106622320666      0.89997730793250
