14
Coordinates from ORCA-job run
  C   -0.37798098910254      0.39725722903521     -0.34470253509970
  C   1.04328163800177      0.10547602477084      0.13154047066680
  F   -0.42946061463321      0.05096377564754     -1.69999002122579
  H   1.72124805101405      0.76061665691743     -0.43362252043391
  H   1.11413004294278      0.38251955790289      1.18710540720664
  C   -1.44513226433800     -0.39007564839144      0.38563075768004
  H   -2.41644520076730     -0.20519455831246     -0.07495505459023
  H   -1.19700834012990     -1.44817515463413      0.32580794538200
  H   -1.48657881561994     -0.08838586177898      1.43403577272635
  C   -0.63415043150799      1.84641044407313     -0.25131978201232
  N   -0.82478436098990      2.99927892550714     -0.13974134996841
  N   1.31542002026595     -1.31666320559454     -0.01315039448332
  H   2.16191171935179     -1.56020603508551      0.48366139928067
  H   1.45454954551244     -1.53482215005712     -0.99130009512881
