14
Coordinates from ORCA-job run
  C   -0.40947679027181      0.27140972441873     -0.20298239651200
  C   0.81439597010999     -0.56986606053752      0.12378226131618
  F   -0.41015776267622      0.46535044064653     -1.58997412990180
  H   0.66021123925096     -1.54832600295755     -0.35679750025219
  H   0.84565966428250     -0.72696876270753      1.20552987127869
  C   -1.71607348100305     -0.39920342692479      0.17249252471090
  H   -1.77940345397605     -0.54011300206678      1.25298929203137
  H   -1.77893449245122     -1.36970908238328     -0.32321622744560
  H   -2.55439849499050      0.21774816988734     -0.15276746050890
  C   -0.30535055951042      1.59880073217484      0.42891071516842
  N   -0.28761062905366      2.63808202010889      0.97336321643579
  N   2.01310087006145      0.13608792525289     -0.29145562576006
  H   2.06733101980423      0.15274909601719     -1.30118651520125
  H   2.83970690042382     -0.32604177092895      0.06231197464045
