14
Coordinates from ORCA-job run
  C   -0.40168263367912      0.37858570276508     -0.33952195830580
  C   1.04810781847604      0.12222329777989      0.06588604081833
  F   -0.52604285376723     -0.02713606835228     -1.67375987346021
  H   1.68338785921754      0.75396073419449     -0.57083624408495
  H   1.17834369292300      0.45304090574017      1.09988940474283
  C   -1.41575635550193     -0.38750953519552      0.48319368565341
  H   -1.39555358058525     -0.04813224759888      1.52075362085598
  H   -2.41477800710149     -0.22557907189703      0.07631724088786
  H   -1.16193015226451     -1.44531446059059      0.44696770761680
  C   -0.67005172535378      1.82780939064718     -0.29502147660134
  N   -0.86680504697152      2.98304654359558     -0.22680848868975
  N   1.32748373291998     -1.30302531024551     -0.02467543408505
  H   2.20393664250797     -1.51454533571071      0.43321303528758
  H   1.41334060918028     -1.56742454513184     -0.99759726063572
