14
Coordinates from ORCA-job run
  C   -0.45778586440598      0.22712018786985     -0.30199091421541
  C   0.79182351998305     -0.59480224415511      0.00605131154380
  F   -0.59269607815727      0.32042206617465     -1.68047911812257
  H   0.78085104650283     -0.84281451100326      1.07759519764983
  H   0.68058740757150     -1.52830438886416     -0.55276109952142
  C   -1.72236880520939     -0.40312862054956      0.25111905058930
  H   -1.81469009223129     -1.41898986452543     -0.13903705436031
  H   -1.70001286572516     -0.43686019073982      1.34154180300953
  H   -2.59078640521419      0.17448513186977     -0.06743855056493
  C   -0.28213496004669      1.59273098417947      0.22876693210058
  N   -0.13126233708295      2.65354623511965      0.70795106491218
  N   1.98459956751340      0.09763819552334     -0.44836670910776
  H   2.34061269953111      0.71592133806941      0.26845044954613
  H   2.71326316697104     -0.55796431896881     -0.69140236345896
