14
Coordinates from ORCA-job run
  C   -0.38174741531123      0.26392852243944     -0.16219090078310
  C   0.83342618193117     -0.66630048692375     -0.07927323437337
  F   -0.32027000062176      0.90878792317228     -1.40202967998508
  H   0.79547638914183     -1.20829320929807      0.87013276601277
  H   0.71735705698300     -1.39972287473006     -0.88380808349759
  C   -1.70643688651939     -0.46467163362924     -0.07363611899680
  H   -1.74877608711763     -1.22332062274965     -0.85759734109462
  H   -2.53014813389280      0.23584152142511     -0.21667322503563
  H   -1.81621180883980     -0.94735809907287      0.89923002099853
  C   -0.27260844411148      1.30567755709005      0.87507595803505
  N   -0.14945192114861      2.10433258882287      1.72672880990680
  N   2.12380187940842     -0.02535669693737     -0.21276360804674
  H   2.14616884897195      0.53263670325090     -1.05650124847579
  H   2.30942034112634      0.58381880714034      0.57430588533561
