14
Coordinates from ORCA-job run
  C   -0.32190473235328      0.44243669310246     -0.31090909503440
  C   1.14215293710898      0.11409147138386      0.02349834247525
  F   -0.50367118682704      0.16466464472571     -1.66965420824047
  H   1.76625037724198      0.76113225594663     -0.59934810754684
  H   1.33297643502533      0.38436646177079      1.06600125893721
  C   -1.33698376966573     -0.37024663140254      0.46667925864600
  H   -1.17944914489451     -1.43091699085428      0.26865439930200
  H   -1.24045993855176     -0.18192459169040      1.53788530444790
  H   -2.34656821108105     -0.10629361894361      0.14998052416320
  C   -0.55065794266092      1.88417499099288     -0.11546041755379
  N   -0.69798060064115      3.03495258395671      0.06522793115726
  N   1.53787688484858     -1.26005533864491     -0.19853096481984
  H   1.09567380237615     -1.89085609144198      0.45548746749206
  H   1.30174509007446     -1.54652583890133     -1.13951169342553
