14
Coordinates from ORCA-job run
  C   -0.46271592968370      0.28387804529528     -0.49048221969886
  C   0.90129296459829     -0.40314361576950     -0.66793374765562
  F   -1.06156082730705      0.33023869657054     -1.74813354068024
  H   1.42509221701205      0.12293127704153     -1.47048630508270
  H   0.70069586766612     -1.41845067567066     -1.02311783990445
  C   -1.39973823768438     -0.44842306193394      0.44904720507790
  H   -2.36979730820299      0.04986378343681      0.46927162117945
  H   -1.00042440908273     -0.47067156529876      1.46387961827697
  H   -1.53489194543104     -1.47072966668664      0.08926020589455
  C   -0.24854369706900      1.66978540750165     -0.03380635823342
  N   -0.02738247673680      2.74715241053126      0.37743742077783
  N   1.75367737642606     -0.46036181081267      0.49866178853004
  H   1.98454195963404      0.46385034242917      0.83924371511879
  H   1.33775444586112     -0.99491956663405      1.24815843639977
