17

C	-0.476401	0.024851	-1.443752
C	0.0	0.0	0.0
F	-0.029768	1.151464	-2.058862
H	1.101336	0.0	0.0
N	0.081819	-1.159705	-2.232737
O	1.044843	-0.947805	-2.949328
O	-0.495281	-2.230082	-2.056803
C	-1.942068	-0.025746	-1.565927
N	-3.1109	-0.05897	-1.670918
C	-0.515202	-1.197352	0.777044
H	-0.183133	-2.136894	0.339391
H	-1.607368	-1.193022	0.836112
H	-0.103495	-1.143591	1.787461
N	-0.537763	1.244443	0.574862
H	0.113973	1.988674	0.35005
H	-0.520842	1.148222	1.583623
Cl	3.392791	0.0	0.0
