17

C	-0.533188	-0.157777	-1.413701
C	0.0	0.0	0.0
F	-1.880991	-0.384221	-1.413372
H	1.093507	0.0	0.0
N	-0.320466	1.132993	-2.217942
O	0.731596	1.719253	-2.025809
O	-1.202852	1.435212	-3.009696
C	0.106737	-1.23706	-2.178637
N	0.549713	-2.149348	-2.769188
C	-0.455123	-1.188094	0.836173
H	-0.154008	-2.134498	0.381208
H	-1.540452	-1.186665	0.969483
H	0.032571	-1.126543	1.811152
N	-0.527877	1.268036	0.51191
H	-0.915948	1.130299	1.435578
H	0.250037	1.910412	0.598984
Cl	3.384941	0.0	0.0
