17

C	-0.424905	0.030867	-1.464309
C	0.0	0.0	0.0
F	0.190443	-0.943349	-2.173986
H	1.096417	0.0	0.0
N	-1.932478	-0.275086	-1.542589
O	-2.26107	-1.39267	-1.917318
O	-2.682288	0.609471	-1.142637
C	-0.227903	1.329594	-2.11667
N	-0.081069	2.327442	-2.717325
C	-0.467229	-1.287487	0.669324
H	-1.550336	-1.285745	0.840922
H	0.039011	-1.372586	1.632421
H	-0.207575	-2.164167	0.072628
N	-0.424578	1.229138	0.644937
H	0.301865	1.533643	1.279265
H	-1.294433	1.113266	1.148284
Cl	3.329675	0.0	0.0
