17

C	-0.559441	-0.176776	-1.404224
C	0.0	0.0	0.0
F	-1.913815	-0.37786	-1.35661
H	1.092832	0.0	0.0
N	-0.340789	1.105494	-2.203778
O	0.825829	1.355412	-2.458942
O	-1.328063	1.759176	-2.498085
C	0.033395	-1.2841	-2.16385
N	0.40749	-2.221546	-2.764202
C	-0.437046	-1.176368	0.86942
H	-1.523006	-1.194373	1.005672
H	-0.118715	-2.130898	0.442063
H	0.046639	-1.074621	1.843402
N	-0.447406	1.299388	0.487648
H	0.32843	1.748917	0.956519
H	-1.21407	1.205399	1.138817
Cl	3.360919	0.0	0.0
