16

C	-0.18167	-0.063158	-1.514742
C	0.0	0.0	0.0
Cl	-1.870718	-0.428669	-2.06117
H	1.092521	0.0	0.0
C	0.168518	1.230425	-2.134141
N	0.508756	2.159547	-2.770975
N	0.703798	-1.114802	-1.932469
H	0.822294	-1.081714	-2.938464
H	1.602247	-0.941986	-1.45078
N	-0.529304	-1.225479	0.65211
O	-1.704542	-1.204185	1.022056
O	0.23992	-2.173889	0.766361
N	-0.589015	1.158954	0.686375
O	-1.147042	2.033718	0.023566
O	-0.439908	1.177969	1.905294
F	2.508858	0.0	0.0
