16

C	-0.523658	-0.019742	-1.435288
C	0.0	0.0	0.0
Cl	0.226974	1.329865	-2.352575
H	1.0883	0.0	0.0
C	-0.03977	-1.244605	-2.10658
N	0.244959	-2.209915	-2.714
N	-1.953796	0.161171	-1.506393
H	-2.250663	0.131753	-2.475118
H	-2.386881	-0.605117	-1.002244
N	-0.446194	-1.192444	0.761295
O	0.0188	-1.30654	1.888839
O	-1.221647	-2.000394	0.233957
N	-0.552933	1.176844	0.724495
O	0.005008	2.250171	0.52592
O	-1.532281	1.00559	1.453027
F	2.446722	0.0	0.0
