16

C	-0.18	0.024475	-1.525317
C	0.0	0.0	0.0
Cl	0.169921	-1.713626	-2.123082
H	1.088643	0.0	0.0
C	-1.522836	0.328475	-2.028558
N	-2.572838	0.625388	-2.465267
N	0.780514	0.94712	-1.972762
H	0.880568	0.93739	-2.978562
H	1.671401	0.757985	-1.472428
N	-0.683383	-1.091332	0.716557
O	-1.679058	-1.603757	0.208839
O	-0.218086	-1.366766	1.821776
N	-0.515672	1.272814	0.593568
O	-1.674236	1.26918	1.018478
O	0.249827	2.229191	0.612559
F	2.5398	0.0	0.0
