16

C	-0.202839	-0.101675	-1.516758
C	0.0	0.0	0.0
Cl	-1.855269	-0.702357	-1.988905
H	1.092522	0.0	0.0
C	-0.071457	1.224286	-2.15007
N	0.153402	2.199055	-2.768796
N	0.803972	-1.012495	-1.969663
H	0.949369	-0.908407	-2.965928
H	1.67005	-0.804323	-1.437415
N	-0.512882	-1.212008	0.689906
O	0.179968	-2.220674	0.614228
O	-1.595018	-1.12331	1.270572
N	-0.603171	1.169719	0.659355
O	-0.261075	1.342422	1.82684
O	-1.393991	1.877518	0.03431
F	2.528437	0.0	0.0
