16

C	-0.144662	-0.175526	-1.528187
C	0.0	0.0	0.0
Cl	-1.798219	-0.710568	-2.010227
H	1.101246	0.0	0.0
C	0.125521	1.111497	-2.188866
N	0.394086	2.091289	-2.777842
N	0.834521	-1.116203	-2.033149
H	1.712654	-0.831604	-1.564064
H	0.601428	-2.022035	-1.638262
N	-0.563454	-1.153221	0.725584
O	-1.478248	-0.96287	1.52502
O	-0.085733	-2.254285	0.454317
N	-0.574921	1.230343	0.574632
O	-0.187476	1.520252	1.704232
O	-1.383656	1.877969	-0.093962
F	2.504233	0.0	0.0
