16

C	-0.518578	0.125236	-1.444554
C	0.0	0.0	0.0
Cl	-0.1632	1.830515	-1.928219
H	1.102967	0.0	0.0
C	0.291786	-0.73208	-2.320425
N	0.850822	-1.409196	-3.100483
N	-1.910756	-0.128369	-1.723403
H	-2.070624	-1.12314	-1.60558
H	-2.459113	0.369977	-1.030854
N	-0.444308	-1.258102	0.615884
O	-0.6614	-2.214998	-0.134236
O	-0.497651	-1.302902	1.842793
N	-0.555018	1.088823	0.849415
O	-1.787894	1.184928	0.898837
O	0.226945	1.823793	1.437677
F	2.436751	0.0	0.0
