16

C	-0.46232	-0.008467	-1.455717
C	0.0	0.0	0.0
Cl	0.088092	1.627574	-2.148536
H	1.087743	0.0	0.0
C	0.299797	-0.985629	-2.244282
N	0.823756	-1.720738	-2.996846
N	-1.846776	-0.251492	-1.623527
H	-2.099138	-0.270362	-2.603091
H	-2.371619	0.455484	-1.124417
N	-0.483019	-1.221057	0.683846
O	-0.231273	-2.281434	0.11882
O	-1.057191	-1.107284	1.766556
N	-0.531304	1.155853	0.764614
O	0.154398	1.548417	1.701136
O	-1.625018	1.635036	0.445876
F	2.441053	0.0	0.0
