16

C	-0.562137	0.06597	-1.420325
C	0.0	0.0	0.0
Cl	0.314832	1.32191	-2.358046
H	1.089809	0.0	0.0
C	-0.261805	-1.200384	-2.122544
N	-0.110792	-2.177044	-2.759853
N	-1.962937	0.417483	-1.4322
H	-2.292998	0.474065	-2.388596
H	-2.468337	-0.314898	-0.945086
N	-0.480408	-1.21451	0.709552
O	-1.430744	-1.855312	0.240407
O	0.109735	-1.500175	1.744007
N	-0.508134	1.157298	0.787226
O	-1.350533	0.95219	1.663353
O	-0.043734	2.25198	0.490462
F	2.448723	0.0	0.0
