16

C	-0.434444	0.076713	-1.454448
C	0.0	0.0	0.0
Cl	-2.314992	-0.13195	-1.617528
H	1.101241	0.0	0.0
C	-0.210549	1.436239	-1.963644
N	-0.033002	2.496714	-2.436544
N	0.26856	-0.832086	-2.260735
H	0.309887	-1.745296	-1.831855
H	-0.097987	-0.866783	-3.200933
N	-0.417647	-1.224145	0.694609
O	-0.499683	-1.1763	1.917211
O	-0.543576	-2.252455	0.024192
N	-0.512072	1.172759	0.76045
O	0.286158	2.086428	0.953937
O	-1.688347	1.16806	1.118889
F	2.424247	0.0	0.0
