16

C	-0.224149	0.006793	-1.526056
C	0.0	0.0	0.0
Cl	0.016172	-1.703527	-2.061733
H	1.109489	0.0	0.0
C	-1.574947	0.398542	-1.942889
N	-2.653623	0.716113	-2.281815
N	0.784135	0.80473	-2.174041
H	1.658167	0.600278	-1.662827
H	0.553048	1.776569	-1.99706
N	-0.645435	-1.129332	0.707729
O	-1.860218	-1.255641	0.539701
O	0.06091	-1.853041	1.402171
N	-0.498396	1.232671	0.642988
O	-0.768455	1.174022	1.840071
O	-0.549411	2.256973	-0.040461
F	2.511785	0.0	0.0
