15
Coordinates from ORCA-job run
  C   0.43076618077975     -0.29387453327650     -0.11940312835289
  C   -1.06495588432204     -0.34597776069838      0.18263520811966
  F   0.53758409831188     -0.29881650837242     -1.52925356013152
  H   -1.24271639565651     -0.17687340857435      1.24304469296894
  H   -1.47786918186305     -1.30094105398561     -0.13961158860665
  N   1.00544983632712     -1.46088789505895      0.45064226046127
  H   0.66136146607798     -2.29449597823115     -0.01048033235970
  H   2.01446744659452     -1.43969349316339      0.37505110350533
  C   1.13618042026386      0.94969480167287      0.37112083834031
  H   2.18886800994369      0.89294812653233      0.08432600821146
  H   1.06373569515602      1.02564065954580      1.45632656600161
  H   0.70232284697023      1.83929242070892     -0.07984621752857
  N   -1.80384382185203      0.70193569653166     -0.57171651821042
  O   -1.73747083280373      1.85008202240755     -0.13335590825733
  O   -2.41287988392769      0.35196690396163     -1.57847942416149
