15
Coordinates from ORCA-job run
  C   0.46124664502445     -0.16993704232607     -0.18746577250221
  C   -0.91227373653131      0.50125023526638     -0.02491516809001
  F   0.42600839364333     -0.70823322873242     -1.47862036698330
  H   -1.03128740891162      1.31644852683655     -0.73570343086117
  H   -1.05215054887335      0.84352029747661      1.00091097291085
  N   0.75962812435346     -1.22962997364524      0.71478066305521
  H   -0.05805384419463     -1.78157808306399      0.93705204906852
  H   1.19621693432677     -0.89446634873846      1.56074739722022
  C   1.55495660051095      0.87731074356881     -0.15403135817152
  H   1.55773461251722      1.42098230016246      0.79386625479424
  H   1.41906968780916      1.58699201844720     -0.97037097942838
  H   2.51500769104159      0.37568511115424     -0.28214824004634
  N   -2.00615386720425     -0.46420853955987     -0.31923853742966
  O   -2.14201222042339     -1.40410841368121      0.46644563157628
  O   -2.68693706308839     -0.27002760316500     -1.32030911511273
