15
Coordinates from ORCA-job run
  C   0.47444875768375     -0.30568096316477     -0.26054763774991
  C   -1.01083455232538     -0.40280251101271      0.10544133897564
  F   0.50682505196742     -0.30025381994214     -1.65399596296971
  H   -1.43497033906212     -1.29575608110448     -0.35360199746023
  H   -1.13525113191652     -0.41250093382361      1.18755356562281
  N   1.19667525876059     -1.46089561010679      0.17849319786637
  H   1.50956809419957     -1.37597295103222      1.13463322542854
  H   0.67470879034256     -2.31879542256457      0.05570741039982
  C   1.15764852119148      0.95182384450833      0.22711267120152
  H   1.06209158368235      1.06184711238594      1.30935852138523
  H   0.72125673691193      1.83022728311687     -0.24419751293827
  H   2.21227510296908      0.88804006699094     -0.04309475227001
  N   -1.79113477143160      0.75244286389712     -0.41526190443993
  O   -2.37721177908306      0.60538977618675     -1.48415765221070
  O   -1.76609532389005      1.78288734566534      0.25855748915882
