15
Coordinates from ORCA-job run
  C   0.43154371099626     -0.14956620530721     -0.08127977288988
  C   -0.91825956163875      0.55675260825823      0.00076437763646
  F   0.37467470479804     -0.91396481680074     -1.27782513844868
  H   -1.00708374982883      1.30799485525929     -0.78024684730163
  H   -1.05957564650262      0.99222371575997      0.99010443434232
  N   0.66758860669697     -0.95906744810478      1.05354400051256
  H   -0.08816985173760     -1.61634931091933      1.19770865913456
  H   1.54350340740175     -1.45621178973451      0.95678172343529
  C   1.54692113377998      0.85696479608978     -0.26846899995207
  H   1.58083014401972      1.55112657351201      0.57203300509276
  H   1.40616981485206      1.40822125273031     -1.19881951891113
  H   2.50273650071963      0.33138150601196     -0.32466737117524
  N   -2.04329968007127     -0.39684361315252     -0.22623414833145
  O   -2.79790844919546     -0.16939584458115     -1.16549075360472
  O   -2.14067108428987     -1.34426627902132      0.55309635046087
