14

C	-0.409212	0.05076	-1.47273
C	0.0	0.0	0.0
Br	-2.355624	0.422005	-1.616929
H	1.095876	0.0	0.0
H	-0.316799	0.933066	0.475672
C	0.364436	1.154155	-2.181845
H	0.129835	2.114811	-1.718233
H	1.432097	0.953009	-2.052179
H	0.106522	1.192463	-3.240502
C	-0.201618	-1.236912	-2.132666
N	-0.024531	-2.271889	-2.66367
C	-0.555795	-1.128447	0.728476
N	-1.018765	-2.030465	1.320399
Br	3.466637	0.0	0.0
