14

C	-0.410261	0.069838	-1.473172
C	0.0	0.0	0.0
Br	-2.348466	0.485197	-1.610092
H	1.095834	0.0	0.0
H	-0.314567	0.927624	0.487932
C	0.387002	1.161168	-2.175519
H	0.180134	2.123332	-1.702032
H	0.125434	1.216897	-3.232561
H	1.450454	0.931913	-2.053234
C	-0.232824	-1.216195	-2.143931
N	-0.078747	-2.24915	-2.684677
C	-0.560243	-1.135555	0.714939
N	-1.031461	-2.040779	1.295463
Br	3.46264	0.0	0.0
