14

C	-0.546589	0.009655	-1.437025
C	0.0	0.0	0.0
Br	0.151321	-1.61713	-2.285518
H	1.092797	0.0	0.0
H	-0.33303	-0.920964	0.489323
C	-2.07165	-0.034405	-1.507328
H	-2.408898	-0.087185	-2.54371
H	-2.4366	-0.912585	-0.970544
H	-2.480082	0.866857	-1.043127
C	-0.047473	1.1576	-2.193705
N	0.312936	2.119059	-2.765907
C	-0.516944	1.149363	0.735912
N	-0.947977	2.074739	1.317545
Br	3.351705	0.0	0.0
