14

C	-0.502002	-0.002165	-1.446513
C	0.0	0.0	0.0
Br	0.212886	1.620214	-2.320569
H	1.093709	0.0	0.0
H	-0.33586	0.908966	0.50838
C	-0.025425	-1.22568	-2.222648
H	-0.443666	-2.126491	-1.764884
H	1.064038	-1.270552	-2.174041
H	-0.350546	-1.169648	-3.263487
C	-1.957643	0.122869	-1.505259
N	-3.132128	0.183393	-1.525313
C	-0.489838	-1.167282	0.70819
N	-0.884471	-2.126754	1.263075
Br	2.914899	0.0	0.0
