14

C	-0.411831	0.056481	-1.473517
C	0.0	0.0	0.0
Br	-2.349704	0.474841	-1.613018
H	1.095835	0.0	0.0
H	-0.314673	0.932083	0.479241
C	0.38702	1.141458	-2.184756
H	1.450668	0.91166	-2.061129
H	0.123941	1.189339	-3.242125
H	0.182506	2.107716	-1.718479
C	-0.236067	-1.235367	-2.132899
N	-0.086698	-2.2736	-2.664045
C	-0.560206	-1.128894	0.725737
N	-1.032415	-2.027849	1.315199
Br	3.46282	0.0	0.0
