14

C	-0.431674	-0.038284	-1.477155
C	0.0	0.0	0.0
Br	0.06167	1.691465	-2.27623
H	1.093689	0.0	0.0
H	-0.364149	0.904871	0.491301
C	0.30373	-1.149488	-2.218257
H	0.062346	-1.133882	-3.281925
H	1.377336	-1.009214	-2.068554
H	0.008872	-2.115052	-1.796622
C	-1.881971	-0.157776	-1.621032
N	-3.046941	-0.278996	-1.726667
C	-0.496433	-1.179641	0.701398
N	-0.897893	-2.138761	1.248092
Br	3.477438	0.0	0.0
