14

C	-0.432106	-0.037241	-1.477017
C	0.0	0.0	0.0
Br	0.061666	1.6933	-2.275062
H	1.093732	0.0	0.0
H	-0.364339	0.904461	0.491654
C	0.3031	-1.148185	-2.218754
H	0.006647	-2.113863	-1.798527
H	0.063327	-1.131207	-3.282823
H	1.376615	-1.008532	-2.067352
C	-1.882554	-0.155475	-1.620446
N	-3.047526	-0.274671	-1.728143
C	-0.496292	-1.180201	0.70066
N	-0.896908	-2.140282	1.246223
Br	3.477502	0.0	0.0
