14

C	-0.464811	-0.027056	-1.461115
C	0.0	0.0	0.0
Br	0.045455	1.656557	-2.333338
H	1.093779	0.0	0.0
H	-0.318903	-0.940578	0.465433
C	0.221857	-1.181207	-2.187084
H	-0.095821	-2.125321	-1.733078
H	-0.044569	-1.186157	-3.244697
H	1.302751	-1.072543	-2.066635
C	-1.921821	-0.125335	-1.558484
N	-3.088438	-0.251867	-1.626015
C	-0.544323	1.110225	0.769482
N	-1.000336	1.990781	1.398463
Br	3.486172	0.0	0.0
