14

C	-0.461458	-0.0281	-1.462982
C	0.0	0.0	0.0
Br	0.035909	1.660389	-2.337945
H	1.093698	0.0	0.0
H	-0.317821	-0.94104	0.465448
C	0.235757	-1.176739	-2.18561
H	-0.075379	-2.123395	-1.732997
H	-0.026061	-1.185644	-3.244619
H	1.314859	-1.05964	-2.060077
C	-1.916199	-0.137773	-1.565009
N	-3.082057	-0.273933	-1.636896
C	-0.548136	1.108971	0.767382
N	-1.010048	1.986163	1.396536
Br	3.47797	0.0	0.0
