19

C	-0.466089	-0.124546	-1.444006
C	0.0	0.0	0.0
F	-1.819964	-0.393711	-1.500037
H	1.089234	0.0	0.0
N	-0.312823	1.271334	-2.052105
O	0.819875	1.588092	-2.39922
O	-1.312268	1.982538	-2.124828
C	0.294539	-1.087522	-2.319774
H	0.084035	-0.877944	-3.371502
H	1.361983	-0.979798	-2.110407
H	-0.020271	-2.098372	-2.073518
N	-0.388057	-1.208001	0.732862
O	-0.0766	-2.301432	0.239959
O	-0.912581	-1.091192	1.849064
C	-0.46961	1.251364	0.708831
H	-1.554467	1.369484	0.695849
H	-0.126119	1.212495	1.741267
H	0.002075	2.117709	0.24184
H	2.589497	0.0	0.0
