19

C	0.0	0.0	0.0
C	-0.647865	0.159612	-1.388913
Cl	1.771487	0.0	0.0
H	-1.569672	0.715186	-1.182233
N	-0.312098	1.271074	0.821846
O	-0.312619	1.168742	2.04216
O	-0.479798	2.319307	0.204807
C	-0.496598	-1.197703	0.769559
H	-0.226673	-2.087931	0.20632
H	-0.046076	-1.217884	1.760263
H	-1.583072	-1.12683	0.856596
N	-0.977906	-1.17454	-1.908286
H	-1.095962	-1.088261	-2.911619
H	-1.895774	-1.40222	-1.531581
C	0.207061	0.901241	-2.403009
H	-0.420771	1.185251	-3.253465
H	1.005891	0.247422	-2.760748
H	0.649308	1.803589	-1.988803
Cl	-3.773088	0.0	0.0
