19

C	0.0	0.0	0.0
C	-0.446405	0.152439	-1.465434
Cl	1.792008	0.0	0.0
H	0.10716	-0.654932	-1.961773
N	-0.403059	1.194429	0.866245
O	-0.042974	1.160536	2.037816
O	-1.076841	2.083853	0.356258
C	-0.553823	-1.229453	0.679875
H	-0.343501	-2.108993	0.068393
H	-1.63697	-1.119047	0.791465
H	-0.097606	-1.350714	1.66145
N	0.065269	1.401042	-2.033503
H	0.121899	1.287701	-3.037807
H	-0.610109	2.131496	-1.846464
C	-1.935297	-0.080632	-1.691355
H	-2.261559	-1.084372	-1.419498
H	-2.137772	0.054792	-2.758203
H	-2.576242	0.600409	-1.133527
Cl	-4.890973	0.0	0.0
