19

C	0.0	0.0	0.0
C	-0.410871	0.826759	-1.257442
Cl	1.783394	0.0	0.0
H	0.028967	0.227818	-2.066497
N	-0.383858	0.660139	1.323142
O	-0.266817	-0.032388	2.328371
O	-0.749294	1.831711	1.309409
C	-0.566526	-1.397463	-0.00306
H	-1.64672	-1.342196	0.162292
H	-0.112972	-2.002631	0.779718
H	-0.377026	-1.855453	-0.975808
N	0.15168	2.163228	-1.387585
H	1.143865	2.156512	-1.18753
H	-0.296742	2.763111	-0.707305
C	-1.91172	0.90018	-1.475583
H	-2.394472	-0.069672	-1.564485
H	-2.072599	1.457978	-2.400399
H	-2.43301	1.411011	-0.66766
Cl	-4.76617	0.0	0.0
