19

C	0.0	0.0	0.0
C	-0.604254	0.210132	-1.411779
Cl	1.785467	0.0	0.0
H	-1.564674	0.685247	-1.201307
N	-0.324408	1.231226	0.878005
O	-0.189153	1.098577	2.088659
O	-0.637681	2.272605	0.314185
C	-0.514329	-1.218209	0.723451
H	-0.221309	-2.114676	0.178481
H	-0.101869	-1.257607	1.729712
H	-1.605443	-1.143198	0.762153
N	-0.929123	-1.024129	-2.10695
H	-1.766159	-1.415396	-1.686553
H	-0.17482	-1.698129	-2.055861
C	0.226362	1.098862	-2.327256
H	0.512407	2.030481	-1.839893
H	-0.381032	1.321807	-3.206621
H	1.131362	0.582636	-2.662963
Cl	-3.731386	0.0	0.0
