13

C	-0.32824	-0.000707	-1.470758
C	0.0	0.0	0.0
Br	-2.260077	-0.03897	-1.850742
H	1.095194	0.0	0.0
H	0.011336	0.962359	-1.862621
C	0.323517	-1.04956	-2.251787
N	0.825766	-1.82132	-2.982348
N	-0.391831	-1.193461	0.713324
O	-0.465041	-1.121319	1.948088
O	-0.468531	-2.242749	0.055844
C	-0.454797	1.197245	0.662576
N	-0.761073	2.222624	1.152716
H	2.35545	0.0	0.0
