13

C	-0.33287	0.017632	-1.470252
C	0.0	0.0	0.0
Br	-2.268238	-0.05872	-1.843276
H	1.095105	0.0	0.0
H	-0.016797	0.993165	-1.849403
C	0.334316	-1.004543	-2.271474
N	0.830153	-1.751876	-3.030568
N	-0.384787	-1.206945	0.694158
O	-0.439416	-2.247682	0.022864
O	-0.473926	-1.150876	1.928259
C	-0.462197	1.183609	0.680597
N	-0.767741	2.202388	1.183805
H	2.355231	0.0	0.0
