13

C	-0.467223	-0.003018	-1.439468
C	0.0	0.0	0.0
Br	0.743569	-1.036085	-2.640063
H	1.091638	0.0	0.0
H	-1.416227	-0.528244	-1.537783
C	-0.558294	1.337835	-1.999135
N	-0.651803	2.407054	-2.479831
N	-0.399172	-1.20269	0.692083
O	-0.725114	-2.192875	0.011119
O	-0.236101	-1.213547	1.922818
C	-0.395335	1.168557	0.74627
N	-0.660794	2.156589	1.328968
H	2.293403	0.0	0.0
