13

C	-0.29641	-0.005688	-1.491375
C	0.0	0.0	0.0
Br	0.183239	1.723431	-2.261209
H	1.094922	0.0	0.0
H	0.379755	-0.732664	-1.946713
C	-1.681933	-0.299509	-1.8284
N	-2.800147	-0.519194	-2.117366
N	-0.317876	-1.285984	0.582877
O	-0.422275	-1.360133	1.814205
O	-0.280327	-2.261908	-0.187395
C	-0.563984	1.090631	0.750971
N	-1.006037	2.006372	1.344044
H	2.34424	0.0	0.0
