13

C	-0.346596	0.025775	-1.463956
C	0.0	0.0	0.0
Br	-2.289533	0.051553	-1.820379
H	1.109459	0.0	0.0
H	0.016516	0.980908	-1.853234
C	0.253125	-1.035869	-2.26625
N	0.709558	-1.811704	-3.02145
N	-0.3926	-1.19592	0.702438
O	-0.513366	-2.233702	0.034111
O	-0.42548	-1.141167	1.940209
C	-0.428688	1.19233	0.686567
N	-0.70725	2.219671	1.188181
H	2.33941	0.0	0.0
