13

C	-0.399715	0.270828	-1.423657
C	0.0	0.0	0.0
Br	-2.358653	0.287424	-1.701147
H	1.108914	0.0	0.0
H	-0.086134	1.292563	-1.653072
C	0.194981	-0.612115	-2.421441
N	0.644678	-1.22468	-3.317515
N	-0.366259	-1.304751	0.496245
O	-0.364147	-1.463657	1.724887
O	-0.495672	-2.212909	-0.338371
C	-0.421395	1.050198	0.89357
N	-0.693262	1.970904	1.574015
H	2.340647	0.0	0.0
