13

C	-0.324324	-0.170913	-1.460512
C	0.0	0.0	0.0
Br	-2.260264	-0.250324	-1.840936
H	1.108875	0.0	0.0
H	0.017802	0.7376	-1.963926
C	0.320989	-1.305983	-2.113959
N	0.809296	-2.154444	-2.763599
N	-0.395863	-1.097855	0.845051
O	-0.487247	-0.878092	2.060818
O	-0.465007	-2.218576	0.31878
C	-0.445699	1.269179	0.515729
N	-0.734853	2.354768	0.865921
H	2.338405	0.0	0.0
