13

C	-0.284463	-0.12392	-1.487518
C	0.0	0.0	0.0
Br	0.129525	1.565279	-2.380164
H	1.109377	0.0	0.0
H	0.427719	-0.849793	-1.889489
C	-1.651731	-0.50649	-1.811258
N	-2.753795	-0.805534	-2.091021
N	-0.285214	-1.243993	0.674761
O	-0.19625	-2.275798	-0.017813
O	-0.392232	-1.231175	1.909256
C	-0.581528	1.128092	0.672456
N	-1.004506	2.086032	1.211181
H	2.321728	0.0	0.0
