13

C	-0.482014	-0.322561	-1.383794
C	0.0	0.0	0.0
Br	0.950334	-1.128872	-2.574015
H	1.105967	0.0	0.0
H	-1.20748	-1.133567	-1.349937
C	-1.002545	0.821617	-2.11029
N	-1.444769	1.731696	-2.70999
N	-0.302922	-1.058551	0.927686
O	-0.414021	-2.209895	0.466425
O	-0.244829	-0.787277	2.137962
C	-0.382518	1.286954	0.514909
N	-0.639373	2.370574	0.898157
H	2.229421	0.0	0.0
