13

C	-0.452476	-0.295139	-1.410773
C	0.0	0.0	0.0
Br	0.807481	-1.497438	-2.396327
H	1.10216	0.0	0.0
H	-1.378429	-0.869535	-1.411097
C	-0.585415	0.906636	-2.219941
N	-0.711579	1.860612	-2.895439
N	-0.386452	-1.043992	0.914069
O	-0.249439	-0.804504	2.125154
O	-0.670741	-2.16072	0.441196
C	-0.391098	1.293025	0.498565
N	-0.654069	2.377959	0.873665
H	2.271189	0.0	0.0
