13

C	-0.361981	0.318265	-1.423785
C	0.0	0.0	0.0
Br	-2.302202	0.537749	-1.730084
H	1.109379	0.0	0.0
H	0.062258	1.303143	-1.638302
C	0.158961	-0.616422	-2.415121
N	0.56984	-1.278212	-3.294516
N	-0.411257	-1.29876	0.470629
O	-0.665719	-2.167776	-0.378384
O	-0.33141	-1.500447	1.69151
C	-0.384329	1.045171	0.915874
N	-0.612294	1.95895	1.621172
H	2.337933	0.0	0.0
