14

C	-0.45681	-0.037675	-1.471817
C	0.0	0.0	0.0
Cl	-2.332006	-0.145724	-1.477676
H	1.097305	0.0	0.0
N	0.031552	1.078178	-2.164298
H	-0.184735	1.953117	-1.70443
H	-0.244461	1.090512	-3.135735
C	-0.023078	-1.27663	-2.123977
N	0.281282	-2.257857	-2.693551
C	-0.479807	-1.156876	0.747771
N	-0.848957	-2.09285	1.353517
C	-0.454668	1.244697	0.61458
N	-0.792662	2.275502	1.065872
Cl	3.121482	0.0	0.0
