14

C	-0.488349	-0.009994	-1.465882
C	0.0	0.0	0.0
Cl	0.117837	-1.485686	-2.261521
H	1.096409	0.0	0.0
N	-1.933507	-0.038397	-1.510269
H	-2.296079	0.801194	-1.067779
H	-2.244557	-0.05291	-2.475386
C	0.079883	1.148693	-2.181027
N	0.406737	2.12878	-2.742751
C	-0.494161	-1.175976	0.71269
N	-0.863534	-2.118957	1.307001
C	-0.484582	1.219247	0.645712
N	-0.901012	2.211906	1.117646
Cl	3.133843	0.0	0.0
