14

C	-0.336706	0.041952	-1.502468
C	0.0	0.0	0.0
Cl	-2.111132	0.272984	-1.760641
H	1.098868	0.0	0.0
N	0.368894	1.159465	-2.050464
H	0.289726	1.174055	-3.059574
H	1.351541	1.090164	-1.779403
C	-0.013779	-1.258225	-2.121679
N	0.267729	-2.264931	-2.66024
C	-0.515195	-1.193926	0.657134
N	-0.926582	-2.155875	1.191107
C	-0.46808	1.210061	0.669548
N	-0.831733	2.167224	1.24449
Cl	3.129773	0.0	0.0
