14

C	-0.488521	0.001861	-1.466073
C	0.0	0.0	0.0
Cl	0.115647	-1.46978	-2.272457
H	1.09639	0.0	0.0
N	-1.934443	-0.024006	-1.511242
H	-2.242228	-0.025242	-2.476482
H	-2.294351	0.813124	-1.06178
C	0.083339	1.164264	-2.170195
N	0.410324	2.149079	-2.723058
C	-0.495626	-1.181618	0.703675
N	-0.875441	-2.127878	1.285526
C	-0.486158	1.214805	0.654602
N	-0.912673	2.206058	1.120554
Cl	3.125369	0.0	0.0
