14

C	-0.507264	0.020467	-1.461082
C	0.0	0.0	0.0
Cl	0.311788	-1.362333	-2.323584
H	1.095433	0.0	0.0
N	-1.930242	-0.05398	-1.502326
H	-2.247054	-0.910159	-1.060334
H	-2.264053	-0.029883	-2.458381
C	-0.080902	1.251155	-2.136058
N	0.193951	2.230171	-2.72398
C	-0.486749	-1.211575	0.656982
N	-0.913754	-2.185627	1.156403
C	-0.486312	1.181651	0.711035
N	-0.860948	2.136795	1.282746
Cl	3.13873	0.0	0.0
