13

C	-0.494994	-0.088813	-1.447204
C	0.0	0.0	0.0
Cl	-0.267851	1.513043	-2.232429
H	1.094032	0.0	0.0
H	-1.572873	-0.267262	-1.476768
H	-0.351608	0.91576	0.481095
C	0.261691	-1.150175	-2.221684
H	0.070104	-2.129828	-1.774337
H	1.333174	-0.947768	-2.161499
H	-0.055599	-1.173916	-3.266404
C	-0.497256	-1.150608	0.749351
N	-0.932364	-2.090555	1.30297
Cl	3.398904	0.0	0.0
