13

C	0.0	0.0	0.0
C	-0.689071	-0.066762	-1.341976
Cl	1.773149	0.0	0.0
H	-1.789936	-0.234407	-0.898346
H	-0.323131	-0.865176	0.584187
C	-0.422781	1.219794	0.707774
N	-0.568436	2.225452	1.291496
C	-0.2354	-1.166238	-2.155977
N	0.087438	-2.074663	-2.83711
N	-0.644707	1.215115	-2.040125
H	-0.641179	1.068139	-3.045213
H	-1.520581	1.674415	-1.799527
H	-2.852458	0.0	0.0
