13

C	0.0	0.0	0.0
C	-0.53844	0.002184	-1.421804
Cl	1.784057	0.0	0.0
H	-1.659767	0.00853	-1.147407
H	-0.359787	-0.888732	0.519425
C	-0.449898	1.202564	0.712848
N	-0.591878	2.208492	1.304522
C	-0.185417	-1.235033	-2.114164
N	0.088734	-2.197084	-2.73534
N	-0.138723	1.206505	-2.127085
H	-0.771888	1.376078	-2.897495
H	0.801565	1.114953	-2.494437
H	-2.76414	0.0	0.0
