13

C	0.0	0.0	0.0
C	-0.578071	-0.012181	-1.395566
Cl	1.784283	0.0	0.0
H	-1.710814	-0.009339	-1.064295
H	-0.355605	-0.870736	0.556222
C	-0.395194	1.228653	0.720455
N	-0.572785	2.237507	1.294066
C	-0.256546	-1.255051	-2.088313
N	-0.008113	-2.239075	-2.688645
N	-0.211002	1.18717	-2.122787
H	-0.907729	1.380604	-2.827345
H	0.692535	1.082361	-2.569109
H	-2.792642	0.0	0.0
