13

C	0.0	0.0	0.0
C	-0.554348	-0.067012	-1.430117
Cl	1.78083	0.0	0.0
H	-1.661875	-0.162544	-1.150573
H	-0.352053	-0.870897	0.556168
C	-0.454858	1.217339	0.680145
N	-0.574871	2.249927	1.232537
C	-0.073252	-1.264083	-2.102748
N	0.305028	-2.250448	-2.62007
N	-0.357143	1.116139	-2.242136
H	-1.012574	1.820513	-1.917295
H	0.583924	1.478182	-2.128035
H	-2.737769	0.0	0.0
