14

C	-0.532765	-0.01534	-1.413769
C	0.0	0.0	0.0
Cl	0.035511	1.418115	-2.273764
H	1.091019	0.0	0.0
H	-1.61703	-0.052432	-1.48716
N	-0.041619	-1.243757	-2.151732
O	-0.742214	-1.619313	-3.08671
O	1.01498	-1.736878	-1.784259
N	-0.415464	-1.264375	0.697587
O	-1.369113	-1.890912	0.228059
O	0.183307	-1.530393	1.734481
C	-0.507606	1.184398	0.662155
N	-0.966686	1.91603	1.516548
Br	2.829751	0.0	0.0
