14

C	-0.414794	-0.01205	-1.461582
C	0.0	0.0	0.0
Cl	0.176714	-1.351785	-2.429324
H	1.094818	0.0	0.0
H	-0.027926	0.901132	-1.91317
N	-1.917743	0.0641	-1.618329
O	-2.330281	0.65432	-2.611325
O	-2.601244	-0.480651	-0.757343
N	-0.445342	-1.172578	0.823524
O	-0.885739	-0.932495	1.943221
O	-0.271721	-2.281851	0.339226
C	-0.484689	1.23785	0.595278
N	-0.846305	2.282136	0.994039
Br	3.275949	0.0	0.0
