13
Coordinates from ORCA-job run
  C   0.42158831343385     -0.45637629697737     -0.18988675864527
  C   -0.77520783453442      0.31599059865416      0.31451793503677
  F   0.27515427864527     -0.58625695686833     -1.58226445478073
  H   -0.74943815817442      1.31507407964248     -0.14839701751258
  H   0.38975628552855     -1.47185634202543      0.21516814151053
  H   -0.67303339147607      0.44626937374448      1.39625830148601
  C   1.74722439098563      0.21364294556370      0.08390399471728
  H   2.55829994486156     -0.36025476184966     -0.36670487419060
  H   1.75950188561777      1.21950158944069     -0.34107603790269
  H   1.92775111784537      0.28286707568595      1.15908191731016
  N   -1.99302993407245     -0.44137919849795      0.04448123107695
  H   -2.80175241697422      0.07093493158749      0.37266523288343
  H   -2.08781448168643     -0.54815703810022     -0.95774761098927
