11
Coordinates from ORCA-job run
  C   -0.71327534819178      0.24185803960807     -0.12040450552661
  C   0.73405270598100      0.72800441281245     -0.06946314807262
  Cl  -1.76774714324374      1.59025065664707      0.39657026985024
  H   0.96807635608581      1.00777641309890      0.96042658159539
  H   -0.99824294489253      0.04400810500954     -1.16044497530463
  H   0.85978419470843      1.60508024708488     -0.70784770083130
  N   -0.89029505847757     -0.85972108899288      0.79027656078521
  H   -1.85275113863312     -1.17420580751024      0.77855417863498
  H   -0.29914513592827     -1.63493245435096      0.50918118094933
  C   1.63954808235361     -0.33148923948672     -0.51021167870535
  N   2.32099543023814     -1.21762928392009     -0.86763676337463
