11
Coordinates from ORCA-job run
  C   -0.59220903941116      0.11540766317027     -0.15293196124828
  C   0.90019723395918     -0.15247313086594      0.01646889697644
  Cl  -1.03199197046111      1.53389911659852      0.91788294409418
  H   1.11573498702491     -0.36608716250108      1.06749238334886
  H   -0.80585517112643      0.46117061357944     -1.16384753155283
  H   1.14956002167284     -1.04040750075236     -0.57059215089473
  N   -1.32861914464428     -1.06752140693718      0.11121832070906
  H   -2.31401454717808     -0.93914927804291     -0.07767271650815
  H   -1.22094580797052     -1.36095666981066      1.07460907949168
  C   1.72928193210419      0.96538721270165     -0.42365309524114
  N   2.39886150603046      1.85173054286026     -0.79997416917507
