11
Coordinates from ORCA-job run
  C   -0.66595658922235     -0.03431454819946     -0.28980140820210
  C   0.69217602249653      0.66151692487314     -0.29181218648720
  Cl  -1.92095817808563      1.30077088093320     -0.48156295348653
  H   0.78470723808620      1.29569194331379     -1.17560886919666
  H   -0.78654904122653     -0.64338501551742     -1.18494099861968
  H   0.76853915628861      1.31423140031963      0.58327428521326
  N   -0.83167050440716     -0.83536544747417      0.85850009011551
  H   -1.68449725348009     -1.37700961368612      0.83015845021213
  H   -0.80728429984371     -0.29046349064499      1.71086537357401
  C   1.78399169598956     -0.31056536491145     -0.27488484189557
  N   2.66750175340456     -1.08210766900616     -0.28218694122716
