18

C	-0.471712	-0.017987	-1.445116
C	0.0	0.0	0.0
F	0.103888	-1.079443	-2.087985
H	1.09597	0.0	0.0
C	-1.96405	-0.091045	-1.685483
H	-2.478496	0.73617	-1.201709
H	-2.324758	-1.036734	-1.278598
H	-2.169678	-0.063631	-2.758475
N	0.050382	1.232947	-2.146575
O	-0.585136	2.267577	-1.936018
O	1.027574	1.130321	-2.871551
C	-0.515516	-1.19344	0.641236
N	-0.950648	-2.148777	1.174072
C	-0.366064	1.249156	0.804615
H	-0.044875	1.081613	1.834593
H	0.202851	2.097087	0.42474
H	-1.432388	1.497824	0.8016
F	2.518876	0.0	0.0
