18

C	-0.458601	0.020776	-1.44983
C	0.0	0.0	0.0
F	0.014534	-1.101376	-2.073548
H	1.095853	0.0	0.0
C	-1.948311	0.096293	-1.707858
H	-2.414244	-0.785321	-1.264071
H	-2.136882	0.093063	-2.784551
H	-2.374489	0.99778	-1.272214
N	0.187339	1.201036	-2.170237
O	1.083849	0.976965	-2.966986
O	-0.292068	2.309167	-1.916603
C	-0.514403	-1.218782	0.594224
N	-0.946619	-2.196012	1.08814
C	-0.390109	1.213445	0.84636
H	-0.015214	1.040936	1.857557
H	0.108894	2.10095	0.460234
H	-1.468899	1.397518	0.897622
F	2.51526	0.0	0.0
