18

C	-0.299372	0.150291	-1.484225
C	0.0	0.0	0.0
F	-1.602062	0.540845	-1.72853
H	1.093832	0.0	0.0
C	0.681413	1.09716	-2.133127
H	1.66444	0.871574	-1.704499
H	0.388643	2.11821	-1.880981
H	0.675275	0.986435	-3.218399
N	-0.171036	-1.221957	-2.136898
O	0.960415	-1.571999	-2.459616
O	-1.194632	-1.888843	-2.26365
C	-0.594553	-1.176779	0.601098
N	-1.066636	-2.103753	1.150079
C	-0.394467	1.263021	0.772703
H	-1.448773	1.524171	0.655012
H	-0.182702	1.105627	1.832041
H	0.232792	2.091335	0.441249
F	2.58685	0.0	0.0
