18

C	-0.310348	0.152936	-1.48537
C	0.0	0.0	0.0
F	-1.565693	0.679972	-1.712572
H	1.093786	0.0	0.0
C	0.752652	0.974675	-2.178905
H	1.721376	0.65858	-1.773501
H	0.689006	0.859188	-3.263221
H	0.587011	2.024954	-1.928249
N	-0.336402	-1.233635	-2.113731
O	-1.433258	-1.720684	-2.382551
O	0.757612	-1.767248	-2.279734
C	-0.588623	-1.184223	0.593591
N	-1.076845	-2.121519	1.110592
C	-0.40511	1.254887	0.77847
H	-1.478024	1.456996	0.733748
H	-0.105332	1.129834	1.820944
H	0.144354	2.113015	0.387391
F	2.594381	0.0	0.0
