18

C	-0.191235	-0.110323	-1.509573
C	0.0	0.0	0.0
F	0.125189	1.100938	-2.068783
H	1.097039	0.0	0.0
C	0.695669	-1.168104	-2.106038
H	1.691478	-0.936331	-1.708023
H	0.666414	-1.112011	-3.196733
H	0.388177	-2.160112	-1.778118
N	-1.658992	-0.329531	-1.865462
O	-2.347519	0.661104	-2.104547
O	-2.066908	-1.489745	-1.8374
C	-0.470361	-1.193685	0.674917
N	-0.826231	-2.149955	1.260708
C	-0.567062	1.275043	0.609484
H	-1.653071	1.353632	0.49973
H	-0.317306	1.302336	1.672035
H	-0.097617	2.133761	0.129759
F	2.588109	0.0	0.0
