21

C	-0.435156	-0.06673	-1.476998
C	0.0	0.0	0.0
Cl	-0.176572	1.561716	-2.254301
H	1.097343	0.0	0.0
C	0.457992	-1.033632	-2.245294
H	0.232752	-0.997615	-3.314956
H	1.508262	-0.779409	-2.077588
H	0.290989	-2.05696	-1.893055
C	-1.909348	-0.392197	-1.671511
H	-2.166006	-0.345407	-2.732841
H	-2.548448	0.31289	-1.135152
H	-2.120382	-1.402427	-1.311132
C	-0.43581	-1.262859	0.753635
H	-0.203566	-2.181138	0.211607
H	-1.506606	-1.254326	0.981965
H	0.110565	-1.306036	1.69844
C	-0.489765	1.226958	0.763277
H	-0.045097	2.14288	0.374163
H	-1.582232	1.324306	0.729518
H	-0.191232	1.133759	1.812148
Cl	3.585178	0.0	0.0
