15

C	0.0	0.0	0.0
C	-0.550754	-0.122535	-1.416563
Cl	1.783258	0.0	0.0
H	-1.639261	-0.252166	-1.264927
H	-0.337373	-0.854692	0.583862
C	-0.425711	1.245945	0.636011
N	-0.609522	2.28275	1.15584
N	-0.055032	-1.417266	-1.985419
O	0.285125	-1.444644	-3.168159
O	-0.059977	-2.394496	-1.239139
C	-0.253606	1.04564	-2.323965
H	-0.699326	0.878303	-3.303057
H	-0.705223	1.93894	-1.888956
H	0.819029	1.202553	-2.451271
Cl	-3.400035	0.0	0.0
