15

C	0.0	0.0	0.0
C	-0.564554	-0.017698	-1.41515
Cl	1.783277	0.0	0.0
H	-1.655801	-0.132726	-1.259432
H	-0.336851	-0.892057	0.525031
C	-0.423375	1.195958	0.727722
N	-0.638767	2.16279	1.358343
N	-0.110837	-1.282548	-2.078053
O	-0.076535	-2.299453	-1.387799
O	0.151225	-1.246516	-3.28013
C	-0.249252	1.200049	-2.249475
H	-0.738437	1.122296	-3.218706
H	0.824216	1.319667	-2.407944
H	-0.64287	2.079309	-1.73609
Cl	-3.425449	0.0	0.0
