15

C	0.0	0.0	0.0
C	-0.53592	-0.164249	-1.420673
Cl	1.783004	0.0	0.0
H	-0.21449	-1.139692	-1.790302
H	-0.327159	-0.871695	0.571276
C	-0.456805	1.204609	0.691187
N	-0.7759	2.14868	1.312019
N	0.135422	0.814283	-2.33778
O	0.133111	1.994573	-2.001315
O	0.609658	0.366786	-3.381262
C	-2.036783	0.024809	-1.501637
H	-2.584677	-0.61981	-0.812559
H	-2.3864	-0.197371	-2.51111
H	-2.325195	1.042409	-1.241277
Cl	-4.996518	0.0	0.0
