15

C	0.0	0.0	0.0
C	-0.537407	-0.195112	-1.415632
Cl	1.783187	0.0	0.0
H	-0.188946	-1.163972	-1.777284
H	-0.320887	-0.865692	0.584896
C	-0.467852	1.20952	0.671471
N	-0.798125	2.152818	1.288241
N	0.100765	0.794101	-2.345181
O	0.06969	1.976521	-2.01777
O	0.578366	0.3493	-3.388519
C	-2.044711	-0.056756	-1.497844
H	-2.365759	-0.207258	-2.531707
H	-2.385687	0.921004	-1.160616
H	-2.564468	-0.783034	-0.871948
Cl	-5.010469	0.0	0.0
