15

C	0.0	0.0	0.0
C	-0.559756	0.31732	-1.38134
Cl	1.783143	0.0	0.0
H	-1.650374	0.160858	-1.265237
H	-0.335938	-0.991876	0.298
C	-0.424733	0.98869	0.989445
N	-0.638902	1.774101	1.835786
N	-0.088756	-0.749744	-2.321871
O	0.219734	-0.422861	-3.467858
O	-0.083743	-1.905409	-1.901902
C	-0.250203	1.701342	-1.896966
H	-0.666264	2.428434	-1.197256
H	0.823563	1.867693	-2.001836
H	-0.722025	1.850603	-2.866513
Cl	-3.424582	0.0	0.0
