12

C	-0.523284	-0.073612	-1.423693
C	0.0	0.0	0.0
Br	-0.440445	1.723355	-2.217099
H	1.08811	0.0	0.0
H	-1.579628	-0.344084	-1.450849
H	-0.332766	0.896089	0.518949
C	0.198104	-0.989529	-2.30462
N	0.722948	-1.686825	-3.091
N	-0.443606	-1.14664	0.751763
O	-0.716227	-2.187589	0.122062
O	-0.4113	-1.068379	1.987948
H	2.529857	0.0	0.0
