12

C	-0.513386	-0.164382	-1.419579
C	0.0	0.0	0.0
Br	-0.520297	1.594334	-2.298951
H	1.09204	0.0	0.0
H	-1.553598	-0.492658	-1.436382
H	-0.337538	0.922048	0.466895
C	0.25555	-1.08476	-2.256151
N	0.771694	-1.823813	-3.009818
N	-0.430967	-1.106428	0.812989
O	-0.414171	-0.956981	2.043588
O	-0.66848	-2.189401	0.241604
H	2.51628	0.0	0.0
