12

C	-0.40042	0.035642	-1.46039
C	0.0	0.0	0.0
Br	0.013793	-1.707811	-2.258377
H	1.094197	0.0	0.0
H	0.228084	0.758249	-1.982928
H	-0.397392	-0.848201	0.551936
C	-1.81107	0.315722	-1.700118
N	-2.952117	0.521595	-1.892911
N	-0.395649	1.222954	0.661069
O	-0.445504	2.255406	-0.030449
O	-0.52172	1.200063	1.89193
H	2.537154	0.0	0.0
