14

C	0.0	0.0	0.0
C	-0.395392	-0.075214	-1.480761
F	1.367648	0.0	0.0
H	0.435196	-0.577348	-1.983861
H	-0.412358	0.963851	-1.816171
N	-0.530018	1.079262	0.678536
H	-1.577524	0.883147	0.513127
H	-0.326397	0.964956	1.665351
N	-0.286718	-1.371385	0.683194
O	-0.250481	-2.375288	-0.021285
O	-0.415405	-1.364509	1.903333
C	-1.619199	-0.729941	-1.947738
N	-2.392571	-1.250578	-2.665624
F	-2.644751	0.0	0.0
