14

C	0.0	0.0	0.0
C	-0.514929	-0.042871	-1.439517
F	1.349608	0.0	0.0
H	-0.425932	0.977656	-1.825569
H	-1.595337	-0.251276	-1.304873
N	-0.546574	1.024221	0.78967
H	-1.583192	0.830358	0.665051
H	-0.319664	1.90852	0.347178
N	-0.357632	-1.342249	0.681366
O	-0.314047	-1.378919	1.90371
O	-0.551076	-2.306625	-0.053246
C	0.190224	-0.935551	-2.347898
N	0.764126	-1.594246	-3.133058
F	-2.764669	0.0	0.0
