14

C	0.0	0.0	0.0
C	-0.509257	-0.009821	-1.441618
F	1.361049	0.0	0.0
H	-1.591382	-0.216557	-1.313305
H	-0.415777	1.020141	-1.802528
N	-0.542205	1.011128	0.808249
H	-1.578619	0.817454	0.685042
H	-0.319384	1.900954	0.374579
N	-0.360065	-1.352274	0.653627
O	-0.475178	-2.313673	-0.101557
O	-0.401241	-1.40034	1.875162
C	0.190584	-0.878516	-2.375546
N	0.745553	-1.52008	-3.187876
F	-2.758587	0.0	0.0
