14

C	0.0	0.0	0.0
C	-0.508336	0.071332	-1.440666
F	1.363276	0.0	0.0
H	-1.611018	0.022805	-1.291568
H	-0.135921	-0.765847	-2.028843
N	-0.524834	0.940398	0.895654
H	-0.285484	1.863705	0.547886
H	-1.559535	0.77209	0.772361
N	-0.359601	-1.412138	0.52543
O	-0.211391	-2.333225	-0.277056
O	-0.652854	-1.546465	1.701602
C	-0.098008	1.330757	-2.039876
N	0.229491	2.353402	-2.516475
F	-2.754816	0.0	0.0
