16

C	-0.466667	-0.046006	-1.420133
C	0.0	0.0	0.0
F	-0.139234	-1.215531	-2.035924
H	1.094331	0.0	0.0
H	-0.339551	0.948492	0.430108
N	-1.87194	0.144812	-1.612837
H	-2.08773	0.162613	-2.6039
H	-2.133475	1.03033	-1.201398
N	0.292759	1.049745	-2.214467
O	0.051387	2.200144	-1.848775
O	1.000582	0.735343	-3.16101
C	-0.512704	-1.193355	0.793961
H	-0.10068	-2.113454	0.374835
H	-0.14389	-1.116406	1.820502
H	-1.6047	-1.276458	0.813872
F	2.655342	0.0	0.0
