16

C	-0.537571	-0.029613	-1.396463
C	0.0	0.0	0.0
F	0.000735	-1.055798	-2.120348
H	1.091443	0.0	0.0
H	-0.348251	-0.934258	0.455935
N	-1.952725	-0.136335	-1.498101
H	-2.253529	0.020054	-2.452718
H	-2.377263	0.569103	-0.913259
N	-0.049559	1.247958	-2.145944
O	-0.790004	2.235566	-2.053158
O	1.013586	1.213421	-2.746528
C	-0.442116	1.201879	0.828119
H	-1.527962	1.328809	0.934391
H	-0.020117	1.089332	1.829765
H	-0.029731	2.124388	0.416003
F	2.642253	0.0	0.0
