16

C	-0.09054	0.097445	-1.512991
C	0.0	0.0	0.0
F	-0.097528	1.422876	-1.871754
H	1.092679	0.0	0.0
H	-0.457934	0.877976	0.458849
N	0.968956	-0.556298	-2.199662
H	0.772087	-1.547743	-2.234925
H	1.800897	-0.422394	-1.583937
N	-1.44376	-0.433987	-2.000846
O	-2.407323	0.315782	-1.86323
O	-1.508855	-1.600432	-2.39143
C	-0.51796	-1.307001	0.570949
H	-1.603348	-1.418186	0.473546
H	-0.040614	-2.160216	0.08265
H	-0.263069	-1.365804	1.631166
F	2.712582	0.0	0.0
