15

C	-0.119198	0.054411	-1.532054
C	0.0	0.0	0.0
Br	-0.060767	-1.76621	-2.269892
H	1.099686	0.0	0.0
H	-0.344212	0.980819	0.349475
N	-1.44774	0.688011	-1.946354
O	-1.460706	1.921464	-1.915445
O	-2.429764	-0.0102	-2.165687
N	0.958663	0.802653	-2.095948
H	1.791764	0.554635	-1.5194
H	0.7591	1.784324	-1.937663
N	-0.734559	-1.062953	0.671543
H	-0.870425	-0.783008	1.635123
H	-0.134529	-1.879192	0.692872
F	2.725062	0.0	0.0
