15

C	-0.63304	-0.016355	-1.364646
C	0.0	0.0	0.0
Br	0.278743	1.403809	-2.494001
H	1.088495	0.0	0.0
H	-0.322144	0.943687	0.468534
N	-0.316876	-1.299322	-2.122116
O	0.713764	-1.885316	-1.847192
O	-1.124862	-1.63146	-2.99272
N	-2.032941	0.129106	-1.364378
H	-2.408037	0.067327	-2.301985
H	-2.275193	1.014136	-0.941236
N	-0.457605	-1.195377	0.716086
H	-1.156953	-0.977205	1.412441
H	0.361977	-1.574779	1.174801
F	2.642467	0.0	0.0
