15

C	-0.612642	0.005846	-1.381682
C	0.0	0.0	0.0
Br	0.442288	1.297846	-2.529847
H	1.091434	0.0	0.0
H	-0.394163	-0.885899	0.507485
N	-0.459784	-1.322474	-2.107363
O	-1.019354	-1.414592	-3.197232
O	0.156825	-2.218916	-1.548288
N	-1.98479	0.295663	-1.36463
H	-2.09251	1.070817	-0.714733
H	-2.336955	0.514769	-2.2858
N	-0.474106	1.233953	0.680559
H	0.339644	1.841093	0.712331
H	-0.685987	0.999986	1.642535
F	2.647762	0.0	0.0
