14

C	0.0	0.0	0.0
C	-0.502575	0.070246	-1.444282
F	1.371795	0.0	0.0
H	-1.592548	0.19384	-1.293822
H	-0.312525	0.924471	0.50131
N	-0.545348	-1.182672	0.591224
H	-1.572783	-0.953022	0.513022
H	-0.293846	-1.185025	1.5744
N	-0.121271	-1.154565	-2.171148
H	-0.883716	-1.384095	-2.799503
H	-0.108486	-1.87924	-1.456696
C	0.07732	1.2379	-2.115129
N	0.523194	2.182266	-2.652777
F	-2.819434	0.0	0.0
