14

C	0.0	0.0	0.0
C	-0.317788	0.334787	-1.469803
F	1.415725	0.0	0.0
H	0.15036	-0.491449	-2.021419
H	-0.294498	0.8253	0.65883
N	-0.479742	-1.288832	0.356059
H	-0.224642	-1.462982	1.323765
H	-1.511442	-1.085293	0.318505
N	0.333382	1.585008	-1.902783
H	1.242602	1.612124	-1.456487
H	-0.211249	2.36157	-1.539444
C	-1.715206	0.403622	-1.94988
N	-2.530027	0.593457	-2.780951
F	-2.643578	0.0	0.0
