14

C	0.0	0.0	0.0
C	-0.330698	-0.182811	-1.516299
F	1.388094	0.0	0.0
H	0.541516	0.259671	-2.011687
H	-0.290571	1.027352	0.269441
N	-0.572799	-1.006279	0.816428
H	-0.426209	-0.748909	1.78757
H	-1.593045	-0.866476	0.622953
N	-1.52454	0.422984	-2.078831
H	-1.365016	1.425457	-2.083216
H	-2.281862	0.248479	-1.372904
C	-0.274267	-1.615033	-1.873275
N	-0.188301	-2.731089	-2.227251
F	-2.933877	0.0	0.0
