14

C	0.0	0.0	0.0
C	-0.484473	0.046987	-1.449767
F	1.404136	0.0	0.0
H	-1.585656	0.065427	-1.273279
H	-0.330473	0.915387	0.493389
N	-0.517126	-1.111965	0.717368
H	-1.537073	-0.869899	0.704237
H	-0.429834	-1.916277	0.097603
N	-0.07605	-1.170345	-2.152075
H	-0.567185	-1.233908	-3.034813
H	0.91828	-1.124928	-2.346852
C	-0.038544	1.269485	-2.132576
N	0.312601	2.227038	-2.718303
F	-2.795028	0.0	0.0
