14

C	0.0	0.0	0.0
C	-0.438337	0.193214	-1.474223
F	1.376059	0.0	0.0
H	0.491425	0.39397	-2.019259
H	-0.292748	0.91763	0.524614
N	-0.5243	-1.198561	0.563607
H	-1.548804	-1.031942	0.447634
H	-0.331693	-1.181654	1.56065
N	-1.325387	1.343576	-1.597792
H	-2.143225	1.044409	-1.021017
H	-1.62318	1.407818	-2.566164
C	-0.981201	-1.044857	-2.081253
N	-1.372974	-1.93696	-2.737882
F	-2.821836	0.0	0.0
