14

C	0.0	0.0	0.0
C	-0.404163	0.12745	-1.502576
F	1.385261	0.0	0.0
H	0.521965	0.439908	-1.999175
H	-0.280816	0.951589	0.476943
N	-0.548089	-1.149912	0.623329
H	-0.386336	-1.074592	1.622437
H	-1.570643	-0.986158	0.470093
N	-1.452027	1.080346	-1.841692
H	-1.12076	1.994333	-1.547296
H	-2.233181	0.807047	-1.201797
C	-0.746546	-1.178922	-2.091488
N	-0.996226	-2.182227	-2.646883
F	-2.866998	0.0	0.0
