14

C	0.0	0.0	0.0
C	-0.348219	0.297999	-1.466861
F	1.419948	0.0	0.0
H	-0.162801	-0.658841	-1.982917
H	-0.288105	0.84273	0.635238
N	-0.495029	-1.2729	0.391663
H	-0.321568	-1.372708	1.387459
H	-1.524236	-1.073072	0.291128
N	0.530294	1.383755	-1.945158
H	1.482851	1.042232	-1.93282
H	0.269786	1.59494	-2.89979
C	-1.720747	0.714656	-1.828968
N	-2.477149	1.19461	-2.59853
F	-2.672095	0.0	0.0
