15

C	-0.26251	-0.226632	-1.475061
C	0.0	0.0	0.0
Cl	-1.979481	-0.716572	-1.859945
H	1.093856	0.0	0.0
H	-0.405638	0.958739	0.317636
N	-0.18627	1.160592	-2.221241
O	-0.658941	2.150263	-1.672113
O	0.329844	1.155063	-3.335781
N	0.646891	-1.140072	-1.991928
H	0.689535	-1.107565	-3.000582
H	1.571246	-0.972787	-1.569236
N	-0.439656	-1.137583	0.795665
H	-1.169968	-0.863378	1.437668
H	0.3561	-1.461578	1.331637
H	2.86377	0.0	0.0
