15

C	-0.62346	0.067955	-1.372784
C	0.0	0.0	0.0
Cl	0.19592	1.415827	-2.313106
H	1.092244	0.0	0.0
H	-0.29927	0.926546	0.511661
N	-0.328386	-1.179004	-2.196591
O	-1.068214	-1.372439	-3.162781
O	0.62265	-1.869784	-1.874334
N	-2.030284	0.205272	-1.351308
H	-2.394203	0.234867	-2.295454
H	-2.270298	1.054228	-0.857854
N	-0.468052	-1.208815	0.676327
H	-1.084975	-0.987931	1.444041
H	0.356771	-1.670905	1.04405
H	2.927056	0.0	0.0
