15

C	-0.344129	0.045603	-1.472546
C	0.0	0.0	0.0
Cl	-2.139297	-0.087692	-1.739745
H	1.096276	0.0	0.0
H	-0.407103	0.86014	0.536265
N	0.037782	1.426842	-2.006821
O	0.79488	1.484536	-2.968812
O	-0.437797	2.386639	-1.404759
N	0.309523	-0.950352	-2.248302
H	1.311179	-0.777171	-2.119904
H	0.110518	-1.814856	-1.748581
N	-0.383837	-1.306666	0.529607
H	-1.231374	-1.247691	1.077246
H	0.373355	-1.625961	1.124403
H	2.858353	0.0	0.0
