15

C	-0.613335	-0.001596	-1.383576
C	0.0	0.0	0.0
Cl	0.234374	1.248469	-2.410474
H	1.091985	0.0	0.0
H	-0.370338	-0.888641	0.514816
N	-0.39248	-1.321796	-2.113185
O	0.179807	-2.223764	-1.514918
O	-0.872479	-1.400656	-3.24084
N	-2.010813	0.181636	-1.334004
H	-2.382365	0.413395	-2.246126
H	-2.167288	0.929355	-0.66344
N	-0.495705	1.216752	0.68397
H	0.247812	1.905398	0.594584
H	-0.55177	1.006974	1.673085
H	2.94052	0.0	0.0
