19

C	-0.465644	-0.0187	-1.440685
C	0.0	0.0	0.0
F	-1.855666	0.001682	-1.49729
H	1.093234	0.0	0.0
N	-0.015619	1.270791	-2.117573
O	-0.865686	2.09137	-2.447215
O	1.189295	1.362842	-2.310244
C	0.049139	-1.169353	-2.268084
H	-0.204749	-1.014792	-3.319888
H	-0.428034	-2.089914	-1.929108
H	1.1317	-1.23762	-2.140752
C	-0.4808	-1.243935	0.740737
H	-0.020167	-2.154024	0.348669
H	-0.178458	-1.156398	1.787405
H	-1.57121	-1.342614	0.695962
N	-0.439975	1.261905	0.58964
H	0.131976	1.44834	1.404752
H	-1.412567	1.201559	0.873372
H	2.940844	0.0	0.0
