19

C	-0.331453	0.030163	-1.48864
C	0.0	0.0	0.0
F	0.17708	-1.088618	-2.091227
H	1.09689	0.0	0.0
N	-1.844288	-0.082467	-1.671181
O	-2.503206	0.917015	-1.365021
O	-2.324906	-1.151382	-2.035449
C	0.182518	1.247896	-2.21059
H	-0.315089	2.149649	-1.860007
H	1.254072	1.302774	-1.996548
H	0.018885	1.133796	-3.285202
C	-0.527886	-1.253588	0.673623
H	-1.614492	-1.212723	0.815394
H	-0.277075	-2.149213	0.101957
H	-0.057649	-1.322409	1.655845
N	-0.391128	1.195233	0.736063
H	0.352493	1.880996	0.652761
H	-1.259708	1.588638	0.391667
H	2.881768	0.0	0.0
