19

C	-0.307398	0.047697	-1.497045
C	0.0	0.0	0.0
F	0.064567	-1.136991	-2.076819
H	1.096856	0.0	0.0
N	-1.816935	0.125283	-1.705726
O	-2.338804	1.230298	-1.52481
O	-2.435495	-0.90437	-1.96056
C	0.382487	1.175611	-2.216615
H	1.44745	1.075542	-1.981947
H	0.019517	2.140086	-1.870056
H	0.215724	1.087493	-3.293352
C	-0.565402	-1.238759	0.667182
H	-1.656625	-1.187839	0.761492
H	-0.138795	-1.295574	1.670036
H	-0.300078	-2.144627	0.119792
N	-0.373974	1.208539	0.727603
H	0.400206	1.861049	0.678537
H	-1.204115	1.64632	0.347783
H	2.882606	0.0	0.0
