19

C	-0.46499	-0.012254	-1.445537
C	0.0	0.0	0.0
F	-1.79189	-0.373373	-1.554178
H	1.097344	0.0	0.0
N	-0.387061	1.40316	-2.004096
O	0.682819	1.979808	-1.846622
O	-1.358576	1.846672	-2.607927
C	0.375527	-0.887351	-2.342443
H	0.05392	-0.77434	-3.381512
H	0.237928	-1.928828	-2.047012
H	1.428685	-0.623343	-2.212587
C	-0.485039	-1.248022	0.716663
H	-0.195087	-2.157858	0.187442
H	-1.572989	-1.238509	0.831886
H	-0.013446	-1.285429	1.702834
N	-0.521462	1.210296	0.663061
H	-0.726563	0.982367	1.628924
H	0.246162	1.875516	0.685073
H	2.956423	0.0	0.0
