19

C	-0.467795	-0.149485	-1.440844
C	0.0	0.0	0.0
F	-1.734834	-0.69533	-1.518428
H	1.099	0.0	0.0
N	-0.586917	1.229855	-2.066818
O	0.440535	1.894077	-2.079766
O	-1.667591	1.572984	-2.532505
C	0.486652	-0.952681	-2.288492
H	1.498045	-0.556758	-2.157323
H	0.173112	-0.93333	-3.335981
H	0.481142	-1.986548	-1.936669
C	-0.440022	-1.202724	0.820929
H	0.115826	-1.19304	1.762317
H	-1.514337	-1.17199	1.026379
H	-0.214818	-2.144912	0.318367
N	-0.514016	1.250427	0.577916
H	0.279661	1.875126	0.675671
H	-0.867312	1.069895	1.50951
H	2.941037	0.0	0.0
