19

C	-0.337835	0.026087	-1.488871
C	0.0	0.0	0.0
F	0.143639	-1.108312	-2.084743
H	1.096883	0.0	0.0
N	-1.852179	-0.055963	-1.663616
O	-2.3577	-1.124964	-1.991125
O	-2.487987	0.966993	-1.387815
C	0.201242	1.22619	-2.221613
H	-0.264577	2.142502	-1.866337
H	1.276432	1.250621	-2.020188
H	0.020124	1.116616	-3.294078
C	-0.533873	-1.24832	0.678971
H	-1.62087	-1.203271	0.817203
H	-0.284826	-2.14814	0.113546
H	-0.067385	-1.312634	1.6636
N	-0.387663	1.200016	0.731238
H	0.360634	1.877756	0.654143
H	-1.246963	1.601299	0.379411
H	2.881219	0.0	0.0
