15

C	0.0	0.0	0.0
C	-0.222659	-0.113684	-1.53179
F	1.400114	0.0	0.0
H	0.472282	0.649285	-1.920357
H	-0.338744	0.976473	0.349336
C	-0.54014	-1.113945	0.842723
H	-0.198812	-2.078453	0.468247
H	-0.209718	-0.981067	1.876889
H	-1.63146	-1.064454	0.798774
C	-1.488399	0.234203	-2.191927
N	-2.234144	0.54519	-3.0456
N	0.162917	-1.462901	-1.963723
H	0.054122	-1.532009	-2.968532
H	1.145032	-1.582678	-1.744224
Br	-3.895313	0.0	0.0
