15

C	0.0	0.0	0.0
C	-0.248996	0.02201	-1.527072
F	1.400197	0.0	0.0
H	0.498191	0.756629	-1.870272
H	-0.328642	0.945458	0.437921
C	-0.544418	-1.176781	0.753775
H	-0.219728	-1.12199	1.796514
H	-1.637023	-1.128863	0.709827
H	-0.203464	-2.11162	0.310934
C	-1.495979	0.544666	-2.101368
N	-2.237578	1.04846	-2.861097
N	0.015887	-1.311145	-2.079926
H	0.988963	-1.527871	-1.895026
H	-0.111937	-1.284781	-3.084517
Br	-3.986886	0.0	0.0
