15

C	0.0	0.0	0.0
C	-0.349753	0.103122	-1.503573
F	1.391284	0.0	0.0
H	0.236732	-0.698153	-1.972761
H	-0.33434	0.893362	0.535983
C	-0.545405	-1.248261	0.639351
H	-0.162	-1.344905	1.657272
H	-1.636591	-1.188488	0.67667
H	-0.244811	-2.132623	0.069288
C	0.211121	1.366918	-2.022447
N	0.654785	2.36461	-2.45203
N	-1.719929	-0.030301	-1.937766
H	-2.049956	-0.971121	-1.762857
H	-2.36009	0.551698	-1.401045
Br	-4.412676	0.0	0.0
