15

C	0.0	0.0	0.0
C	-0.356532	-0.229412	-1.487186
F	1.39249	0.0	0.0
H	0.161177	-1.159372	-1.758472
H	-0.329661	0.993784	0.31879
C	-0.55195	-1.066969	0.90566
H	-1.642852	-0.993846	0.924157
H	-0.172961	-0.929385	1.921057
H	-0.254149	-2.059276	0.554
C	0.283606	0.83666	-2.28313
N	0.796892	1.676294	-2.922508
N	-1.741091	-0.351957	-1.88029
H	-2.155291	-1.181641	-1.472911
H	-2.313643	0.399621	-1.505722
Br	-4.435121	0.0	0.0
