15

C	0.0	0.0	0.0
C	-0.400078	-0.264266	-1.47177
F	1.392046	0.0	0.0
H	-0.104726	-1.300943	-1.686475
H	-0.321789	1.007919	0.283973
C	-0.544061	-1.031935	0.952038
H	-0.201601	-0.825008	1.968308
H	-1.637276	-0.995458	0.940494
H	-0.204339	-2.030072	0.66282
C	0.433047	0.595002	-2.336897
N	1.069267	1.307711	-3.019233
N	-1.783109	-0.088463	-1.860389
H	-2.426625	-0.630105	-1.289046
H	-2.070161	0.870537	-1.700842
Br	-4.515116	0.0	0.0
