15

C	0.0	0.0	0.0
C	-0.549563	0.111303	-1.420509
F	1.384111	0.0	0.0
H	-1.590618	-0.240051	-1.363758
H	-0.335584	0.883583	0.551365
C	-0.461768	-1.266003	0.685056
H	-0.130264	-2.139447	0.116347
H	-1.549664	-1.260013	0.757774
H	-0.023727	-1.319158	1.685008
C	0.195758	-0.772008	-2.322207
N	0.764045	-1.489094	-3.058071
N	-0.469757	1.502189	-1.895792
H	-1.210015	1.993566	-1.398618
H	-0.743624	1.517441	-2.873527
Br	-3.831981	0.0	0.0
