15

C	0.0	0.0	0.0
C	-0.341498	-0.347843	-1.469077
F	1.399902	0.0	0.0
H	0.278281	-1.228444	-1.68498
H	-0.328528	1.013172	0.248234
C	-0.543453	-1.004078	0.97856
H	-1.634866	-0.939869	0.987457
H	-0.235222	-2.016187	0.699614
H	-0.168305	-0.789812	1.981936
C	0.184045	0.732148	-2.327984
N	0.609018	1.604558	-2.988074
N	-1.701633	-0.653999	-1.845842
H	-1.978877	-1.537939	-1.437744
H	-2.376333	0.010212	-1.467646
Br	-4.385535	0.0	0.0
