15
Coordinates from ORCA-job run
  C   0.47158317158621      0.55146348243781      0.72998653784636
  C   -0.83828427760378     -0.00046928925921      0.16255413520356
  Br  0.43489746466124      2.51861876064927      0.66181821125195
  H   -1.65514935319983      0.43623028662679      0.75589420372102
  H   0.48634565458417      0.31583536672528      1.79416026267139
  C   1.71722200409820      0.03416374342727      0.04039572197272
  H   1.75805242193522     -1.05190385922143      0.15731038318136
  H   1.70610066191805      0.27636534099008     -1.02150011632166
  H   2.61340508242929      0.45827996084957      0.49508571436047
  N   -0.84655513809087     -1.43360153283151      0.41148993749904
  H   -0.40808449805712     -1.89494915031654     -0.37796563283806
  H   -1.79682480343744     -1.77413159121701      0.48295543675839
  N   -0.93665540956142      0.28712972943856     -1.26409754482191
  H   -1.84594732582108     -0.00838793608820     -1.60055305123715
  H   -0.86010565544083      1.28535668778927     -1.42653419924751
