15
Coordinates from ORCA-job run
  C   0.46816438533414      0.49231381662286      0.77742186285754
  C   -0.83603063053496      0.08845538897161      0.07876988362379
  Br  0.46078388538218      2.42002485663732      1.09447742043135
  H   -1.66206301080145      0.61287613527682      0.57759104861755
  H   0.48194742387427      0.05615119408380      1.78015949011843
  C   1.71113330150375      0.09841044091670      0.00558075195071
  H   1.75552871124073      0.64294029724475     -0.93814116276749
  H   1.68109003517197     -0.97547478711691     -0.19388470291257
  H   2.61125890171250      0.32802634911776      0.57733665267760
  N   -0.93570509277037     -1.37341245305018      0.18433903478024
  H   -1.00855741872284     -1.65524848502639      1.15671369273782
  H   -1.78309066192087     -1.67824085448878     -0.28203513594493
  N   -0.83005209238882      0.51251070854550     -1.30172094389406
  H   -1.77175829670734      0.60792317944189     -1.65683880501187
  H   -0.34164944037287     -0.17625578717675     -1.86176908726411
