15
Coordinates from ORCA-job run
  C   0.54320694205123      0.23794735635058      0.70376365196803
  C   -0.53636572573061     -0.41619184687312     -0.15720039566219
  Br  -0.00820144161636      2.03342337140661      1.26016140451722
  H   -0.10833278393671     -1.39459071317846     -0.43604526629752
  H   0.63674731306392     -0.32034368188897      1.63994047698681
  C   1.88075883827271      0.31730113933365     -0.00494592757200
  H   1.78483818328879      0.90804436098448     -0.91444661858340
  H   2.20748846066200     -0.69091150903041     -0.28017034910102
  H   2.63820938132300      0.76223054606007      0.64154579843359
  N   -0.71769148506793      0.31619754502572     -1.39071316347667
  H   -1.22263108262135     -0.24890072113852     -2.06223665660992
  H   -1.27838846640141      1.13723239850085     -1.18853911492142
  N   -1.78057082513618     -0.53999476304182      0.59700638023477
  H   -1.61595248056199     -0.96685411391424      1.50242119258715
  H   -2.42411482758910     -1.13558936859642      0.08845858749657
