15
Coordinates from ORCA-job run
  C   0.44079293344001      0.56140842220041      0.46688043574125
  C   -0.63360061686988     -0.00705647569831     -0.46940856448476
  Br  0.72802358706272      2.46187927109457      0.03618038375296
  H   -0.27760888115315      0.13719910728595     -1.50317244590733
  H   0.03901091555842      0.56381029626958      1.48348347133563
  C   1.77545178849365     -0.15411138662643      0.38508188433745
  H   2.14694388465783     -0.16538509960523     -0.64270151496791
  H   1.67109185276231     -1.18340128053141      0.73636751203774
  H   2.52058363813786      0.33809108122335      1.01061948888806
  N   -1.90592105169330      0.62776661214483     -0.18173647523669
  H   -2.60353903062956      0.21961526457930     -0.79205967545862
  H   -1.85835070116641      1.62234411947559     -0.36193935123088
  N   -0.86336821221049     -1.42939296213881     -0.29567740062171
  H   -1.13190405463117     -1.61705990191916      0.66367852316004
  H   -0.04860605175885     -1.97670706775426     -0.53659627134522
