15
Coordinates from ORCA-job run
  C   0.56337452109520     -0.00599554934160      0.56572766587557
  C   -0.86238814548199      0.01870927401667     -0.02640705454868
  Br  0.52276227965033      0.64540248675337      2.42243839006979
  H   -1.19905656320936      1.06268725842884     -0.01352164237500
  H   0.88812030559555     -1.04888576628648      0.64815743426776
  C   1.56946311684203      0.82842973528528     -0.20654961776528
  H   1.69984001763414      0.42715601525890     -1.21390657090463
  H   1.22757906200256      1.86393395819984     -0.28083368769682
  H   2.54242670149539      0.82673463533161      0.28572285310257
  N   -1.83670328362951     -0.78213082569763      0.69415311974718
  H   -1.76302870190859     -1.75027675520368      0.40747891539161
  H   -1.68559795253167     -0.72165323362027      1.69280565647056
  N   -0.86195803210999     -0.42692803151423     -1.41089368437197
  H   -0.53834230449545      0.30104835850108     -2.03170747576845
  H   -0.26549102094863     -1.23823156011171     -1.53266430149417
