15
Coordinates from ORCA-job run
  C   0.54228036434005      0.17256347332999      0.68733074712065
  C   -0.57080896241520     -0.57313115446744     -0.06006778300223
  Br  -0.08958513683157      1.95021817529898      1.24901235613557
  H   -0.11911791013411     -1.53612403972625     -0.33572057660917
  H   0.73276850831024     -0.35587444310541      1.62297682628511
  C   1.81185778128804      0.33857345216542     -0.12329604038930
  H   1.63589080655631      0.94758253855301     -1.01157037086896
  H   2.59410145648242      0.81855880389594      0.46573556867702
  H   2.17294725758455     -0.64641657376275     -0.43705083051797
  N   -1.02987645229383      0.03116892672237     -1.30369549379143
  H   -1.29670127177688      0.99658849653063     -1.14294517596527
  H   -0.30580939246838      0.01488372412897     -2.01209214925554
  N   -1.65377834254384     -0.85822485474766      0.85747608065523
  H   -2.39133888242497     -1.31374938003282      0.33207982796430
  H   -2.03282982367281      0.01338285521701      1.21182701356198
