15
Coordinates from ORCA-job run
  C   0.44809244432091      0.53220610052733      0.72563513809584
  C   -0.91421601959298      0.02426460265760      0.21976012574702
  Br  0.47097310647598      2.49312005435818      0.63857692301146
  H   -1.67704736523954      0.48867900118352      0.85185460795369
  H   0.51460124481667      0.30036410627115      1.78931486019383
  C   1.65144100018928     -0.01792256351616     -0.01517520204852
  H   1.61429891839833      0.22809647659247     -1.07834087077519
  H   1.69551398497230     -1.10370417784124      0.10635400971109
  H   2.57540659600695      0.39782790088072      0.38783780239964
  N   -0.95004308672184     -1.40620131500404      0.48216498609532
  H   -1.90192236184947     -1.72310024614874      0.33535121790911
  H   -0.38155358696976     -1.89086405222030     -0.20460093439245
  N   -1.26656369935870      0.34420938493096     -1.15691140161046
  H   -1.31528063770990      1.34837168421892     -1.28642893439659
  H   -0.56470053773825     -0.01534695689040     -1.79439232789379
