15
Coordinates from ORCA-job run
  C   0.62025891657910     -0.00442247571697      0.64142120064944
  C   -0.62598268257526     -0.50640343420116     -0.09936007694745
  Br  0.21735783607404      1.67413898726647      1.58785194757836
  H   -0.29630772867801     -1.42908496393589     -0.59676964992653
  H   0.84917384346520     -0.71604957394420      1.43653380778977
  C   1.81511456292164      0.21894373716447     -0.26328808582767
  H   2.05027924273457     -0.71231708584380     -0.78913820393284
  H   2.69234963236284      0.51907348033171      0.31083257900609
  H   1.61136489435761      0.99703037785273     -1.00081560292513
  N   -1.14404258694973      0.35912221715081     -1.15042841882633
  H   -1.29863172596129      1.29350325583784     -0.78701217871289
  H   -0.49885494651284      0.42293222676520     -1.92886206619143
  N   -1.63717338765553     -0.88149433791295      0.86640137085952
  H   -2.46341113260601     -1.16582636673218      0.35257381771595
  H   -1.89249473755632     -0.07014604408213      1.41905955969117
