15
Coordinates from ORCA-job run
  C   0.35469719449759      0.48400701308377      0.71625226372520
  C   -1.00002894218513      0.04639709673405      0.10524741872602
  Br  0.41421870236404      2.44820856814698      0.80749705066860
  H   -1.78430665940438      0.54010484668684      0.68863064500124
  H   0.38027970539162      0.17369302241356      1.76482057085934
  C   1.58311568232329     -0.01430487061963     -0.01965204594457
  H   1.58124630534078     -1.10735194713247     -0.06015569155709
  H   1.61707429654842      0.37830737620163     -1.03695690510276
  H   2.49481197777548      0.29836924012147      0.49019846875293
  N   -1.20954950971416     -1.38729677502571      0.23365314333469
  H   -0.53697005099258     -1.90608114583210     -0.31845884633602
  H   -1.11506095731671     -1.67675608630943      1.19936935232890
  N   -1.19741511515442      0.41309315855090     -1.28191271737344
  H   -1.02527740939172      1.40313882299771     -1.40644432779503
  H   -0.55783522008209     -0.09552832001756     -1.88108837928801
