15

C	0.0	0.0	0.0
C	-0.362553	-0.26254	-1.477338
Br	1.971353	0.0	0.0
H	0.502483	-0.020149	-2.106515
H	-0.641081	-1.305135	-1.607012
C	-0.231973	1.439761	0.531826
H	-1.29046	1.673961	0.565177
H	0.279956	2.153492	-0.111906
H	0.200138	1.491644	1.534922
C	-0.596369	-0.999191	0.875313
N	-0.619433	-1.875071	1.677535
N	-1.455662	0.530207	-2.106523
O	-2.262195	-0.08078	-2.809723
O	-1.365523	1.758869	-2.057419
H	-2.07399	0.0	0.0
