15

C	0.0	0.0	0.0
C	-0.641597	0.021324	-1.366379
Br	1.963734	0.0	0.0
H	-0.430135	-0.884346	-1.93247
H	-1.78989	0.068972	-1.041651
C	-0.464211	1.11836	0.931281
H	-1.560346	1.074053	0.907694
H	-0.108532	2.077668	0.566361
H	-0.092615	0.934837	1.941427
C	-0.352627	-1.299485	0.589451
N	-0.545822	-2.352836	1.072898
N	-0.250125	1.140443	-2.208163
O	-0.329952	2.287666	-1.750247
O	0.08565	0.887817	-3.373286
H	-2.964602	0.0	0.0
