15

C	0.0	0.0	0.0
C	-0.556769	-0.001281	-1.404816
Br	1.962525	0.0	0.0
H	-1.676788	-0.123036	-1.203135
H	-0.336781	0.939425	-1.906343
C	-0.453404	1.290792	0.676914
H	-1.552082	1.269076	0.646427
H	-0.051243	2.145365	0.125805
H	-0.093818	1.326848	1.706557
C	-0.400353	-1.166609	0.795012
N	-0.546236	-2.076603	1.526014
N	-0.026467	-1.066836	-2.260525
O	0.027133	-2.208397	-1.797997
O	0.305485	-0.761293	-3.413491
H	-2.945959	0.0	0.0
