15

C	0.0	0.0	0.0
C	-0.656598	0.08871	-1.354143
Br	1.963907	0.0	0.0
H	-0.42492	-0.776408	-1.975351
H	-1.810361	0.102082	-1.005895
C	-0.465566	1.065864	0.986285
H	-0.090408	0.840755	1.986271
H	-0.127644	2.048672	0.671274
H	-1.563081	1.014708	0.968372
C	-0.343244	-1.332288	0.523492
N	-0.531074	-2.415589	0.9409
N	-0.29535	1.26845	-2.120778
O	0.138083	1.094655	-3.271194
O	-0.49307	2.386136	-1.623874
H	-2.95596	0.0	0.0
