15

C	-0.549509	-0.003088	-1.418601
C	0.0	0.0	0.0
Br	0.104005	1.589967	-2.378218
H	1.088374	0.0	0.0
H	-0.400589	-0.869289	0.529933
C	0.032282	-1.170311	-2.086553
N	0.472896	-2.143099	-2.578977
C	-2.070362	-0.046337	-1.547761
H	-2.510066	0.846197	-1.106819
H	-2.364363	-0.122418	-2.59568
H	-2.440732	-0.920044	-1.003371
N	-0.451331	1.207008	0.745335
O	0.398843	2.052582	1.014056
O	-1.629751	1.246816	1.122581
Br	2.758792	0.0	0.0
