17

C	0.0	0.0	0.0
C	-0.665842	-0.072991	-1.381386
Br	1.962008	0.0	0.0
H	-1.756695	-0.220374	-1.069503
C	-0.355727	1.306725	0.569053
N	-0.543698	2.365342	1.045391
C	-0.46856	-1.106108	0.938582
H	-1.568086	-1.05375	0.923647
H	-0.087669	-0.926038	1.946157
H	-0.124409	-2.074968	0.58113
N	-0.166677	-1.27728	-2.105166
O	-0.585414	-2.375697	-1.728234
O	0.633928	-1.113738	-3.026809
N	-0.575772	1.073209	-2.216546
H	0.329894	1.524286	-2.173356
H	-1.305667	1.716921	-1.934265
H	-3.056007	0.0	0.0
