17

C	0.0	0.0	0.0
C	-0.6653	0.165428	-1.34757
Br	1.95496	0.0	0.0
H	-1.799019	0.105314	-0.991105
C	-0.352732	1.189476	0.792836
N	-0.540261	2.100844	1.51115
C	-0.461914	-1.23861	0.760874
H	-1.560518	-1.208056	0.729599
H	-0.107358	-1.188139	1.790976
H	-0.089863	-2.144346	0.286472
N	-0.380835	-1.007104	-2.229627
O	0.263221	-0.813276	-3.271117
O	-0.851068	-2.102055	-1.906619
N	-0.34405	1.409081	-1.955893
H	0.55474	1.350225	-2.418904
H	-1.046017	1.638499	-2.64865
H	-2.98456	0.0	0.0
