17

C	0.0	0.0	0.0
C	-0.660867	0.028563	-1.354295
Br	1.968218	0.0	0.0
H	-1.826328	-0.00278	-0.958667
C	-0.344123	1.268237	0.663036
N	-0.54038	2.250712	1.27868
C	-0.449758	-1.149334	0.893585
H	-1.548322	-1.133983	0.865599
H	-0.091843	-0.981659	1.912012
H	-0.073463	-2.100384	0.520799
N	-0.379711	-1.205368	-2.130227
O	-0.776589	-2.284771	-1.675735
O	0.177357	-1.093022	-3.233429
N	-0.362443	1.222052	-2.069343
H	0.538447	1.140429	-2.526102
H	-1.064523	1.37233	-2.784734
H	-2.938711	0.0	0.0
