20

C	0.0	0.0	0.0
C	-0.499463	-0.091853	-1.450449
Br	1.987437	0.0	0.0
H	-1.5856	0.042663	-1.34401
C	-0.453	1.30814	0.62788
H	-0.062878	1.401974	1.644682
H	-0.128362	2.153163	0.024231
H	-1.547693	1.279326	0.65891
C	-0.466872	-1.177824	0.837862
H	-0.048993	-2.124364	0.492437
H	-1.560664	-1.201032	0.771796
H	-0.178265	-1.032195	1.881419
C	-0.256684	-1.446179	-2.115261
H	-0.804446	-2.248031	-1.616932
H	0.809593	-1.694518	-2.128592
H	-0.613146	-1.400439	-3.149161
N	0.001911	1.038917	-2.23517
H	0.942676	0.830274	-2.557131
H	-0.587167	1.143412	-3.053937
Cl	-3.900261	0.0	0.0
