20

C	0.0	0.0	0.0
C	-0.363395	0.257012	-1.480754
Br	1.994883	0.0	0.0
H	0.090822	1.231156	-1.73052
C	-0.455135	1.13536	0.898249
H	-1.547083	1.115147	0.966049
H	-0.136772	2.104514	0.505723
H	-0.04571	1.01599	1.903981
C	-0.490311	-1.342582	0.501196
H	-0.115634	-1.538869	1.508951
H	-0.174788	-2.138325	-0.172138
H	-1.585317	-1.312981	0.536031
C	-1.862831	0.348261	-1.716869
H	-2.37675	1.057479	-1.073622
H	-2.035353	0.655797	-2.754815
H	-2.359867	-0.607328	-1.558798
N	0.1605	-0.820748	-2.32718
H	1.150635	-0.685697	-2.488619
H	-0.311854	-0.781764	-3.222374
Cl	-4.743713	0.0	0.0
