20

C	0.0	0.0	0.0
C	-0.34512	0.257786	-1.49843
Br	1.989863	0.0	0.0
H	0.25418	1.129421	-1.789724
C	-0.467872	1.13836	0.887761
H	-0.159823	2.105909	0.483265
H	-0.060164	1.036631	1.896368
H	-1.56045	1.105297	0.946964
C	-0.498724	-1.333625	0.519405
H	-1.594529	-1.32731	0.493492
H	-0.178593	-1.486539	1.552905
H	-0.12705	-2.165166	-0.080529
C	-1.809946	0.594047	-1.728022
H	-1.946019	0.745071	-2.802273
H	-2.119776	1.500791	-1.211279
H	-2.499397	-0.182265	-1.394484
N	0.015283	-0.827593	-2.408341
H	-0.659742	-1.577043	-2.309539
H	0.932618	-1.19185	-2.178975
Cl	-4.65821	0.0	0.0
