12

C	-0.542502	-0.047202	-1.414775
C	0.0	0.0	0.0
Br	0.093317	-1.627155	-2.383623
H	1.100874	0.0	0.0
H	-1.63172	-0.112271	-1.436358
H	-0.184476	0.807871	-1.985675
N	-0.528772	-1.142376	0.789879
H	-0.015024	-1.945019	0.432745
H	-0.159623	-1.014283	1.728908
C	-0.490158	1.24392	0.583799
N	-0.873468	2.25613	1.044599
F	2.585856	0.0	0.0
