12

C	-0.501102	-0.132208	-1.427705
C	0.0	0.0	0.0
Br	-0.320602	1.508884	-2.471691
H	1.093697	0.0	0.0
H	0.115204	-0.881946	-1.918969
H	-1.553948	-0.412638	-1.477266
N	-0.329822	-1.277177	0.666482
H	0.499268	-1.53596	1.19297
H	-1.107947	-1.175929	1.308737
C	-0.564809	1.140968	0.705739
N	-1.046753	2.015887	1.328663
F	2.573002	0.0	0.0
