12

C	-0.542174	-0.008582	-1.41612
C	0.0	0.0	0.0
Br	0.088853	-1.561996	-2.428192
H	1.100849	0.0	0.0
H	-0.184061	0.862645	-1.962725
H	-1.631869	-0.07103	-1.438581
N	-0.529679	-1.16204	0.758509
H	-0.0338	-1.959156	0.36338
H	-0.140391	-1.070821	1.692839
C	-0.490416	1.228276	0.616674
N	-0.870061	2.228536	1.105995
F	2.588533	0.0	0.0
