12

C	-0.54159	-0.032764	-1.415466
C	0.0	0.0	0.0
Br	0.093424	-1.603461	-2.399812
H	1.100885	0.0	0.0
H	-0.183046	0.828044	-1.977357
H	-1.630718	-0.097579	-1.438216
N	-0.52884	-1.151586	0.776463
H	-0.011994	-1.949536	0.412966
H	-0.162982	-1.032153	1.717875
C	-0.491067	1.237049	0.597081
N	-0.874971	2.243704	1.069153
F	2.585876	0.0	0.0
