12

C	-0.542495	-0.028687	-1.41986
C	0.0	0.0	0.0
Br	0.113087	-1.566142	-2.420883
H	1.094042	0.0	0.0
H	-0.207991	0.852846	-1.966998
H	-1.632153	-0.102949	-1.450567
N	-0.414131	-1.171892	0.775755
H	-1.176691	-0.96244	1.407978
H	0.393538	-1.455822	1.315861
C	-0.46084	1.248776	0.605826
N	-0.87056	2.23937	1.0929
F	2.567709	0.0	0.0
