12

C	-0.284086	-0.061585	-1.469456
C	0.0	0.0	0.0
Br	-2.209063	-0.192407	-1.935593
H	1.097082	0.0	0.0
H	0.176123	-0.96298	-1.866531
H	0.087863	0.822304	-1.985333
N	-0.414848	-1.220733	0.684474
H	0.23379	-1.375268	1.446958
H	-1.351747	-1.13569	1.061376
C	-0.504792	1.223941	0.615348
N	-0.896124	2.20274	1.138304
F	2.550624	0.0	0.0
