12

C	-0.411287	-0.10528	-1.462063
C	0.0	0.0	0.0
Br	-0.101252	1.525272	-2.49212
H	1.094764	0.0	0.0
H	0.206984	-0.875842	-1.922047
H	-1.474593	-0.332917	-1.593392
N	-0.321583	-1.25107	0.701925
H	-1.109025	-1.737302	0.283609
H	0.508597	-1.829914	0.639046
C	-0.621152	1.131815	0.675676
N	-1.123515	2.044044	1.222918
F	2.569059	0.0	0.0
