18

C	0.0	0.0	0.0
C	-0.56483	0.411981	-1.363741
Cl	1.806483	0.0	0.0
H	-1.642107	0.493463	-1.163487
C	-0.345857	1.035751	0.986673
N	-0.5837	1.834524	1.814214
C	-0.499315	-1.354903	0.475388
H	-1.593881	-1.333343	0.447222
H	-0.114418	-2.145689	-0.170813
H	-0.160204	-1.542107	1.495363
C	-0.347297	-0.643166	-2.442505
H	0.717181	-0.867912	-2.570545
H	-0.733162	-0.256552	-3.388998
H	-0.88593	-1.566466	-2.222507
N	-0.06223	1.7377	-1.7073
H	0.815977	1.660119	-2.208005
H	-0.733631	2.199184	-2.308229
Cl	-3.810627	0.0	0.0
