18

C	0.0	0.0	0.0
C	-0.537324	-0.189513	-1.444571
Cl	1.802828	0.0	0.0
H	-1.627232	-0.155888	-1.312983
C	-0.370178	1.346002	0.453213
N	-0.613747	2.438361	0.811042
C	-0.515015	-1.043554	0.975775
H	-0.207306	-0.796903	1.99385
H	-1.608488	-1.042204	0.908896
H	-0.115756	-2.025258	0.71851
C	-0.149431	-1.532837	-2.044087
H	0.935889	-1.632698	-2.140339
H	-0.532691	-2.368166	-1.456408
H	-0.586953	-1.585236	-3.041555
N	-0.168123	0.882496	-2.359153
H	0.824761	1.077358	-2.286373
H	-0.670955	1.724817	-2.104384
Cl	-3.778615	0.0	0.0
