18

C	0.0	0.0	0.0
C	-0.588223	-0.388396	-1.368433
Cl	1.793783	0.0	0.0
H	-1.657604	-0.5187	-1.15006
C	-0.367815	1.389571	0.308018
N	-0.597951	2.516204	0.548507
C	-0.505192	-0.909919	1.113264
H	-1.597987	-0.860432	1.115917
H	-0.174631	-1.934869	0.93889
H	-0.113627	-0.576678	2.076098
C	-0.008627	-1.67997	-1.920389
H	-0.036931	-2.49056	-1.190989
H	1.022578	-1.525443	-2.245193
H	-0.604508	-1.99515	-2.782529
N	-0.352668	0.692215	-2.330199
H	-0.601548	0.346353	-3.251146
H	-1.013446	1.437233	-2.126694
Cl	-3.812526	0.0	0.0
