19

C	-0.319307	0.00899	-1.503831
C	0.0	0.0	0.0
Cl	-2.124509	0.025768	-1.76441
H	1.098995	0.0	0.0
C	0.264136	1.252591	-2.15543
H	0.129304	1.20235	-3.238329
H	1.333232	1.290996	-1.922597
H	-0.218339	2.16175	-1.794954
C	0.237264	-1.244852	-2.157927
H	1.315326	-1.275605	-1.968587
H	-0.222595	-2.143722	-1.743286
H	0.054163	-1.222814	-3.235139
C	-0.481165	-1.22403	0.63422
N	-0.864259	-2.200656	1.163653
C	-0.471541	1.223522	0.785938
H	-1.550765	1.367275	0.695624
H	0.047787	2.11544	0.434044
H	-0.218446	1.093753	1.839956
Br	3.503244	0.0	0.0
