19

C	-0.455109	-0.024095	-1.477698
C	0.0	0.0	0.0
Cl	0.095951	1.516403	-2.251245
H	1.096514	0.0	0.0
C	0.249493	-1.161703	-2.201877
H	1.328144	-1.081088	-2.048338
H	0.026893	-1.127054	-3.271361
H	-0.093911	-2.120936	-1.80267
C	-1.965675	-0.087979	-1.6402
H	-2.45057	0.779459	-1.188848
H	-2.22451	-0.106484	-2.701621
H	-2.352465	-0.995703	-1.168295
C	-0.450949	-1.242423	0.628729
N	-0.868395	-2.217801	1.135227
C	-0.479577	1.188425	0.836078
H	-1.567855	1.2133	0.938923
H	-0.038468	1.116333	1.832208
H	-0.135115	2.117865	0.383879
Br	3.531095	0.0	0.0
