19

C	-0.316798	0.017923	-1.504594
C	0.0	0.0	0.0
Cl	-2.121473	0.036298	-1.768481
H	1.098973	0.0	0.0
C	0.267129	1.26591	-2.147849
H	0.134041	1.222117	-3.231327
H	-0.216449	2.172781	-1.782699
H	1.336005	1.302978	-1.913238
C	0.242097	-1.23194	-2.164719
H	-0.217465	-2.133499	-1.755959
H	1.319692	-1.262986	-1.973913
H	0.060909	-1.20391	-3.241923
C	-0.481904	-1.22797	0.625755
N	-0.866527	-2.207733	1.148199
C	-0.472752	1.218806	0.79254
H	-1.551861	1.363236	0.700973
H	0.047437	2.112694	0.447111
H	-0.22189	1.082557	1.846414
Br	3.504521	0.0	0.0
