19

C	-0.453856	0.060322	-1.473631
C	0.0	0.0	0.0
Cl	0.017357	-1.504883	-2.248822
H	1.09629	0.0	0.0
C	-1.959592	0.196432	-1.631042
H	-2.230441	0.14591	-2.688217
H	-2.480175	-0.605031	-1.101767
H	-2.294661	1.159537	-1.236591
C	0.306963	1.157444	-2.204988
H	1.379633	1.040231	-2.031642
H	-0.007345	2.142135	-1.847332
H	0.101269	1.102252	-3.276766
C	-0.521294	-1.190001	0.667291
N	-1.012853	-2.104951	1.217078
C	-0.413088	1.235218	0.816405
H	-0.019863	2.143267	0.357804
H	0.03441	1.156232	1.808823
H	-1.496499	1.32117	0.930965
Br	3.532813	0.0	0.0
