18

C	-0.525217	0.004148	-1.41696
C	0.0	0.0	0.0
F	-1.917839	0.269421	-1.390932
H	1.087814	0.0	0.0
N	-0.013653	1.229315	-2.206874
O	-0.464607	1.324088	-3.345976
O	0.807341	1.984185	-1.706781
N	-0.205131	-1.080678	-2.220525
H	-0.289025	-1.938894	-1.68911
H	-0.736469	-1.055156	-3.081642
N	-0.314094	-1.207823	0.720593
O	-0.4009	-1.123087	1.962472
O	-0.264027	-2.320927	0.141322
C	-0.44191	1.208391	0.812575
H	-0.53198	2.090995	0.184449
H	-1.3936	1.020578	1.310983
H	0.320453	1.405983	1.569651
H	2.404329	0.0	0.0
