18

C	-0.335581	-0.034623	-1.494329
C	0.0	0.0	0.0
F	-1.593585	-0.522589	-1.713182
H	1.089995	0.0	0.0
N	-0.370979	1.426942	-1.962825
O	0.715568	1.943374	-2.200285
O	-1.465177	1.980351	-2.023907
N	0.587665	-0.709954	-2.335013
H	1.51794	-0.422208	-2.011521
H	0.507502	-1.687303	-2.071041
N	-0.384411	-1.279949	0.592125
O	-0.859661	-1.292994	1.735687
O	-0.126919	-2.311855	-0.045781
C	-0.517812	1.173062	0.796319
H	-0.070701	2.089426	0.406064
H	-1.606686	1.255929	0.770194
H	-0.193224	1.063965	1.830587
H	2.586249	0.0	0.0
