18

C	-0.294132	-0.070408	-1.498741
C	0.0	0.0	0.0
F	-0.518489	-1.353702	-1.916195
H	1.097169	0.0	0.0
N	-1.656771	0.620566	-1.765029
O	-2.647755	0.00395	-1.395225
O	-1.661932	1.747979	-2.257272
N	0.705698	0.544377	-2.263243
H	0.446637	1.481011	-2.533159
H	1.593636	0.516904	-1.743819
N	-0.487898	-1.155858	0.766993
O	-1.315866	-0.963381	1.668635
O	0.009402	-2.252504	0.506274
C	-0.429572	1.310708	0.619306
H	-0.000716	2.13052	0.039514
H	-1.513883	1.420331	0.673392
H	-0.021718	1.370276	1.629685
H	2.65378	0.0	0.0
