18

C	-0.535158	-0.190924	-1.408177
C	0.0	0.0	0.0
F	-1.88178	-0.550565	-1.344033
H	1.103416	0.0	0.0
N	-0.57323	1.157786	-2.167163
O	-1.54645	1.372721	-2.88639
O	0.416002	1.868988	-2.069653
N	0.204685	-1.050876	-2.227334
H	-0.397656	-1.489709	-2.911003
H	0.687812	-1.733998	-1.658695
N	-0.307874	-1.199876	0.765668
O	-0.7065	-1.08785	1.93733
O	0.004139	-2.296169	0.262539
C	-0.502958	1.238088	0.706975
H	-1.593762	1.264378	0.773899
H	-0.093299	1.24677	1.714887
H	-0.135462	2.122628	0.189081
H	2.505413	0.0	0.0
