16

C	-0.357999	-0.016031	-1.479611
C	0.0	0.0	0.0
Cl	-2.14756	-0.175717	-1.778021
H	1.098661	0.0	0.0
H	0.090136	-0.894425	-1.950034
C	0.089943	1.177476	-2.193394
N	0.417563	2.146856	-2.769227
C	-0.448348	-1.28331	0.687381
H	-0.019952	-1.315195	1.691973
H	-1.537506	-1.347781	0.769277
H	-0.083642	-2.163827	0.150579
C	-0.498221	1.24518	0.716721
H	-0.131032	1.235229	1.745754
H	-1.591974	1.289965	0.738852
H	-0.11724	2.153531	0.244059
Br	3.537061	0.0	0.0
