16

C	-0.513264	-0.014644	-1.438076
C	0.0	0.0	0.0
Cl	0.110235	1.357685	-2.412725
H	1.096175	0.0	0.0
H	-1.601623	0.107004	-1.430645
C	-0.222688	-1.260137	-2.150509
N	-0.049771	-2.265211	-2.733292
C	-0.476238	-1.26262	0.715399
H	-1.571131	-1.339654	0.722156
H	-0.06316	-2.163149	0.256915
H	-0.130162	-1.236227	1.750917
C	-0.482258	1.249893	0.725828
H	-1.578114	1.286301	0.779907
H	-0.08819	1.24619	1.744427
H	-0.122942	2.158206	0.240712
Br	3.605797	0.0	0.0
