13

C	0.0	0.0	0.0
C	-0.498536	0.131955	-1.423166
Br	1.948215	0.0	0.0
H	-0.167877	-0.702106	-2.036902
H	-0.266033	0.898699	0.560381
H	-1.595085	0.190902	-1.377932
N	-0.501536	-1.239982	0.526914
H	-0.272787	-1.295313	1.513256
H	-1.523828	-1.17378	0.460024
N	-0.021231	1.375476	-2.075786
O	-0.06702	2.415564	-1.422411
O	0.358402	1.294153	-3.244198
Br	-3.709301	0.0	0.0
