13

C	0.0	0.0	0.0
C	-0.46655	0.017654	-1.441579
Br	2.030628	0.0	0.0
H	-0.160501	0.927359	-1.953648
H	-0.242693	0.961898	0.447028
H	-1.564849	-0.078493	-1.425354
N	-0.524426	-1.037103	0.745151
H	-0.36658	-1.955088	0.365453
H	-0.408703	-0.967559	1.74161
N	0.075994	-1.101709	-2.260299
O	0.15839	-2.215836	-1.746832
O	0.377476	-0.850292	-3.424898
Br	-3.839205	0.0	0.0
