13

C	0.0	0.0	0.0
C	-0.517948	-0.289257	-1.388401
Br	2.010721	0.0	0.0
H	-1.612231	-0.165509	-1.319613
H	-0.27425	1.009917	0.292452
H	-0.253176	-1.286237	-1.737273
N	-0.517281	-0.940459	0.893172
H	-0.142294	-1.870094	0.79631
H	-0.557785	-0.636266	1.850795
N	0.001296	0.668185	-2.394207
O	0.353934	0.217671	-3.484394
O	0.014081	1.858003	-2.08625
Br	-3.839685	0.0	0.0
