16

C	0.0	0.0	0.0
C	-0.253048	-0.219924	-1.536785
Br	1.935037	0.0	0.0
H	0.381486	0.517328	-2.025942
N	-0.762392	1.242805	0.356017
O	-0.779638	1.554392	1.563104
O	-0.806279	2.109286	-0.581945
C	-0.404117	-1.029238	0.944249
N	-0.604067	-1.824899	1.791605
N	-1.624963	-0.190771	-2.004804
H	-1.908599	0.783794	-1.899556
H	-1.611174	-0.402834	-3.007095
N	0.266062	-1.554678	-2.010244
O	0.740681	-1.554496	-3.148344
O	0.108255	-2.544969	-1.310571
H	-1.860884	0.0	0.0
