16

C	0.0	0.0	0.0
C	-0.361276	-0.021391	-1.55217
Br	1.939507	0.0	0.0
H	0.04781	-0.955227	-1.939368
N	-0.363972	1.15384	0.745878
O	-0.169801	2.265871	0.244948
O	-0.59752	1.042765	1.92951
C	-0.439524	-1.225947	0.635358
N	-0.74472	-2.290693	1.08653
N	0.001437	1.100827	-2.347532
H	0.916828	0.95965	-2.755579
H	0.001931	1.909472	-1.724873
N	-1.920176	-0.210653	-1.945134
O	-2.799326	0.569448	-1.451756
O	-2.15143	-1.040393	-2.832011
H	-1.605653	0.0	0.0
