16

C	0.0	0.0	0.0
C	-0.22528	0.027995	-1.558431
Br	1.933339	0.0	0.0
H	0.413739	0.823858	-1.932174
N	-0.408779	1.303644	0.614318
O	-0.525021	1.333824	1.839635
O	-0.361633	2.291297	-0.124188
C	-0.509265	-1.106682	0.772783
N	-0.606044	-2.060081	1.466408
N	-1.522076	0.191055	-2.121341
H	-1.448435	0.137641	-3.134152
H	-2.17254	-0.4863	-1.747461
N	0.403603	-1.242438	-2.15198
O	0.035729	-2.32999	-1.715496
O	1.127789	-1.081609	-3.13614
H	-1.924091	0.0	0.0
