16

C	0.0	0.0	0.0
C	-0.245594	0.090654	-1.585756
Br	1.934515	0.0	0.0
H	0.501094	0.792985	-1.939244
N	-0.503291	1.242638	0.632816
O	-0.57353	1.272067	1.867251
O	-0.490034	2.256208	-0.097529
C	-0.446271	-1.15952	0.737185
N	-0.579882	-2.116203	1.415359
N	-1.497544	0.440582	-2.179265
H	-2.222255	-0.092572	-1.706991
H	-1.653464	1.411331	-1.931282
N	0.121809	-1.236897	-2.188047
O	1.072109	-1.278394	-2.9655
O	-0.615236	-2.181822	-1.910569
H	-1.95214	0.0	0.0
