16

C	0.0	0.0	0.0
C	-0.400483	0.05852	-1.561325
Br	1.920315	0.0	0.0
H	-1.449687	0.330713	-1.642907
N	-0.353319	1.444246	0.885201
O	0.561648	2.162376	1.266672
O	-1.546443	1.687704	1.066768
C	-0.450109	-1.209529	0.601589
N	-0.807508	-2.203813	1.14531
N	-0.210926	-1.145168	-2.301896
H	0.743168	-1.480084	-2.192298
H	-0.84163	-1.841463	-1.910473
N	0.239235	1.243049	-2.232095
O	0.965504	1.089587	-3.206472
O	-0.16002	2.326185	-1.801864
H	-1.624326	0.0	0.0
