16

C	0.0	0.0	0.0
C	-0.359875	-0.036558	-1.511423
Br	1.940021	0.0	0.0
H	0.181649	-0.876874	-1.961744
N	-0.2745	1.474648	0.730329
O	-1.321557	2.033869	0.439902
O	0.558928	1.89325	1.515953
C	-0.52745	-1.063598	0.800505
N	-0.716983	-2.007317	1.498242
N	-0.138176	1.152166	-2.264969
H	-0.779935	1.868906	-1.946809
H	0.826558	1.445499	-2.182693
N	-1.836357	-0.379124	-1.551191
O	-2.033851	-1.614092	-1.574425
O	-2.618107	0.461759	-2.042335
H	-1.766134	0.0	0.0
