17

C	0.0	0.0	0.0
C	-0.595124	-0.17838	-1.400578
Cl	1.864191	0.0	0.0
H	-1.670647	-0.255806	-1.172176
N	-0.496839	1.174473	0.563486
H	-0.47369	1.922365	-0.11755
H	-0.095676	1.415341	1.455897
C	-0.298596	-1.16248	0.852104
N	-0.478679	-2.090607	1.548859
C	-0.114368	-1.431189	-2.111975
H	-0.282905	-2.323088	-1.504226
H	0.952382	-1.367204	-2.347237
H	-0.674545	-1.548451	-3.043108
N	-0.38665	1.061975	-2.142005
H	-1.217553	1.269286	-2.680597
H	0.403114	0.973217	-2.769809
Br	-4.019835	0.0	0.0
