17

C	0.0	0.0	0.0
C	-0.411355	0.317844	-1.455771
Cl	1.855687	0.0	0.0
H	-0.174216	1.390431	-1.571677
N	-0.533385	0.923802	0.930986
H	-1.113767	1.613956	0.474297
H	-1.064587	0.478828	1.665583
C	-0.331576	-1.388563	0.335144
N	-0.618425	-2.491916	0.617968
C	-1.898146	0.080132	-1.661637
H	-2.557673	0.490878	-0.898207
H	-2.102066	-0.993058	-1.682326
H	-2.206794	0.50697	-2.620584
N	0.318069	-0.530008	-2.386246
H	-0.196197	-0.581108	-3.256129
H	1.242203	-0.166817	-2.574442
Br	-5.024286	0.0	0.0
