17

C	0.0	0.0	0.0
C	-0.350145	-0.113091	-1.537783
Cl	1.863008	0.0	0.0
H	0.478582	-0.69069	-1.956202
N	-0.563413	1.139796	0.63364
H	-0.492176	1.05037	1.641673
H	-1.563232	1.146398	0.405899
C	-0.301071	-1.284879	0.658287
N	-0.517038	-2.315686	1.181451
C	-0.351525	1.273394	-2.1675
H	0.532007	1.848224	-1.884703
H	-0.380435	1.153157	-3.252049
H	-1.240778	1.829159	-1.864749
N	-1.558017	-0.816475	-1.883635
H	-2.389543	-0.404372	-1.458781
H	-1.517612	-1.775207	-1.557391
Br	-4.147942	0.0	0.0
