17

C	0.0	0.0	0.0
C	-0.351934	-0.122306	-1.551787
Cl	1.792771	0.0	0.0
H	0.467475	-0.70845	-1.977523
N	-0.587768	1.059825	0.753717
H	-1.584147	0.841133	0.848278
H	-0.507379	1.930365	0.241785
C	-0.350906	-1.28473	0.636999
N	-0.525494	-2.358731	1.079029
C	-0.349938	1.264387	-2.17919
H	-1.247253	1.810632	-1.876389
H	0.539086	1.841776	-1.910548
H	-0.382287	1.155157	-3.263292
N	-1.576025	-0.79645	-1.897367
H	-2.392391	-0.35195	-1.476235
H	-1.568445	-1.747095	-1.547002
Br	-4.14502	0.0	0.0
