17

C	0.0	0.0	0.0
C	-0.485318	-0.728037	-1.272254
Cl	1.832367	0.0	0.0
H	0.15849	-0.355469	-2.078246
N	-0.527718	1.310464	0.074823
H	-0.159203	1.831453	0.857006
H	-0.372732	1.822088	-0.78515
C	-0.369153	-0.748704	1.208875
N	-0.641613	-1.375136	2.164056
C	-1.943827	-0.413179	-1.589181
H	-2.259497	-1.045628	-2.427732
H	-2.094167	0.623322	-1.888276
H	-2.632839	-0.59211	-0.758694
N	-0.187287	-2.150245	-1.113844
H	-0.209058	-2.59032	-2.02611
H	-0.935233	-2.571555	-0.569378
Br	-5.274369	0.0	0.0
