14
Coordinates from ORCA-job run
  C   -0.31119798192662      0.24578710090788     -0.20401013973721
  C   1.17365591197347      0.36656983568735      0.14795219840390
  F   -0.36701352650556      0.20126168202195     -1.61686020075371
  H   1.56382463801394      1.29411365764257     -0.28231862063688
  H   1.28027560451575      0.42833281334411      1.23313869577917
  N   -0.98614807853057      1.38876317805956      0.30314340440998
  H   -0.63583634452439      2.23394276626279     -0.13210363368147
  H   -1.98012691836051      1.32328132008788      0.12183965099052
  C   -0.94593123457859     -1.03012153247974      0.30022068689555
  H   -1.99144865949695     -1.06422069632871     -0.01438277457816
  H   -0.43633621381000     -1.89636225348413     -0.12173335160304
  H   -0.90162026761428     -1.07285733409650      1.38913066991892
  C   1.95788646891529     -0.75374507517316     -0.36357958144006
  N   2.58101660192901     -1.66474546245185     -0.76043700396750
