14
Coordinates from ORCA-job run
  C   -0.38064962120894      0.16316180086459     -0.34040858161745
  C   1.11581167558867      0.00051776247282     -0.61817674449084
  F   -0.96306640679205      0.20084437148498     -1.63541419232361
  H   1.46851598206693      0.87161489568929     -1.17911387056882
  H   1.26356185987785     -0.87495439575545     -1.25491093181832
  N   -0.61235712132186      1.36545915529387      0.36884145660102
  H   -1.59437851025847      1.48239395206239      0.58342233390768
  H   -0.28870644088570      2.17077438640423     -0.15243875050110
  C   -0.98671412904285     -1.02059588604798      0.37830395995926
  H   -0.81840330544674     -1.93259546777493     -0.19579475427050
  H   -2.06513718044248     -0.87485034865490      0.47346383781337
  H   -0.55235159413290     -1.12854515096825      1.37212833203333
  C   1.89275604109329     -0.14347510931649      0.60828973082901
  N   2.51911875090524     -0.27874996575416      1.59080817444697
