14

C	0.0	0.0	0.0
C	-0.517912	0.096937	-1.43974
Br	1.91064	0.0	0.0
H	0.332557	0.110761	-2.136852
H	-0.349629	-0.90993	0.461314
N	-0.399618	1.121518	0.911242
O	-0.560937	0.817959	2.085368
O	-0.394217	2.257483	0.453481
C	-1.38188	1.219066	-1.782634
N	-1.910734	2.13992	-2.286701
N	-1.214556	-1.202115	-1.801301
O	-2.036867	-1.159308	-2.703275
O	-0.785929	-2.22292	-1.275803
F	-2.301222	0.0	0.0
