14

C	0.0	0.0	0.0
C	-0.427645	0.130371	-1.455792
Br	1.954329	0.0	0.0
H	0.094102	0.966827	-1.918844
H	-0.367547	-0.888354	0.491518
N	-0.411252	1.196814	0.794656
O	-0.507802	2.260867	0.195102
O	-0.531836	1.03015	2.000542
C	-1.884081	0.244664	-1.741533
N	-2.636024	0.413	-2.644014
N	0.065584	-1.09078	-2.188858
O	0.572858	-0.91145	-3.292261
O	-0.103684	-2.180735	-1.649089
F	-2.385038	0.0	0.0
