13

C	0.012043	-0.03359	0.013855
C	-0.496214	-0.27919	-1.409346
Br	2.01466	0.125578	-0.023791
H	-1.595116	-0.307059	-1.335466
H	-0.128609	-1.238789	-1.780191
N	-0.542349	1.166432	0.522686
H	-1.564577	1.1371	0.367622
H	-0.356991	1.261753	1.514036
C	-0.212967	-1.244929	0.825848
N	-0.39174	-2.184923	1.509964
C	-0.099291	0.779277	-2.331445
N	0.21557	1.586621	-3.122881
Cl	-3.579657	0.457508	-0.152052
