13

C	0.003112	-0.076254	0.026231
C	-0.58629	0.038522	-1.380673
Br	2.007463	0.337157	-0.125272
H	-1.669854	-0.122755	-1.298582
H	-0.457281	1.072904	-1.708155
N	-0.61868	0.847635	0.871791
H	-0.54654	0.605279	1.849608
H	-1.598098	1.039406	0.595591
C	0.002127	-1.466858	0.504428
N	-0.041596	-2.559997	0.937037
C	0.010336	-0.876785	-2.343524
N	0.465589	-1.608697	-3.140416
Cl	-3.560603	1.156642	-0.218392
