16

C	-0.424975	0.219633	-1.469275
C	0.0	0.0	0.0
Br	0.561355	1.634944	-2.277079
H	1.113347	0.0	0.0
N	-0.202322	-1.033791	-2.311335
O	0.720636	-1.760982	-1.979929
O	-0.945597	-1.175144	-3.276524
N	-1.934455	0.47038	-1.574837
O	-2.611823	-0.400414	-1.031354
O	-2.358534	1.457605	-2.151394
N	-0.409835	-1.221464	0.645501
H	0.257602	-1.946287	0.426172
H	-1.351385	-1.496117	0.405782
C	-0.473535	1.16632	0.754203
N	-0.88216	2.082127	1.367998
Cl	3.220386	0.0	0.0
