16

C	-0.470475	0.006607	-1.452855
C	0.0	0.0	0.0
Br	-2.435077	-0.127079	-1.562303
H	1.113932	0.0	0.0
N	-0.018282	1.244564	-2.166829
O	-0.673893	1.477963	-3.286263
O	1.282767	1.285458	-2.280758
N	0.060253	-1.167232	-2.242087
O	-0.2001	-1.084508	-3.521918
O	-0.283615	-2.306249	-1.696646
N	-0.460143	-1.18799	0.712308
H	0.082873	-1.27763	1.586939
H	-1.451049	-1.085973	0.982487
C	-0.377856	1.248669	0.844352
N	0.111871	1.421156	1.92981
Cl	2.585713	0.0	0.0
