16

C	-0.472526	-0.025257	-1.455485
C	0.0	0.0	0.0
Br	-0.05331	1.605734	-2.356878
H	1.097098	0.0	0.0
N	0.156067	-1.224855	-2.181958
O	-0.438165	-2.285206	-2.035342
O	1.192889	-1.03138	-2.792235
N	-1.975743	-0.245966	-1.586997
O	-2.397997	-0.469911	-2.71266
O	-2.644466	-0.161927	-0.563248
N	-0.367445	-1.223637	0.679795
H	-1.22155	-1.130818	1.210628
H	0.400462	-1.505442	1.276063
C	-0.465932	1.217833	0.673096
N	-0.869027	2.125463	1.301409
Cl	3.192427	0.0	0.0
