13
Coordinates from ORCA-job run
  C   -0.29754137111397     -0.49392666175836      0.65229973372953
  C   1.06439143284217     -0.27104163233383      0.01307971039277
  Cl  -0.01020040489396     -0.74942251684746      2.40087414947233
  H   1.55075806307546      0.62238806166599      0.40062858108277
  H   -0.72044785347006     -1.42401390082428      0.27213584107790
  H   1.70255107096215     -1.14642416706887      0.13385340957306
  C   -1.24907825451968      0.66485999299634      0.43648889890274
  H   -0.81583670429055      1.59629242213786      0.80644904070693
  H   -2.18802864456854      0.48632607186948      0.96139502241659
  H   -1.47109229019150      0.77766559737518     -0.62756925504220
  N   0.87294197060903     -0.06966908031850     -1.45207898982695
  O   1.16456086896239      1.02631964105219     -1.92447213748373
  O   0.39902211659705     -1.01935382794574     -2.07308400500173
