13

C	0.0	0.0	0.0
C	-0.546474	-0.409581	-1.364809
F	1.341574	0.0	0.0
H	-1.654071	-0.467805	-1.172086
H	-0.382427	-0.712852	0.750317
N	-0.581339	1.285351	0.394836
O	-1.733143	1.459073	-0.193934
O	-0.318966	1.629731	1.570173
C	-0.032465	-1.724619	-1.744298
N	0.36809	-2.79244	-2.026719
C	-0.256265	0.573451	-2.405714
N	-0.005053	1.307134	-3.287869
H	-2.763215	0.0	0.0
