15

C	-0.305764	-0.083421	-1.478533
C	0.0	0.0	0.0
Br	-2.24509	-0.241538	-1.843724
H	1.10315	0.0	0.0
H	-0.039635	0.859989	-1.953549
N	0.366782	-1.258008	-1.980727
H	0.346524	-1.257317	-2.992938
H	1.342296	-1.198808	-1.680628
N	-0.57641	-1.077551	0.753949
H	-0.575434	-1.890888	0.147582
H	0.026527	-1.276716	1.542823
N	-0.424665	1.319103	0.575944
O	-0.701676	1.344454	1.770612
O	-0.394218	2.303689	-0.161642
Cl	3.287859	0.0	0.0
