15

C	-0.492607	-0.048272	-1.443242
C	0.0	0.0	0.0
Br	-0.031952	1.681316	-2.359269
H	1.089304	0.0	0.0
H	0.143234	-0.765178	-1.962474
N	-1.859049	-0.412167	-1.573653
H	-2.117125	-0.514047	-2.545597
H	-2.441874	0.284109	-1.126448
N	-0.446465	-1.139641	0.75489
H	-1.204049	-1.615422	0.284291
H	0.337015	-1.755747	0.920029
N	-0.538356	1.226558	0.694199
O	0.221664	1.901047	1.373385
O	-1.752167	1.435843	0.578119
Cl	3.351745	0.0	0.0
