15

C	-0.36828	0.102139	-1.486328
C	0.0	0.0	0.0
Br	-0.272779	-1.805966	-2.288943
H	1.091034	0.0	0.0
H	-1.418019	0.331868	-1.660961
N	0.490897	1.023208	-2.074397
H	1.467368	0.861369	-1.831813
H	0.356938	1.156735	-3.065331
N	-0.535911	-1.050568	0.801094
H	0.127858	-1.811796	0.818212
H	-1.419556	-1.383364	0.44083
N	-0.499973	1.302594	0.583569
O	-1.724827	1.456922	0.557445
O	0.302121	2.096784	1.055465
Cl	3.358219	0.0	0.0
