15

C	-0.445477	0.078161	-1.458696
C	0.0	0.0	0.0
Br	-0.250927	-1.753771	-2.305992
H	1.091127	0.0	0.0
H	-1.517664	0.253648	-1.555659
N	0.307401	1.088773	-2.08115
H	1.302518	0.966124	-1.906209
H	0.124091	1.165683	-3.070483
N	-0.534806	-1.077168	0.749867
H	-1.502722	-0.908032	0.98845
H	0.018499	-1.221395	1.582948
N	-0.453815	1.349576	0.572761
O	-1.669221	1.454086	0.784026
O	0.374318	2.221784	0.796231
Cl	3.357136	0.0	0.0
