15

C	-0.311123	-0.018709	-1.496714
C	0.0	0.0	0.0
Br	-2.270654	-0.186128	-1.772597
H	1.093548	0.0	0.0
H	-0.048645	0.940635	-1.936623
N	0.362593	-1.075967	-2.19834
H	1.359332	-0.856835	-2.155408
H	0.234761	-1.938946	-1.679351
N	-0.449167	-1.094642	0.768453
H	0.282671	-1.75681	0.960417
H	-1.312695	-1.512999	0.461141
N	-0.479934	1.321329	0.574471
O	-1.184213	1.323241	1.57762
O	-0.121462	2.32761	-0.037401
Cl	3.278185	0.0	0.0
