12

C	-0.588854	0.025769	-1.406508
C	0.0	0.0	0.0
Br	-0.043276	-1.536843	-2.445397
H	1.097668	0.0	0.0
H	-1.675978	-0.029981	-1.33421
H	-0.349166	-0.920147	0.47644
C	-0.248455	1.241739	-2.137946
N	0.018552	2.223631	-2.723534
N	-0.567136	1.161814	0.70641
H	0.081802	1.932493	0.584497
H	-0.56644	0.959464	1.699308
Cl	3.492352	0.0	0.0
