12

C	-0.49493	0.002381	-1.439556
C	0.0	0.0	0.0
Br	-0.042941	1.675078	-2.358263
H	1.099294	0.0	0.0
H	0.020498	-0.776394	-2.005435
H	-0.331966	-0.953356	0.429047
C	-1.939064	-0.190255	-1.537591
N	-3.092899	-0.394408	-1.619367
N	-0.614886	1.091171	0.756956
H	-0.500204	0.885144	1.742145
H	-0.066484	1.926959	0.584717
Cl	3.498239	0.0	0.0
