12

C	-0.535768	-0.013655	-1.439103
C	0.0	0.0	0.0
Br	0.026277	-1.617323	-2.409846
H	1.092273	0.0	0.0
H	-1.628823	-0.068463	-1.428266
H	-0.350314	-0.914964	0.486824
C	-0.160855	1.177626	-2.192359
N	0.116301	2.154967	-2.781816
N	-0.454425	1.171843	0.732983
H	-1.410473	1.421336	0.512878
H	0.147995	1.956234	0.523872
Cl	3.466579	0.0	0.0
