15

C	0.0	0.0	0.0
C	-0.577167	-0.269305	-1.382949
Cl	1.757407	0.0	0.0
H	-0.139165	0.472553	-2.059022
H	-0.361605	-0.697759	0.752585
N	-0.446357	1.368859	0.459557
O	-0.936403	1.433888	1.580588
O	-0.262083	2.297392	-0.319183
C	-2.105588	-0.16272	-1.378102
H	-2.501198	-0.43587	-2.356392
H	-2.435923	0.850329	-1.155789
H	-2.580358	-0.806924	-0.639401
C	-0.133502	-1.594702	-1.821483
N	0.199348	-2.648599	-2.218076
Cl	-5.110548	0.0	0.0
