15

C	0.0	0.0	0.0
C	-0.47618	0.028274	-1.455481
Cl	1.757882	0.0	0.0
H	0.102781	0.820986	-1.941322
H	-0.379783	-0.841129	0.576113
N	-0.448925	1.248248	0.716588
O	-0.904653	1.095148	1.843579
O	-0.284464	2.310175	0.125982
C	-1.969282	0.298552	-1.639579
H	-2.622759	-0.372812	-1.082313
H	-2.210945	0.21573	-2.701572
H	-2.214664	1.308498	-1.315046
C	-0.080326	-1.241798	-2.070944
N	0.228441	-2.258947	-2.569875
Cl	-4.876811	0.0	0.0
