15

C	0.0	0.0	0.0
C	-0.568782	-0.00461	-1.414255
Cl	1.757409	0.0	0.0
H	-0.090775	0.821661	-1.952089
H	-0.367304	-0.827098	0.604623
N	-0.443005	1.261009	0.706775
O	-0.24373	2.317396	0.117981
O	-0.944886	1.118256	1.814906
C	-2.092466	0.165128	-1.401
H	-2.510262	-0.029144	-2.389245
H	-2.601278	-0.502919	-0.704397
H	-2.368762	1.176923	-1.107468
C	-0.168989	-1.25512	-2.062773
N	0.119722	-2.254052	-2.608419
Cl	-5.104944	0.0	0.0
