15

C	0.0	0.0	0.0
C	-0.591111	0.107299	-1.398125
Cl	1.757399	0.0	0.0
H	-0.205894	1.033638	-1.838724
H	-0.354091	-0.879096	0.535517
N	-0.441866	1.186784	0.823242
O	-0.344711	2.290429	0.297855
O	-0.827267	0.944872	1.961483
C	-2.123486	0.128385	-1.342616
H	-2.540239	-0.744781	-0.84163
H	-2.536836	0.160476	-2.351148
H	-2.501045	0.997427	-0.805685
C	-0.100552	-1.018734	-2.196434
N	0.277141	-1.939001	-2.821358
Cl	-5.129778	0.0	0.0
