15

C	-0.237438	-0.079005	-1.492026
C	0.0	0.0	0.0
Br	-2.264742	-0.670212	-1.882467
H	1.095227	0.0	0.0
H	-0.394496	0.925152	0.428698
N	-0.02986	1.172905	-2.081958
H	-0.142314	1.145246	-3.085533
H	-0.619254	1.890293	-1.682926
C	0.636687	-1.145559	-2.109658
H	1.646113	-0.904544	-1.747507
H	0.34859	-2.13251	-1.747239
H	0.574076	-1.135021	-3.201267
C	-0.475835	-1.146989	0.743655
N	-0.839073	-2.088189	1.346806
F	2.597999	0.0	0.0
