15

C	-0.046888	0.007005	-1.532925
C	0.0	0.0	0.0
Br	-1.887008	0.382172	-2.21869
H	1.096759	0.0	0.0
H	-0.3683	0.947085	0.403377
N	0.841323	1.039877	-2.037775
H	0.509923	1.937333	-1.693986
H	1.724698	0.848399	-1.530043
C	0.427577	-1.32735	-2.07224
H	-0.220374	-2.147013	-1.757234
H	0.481039	-1.286737	-3.161464
H	1.430426	-1.462542	-1.650162
C	-0.624848	-1.12512	0.654832
N	-1.128815	-2.042481	1.191191
F	2.64443	0.0	0.0
