12
Coordinates from ORCA-job run
  C   -1.02053366770969      0.12621770799955     -0.27809044049881
  C   0.38780528194147     -0.47466356229474     -0.14646668038679
  F   -1.76045287286195     -0.72161302021446     -1.06470336014925
  H   0.87109049926331     -0.52657510318466     -1.12368289025343
  H   -1.48577658275532      0.19605668908610      0.70708105876031
  C   -0.94425240968737      1.45288737747785     -0.90090130382563
  N   -0.86192997365656      2.51388970934033     -1.39664255933049
  C   0.32920263104787     -1.78661936834213      0.48415208996874
  N   0.27504230450789     -2.84615121232830      0.98721929863597
  N   1.21350527873674      0.46086854845702      0.70702645300917
  O   0.76541214469003      0.68961557548262      1.82545664939699
  O   2.23088736648359      0.91508665852084      0.20055168467322
