12
Coordinates from ORCA-job run
  C   -1.03549351915328      0.19909109200412     -0.14536745695052
  C   0.32919009387715     -0.50676155236413     -0.18146724602114
  F   -1.93535037514625     -0.60539179353611     -0.79968561156835
  H   0.67286618440153     -0.61589672585036     -1.21150192782827
  H   -1.35796083597617      0.32694898981459      0.88993433587244
  C   -0.94512997484923      1.50226337032971     -0.81447697466625
  N   -0.85355214320698      2.54327482483793     -1.34945039711459
  C   0.25729271223463     -1.79642675614033      0.49192019780610
  N   0.18742804095153     -2.83670962731874      1.03191314268800
  N   1.32847863618906      0.37996887280019      0.52662512629265
  O   1.05301508233667      0.66508586280463      1.68695501687316
  O   2.29921609834134      0.74455344261848     -0.12339820538323
