12
Coordinates from ORCA-job run
  C   -0.51508199669176      0.73278673625989     -0.49772419559923
  C   0.26254856269452     -0.48467406984125      0.00401370119825
  F   -0.35448421688843      1.75435984478087      0.40503434646547
  H   0.17198460264808     -1.30265281093966     -0.71778888187030
  H   -0.09664904686010      1.04801849942336     -1.45624380502281
  C   -1.93538625086409      0.39844081702322     -0.64415429539271
  N   -3.06543846195828      0.11276020305059     -0.78338362867224
  C   -0.17286029817059     -0.90732607176477      1.32686731940020
  N   -0.57302070972451     -1.25725574060848      2.37369478608201
  N   1.74221855864572     -0.11488782356320      0.01026197587939
  O   2.15898629758071      0.32232200842459     -1.05481773432814
  O   2.37718295958872     -0.30189159224515      1.03624041186011
