12
Coordinates from ORCA-job run
  C   -0.51611408506636      0.76459197075686     -0.44703597793993
  C   0.27935356914321     -0.47355623087816     -0.03102901596514
  F   -0.44182289123860      1.69098201280619      0.56358075309524
  H   0.25643449651942     -1.21182683532344     -0.83884529667294
  H   -0.05928259890413      1.19145859420491     -1.34281421171924
  C   -1.91321433567185      0.40293084643605     -0.70679040758471
  N   -3.02260628329698      0.09604925557112     -0.93712791935666
  C   -0.20703070860020     -1.04844461990630      1.21413231349940
  N   -0.64362501597886     -1.52433103500340      2.19468959147766
  N   1.74158239508903     -0.05902982822323      0.09505894230226
  O   2.32843114799700     -0.32827423933228      1.13139764298391
  O   2.19689431000832      0.49745010889169     -0.89621641411987
