12
Coordinates from ORCA-job run
  C   -0.58134713952081      0.63058323948972     -0.56202231287789
  C   0.32242217662928     -0.44268215518356      0.04562069740240
  F   -0.60461726934780      1.71137738143930      0.28376037248733
  H   0.37548998507602     -1.30364047945766     -0.62844694133771
  H   -0.15927291172463      0.94735980109400     -1.51847326769986
  C   -1.93529783854359      0.09986432336416     -0.75162737186857
  N   -3.00885535633211     -0.34262131284757     -0.92391230671425
  C   -0.11956886104848     -0.84759686651969      1.37173454527390
  N   -0.52097903323220     -1.19142802042632      2.42018025187155
  N   1.73973184444902      0.11884613498070      0.09151552416709
  O   2.34223424001634      0.07310354148904      1.15249728742413
  O   2.14906016357896      0.54783441257788     -0.97982647812812
