12
Coordinates from ORCA-job run
  C   -0.99149482762973      0.09122644943765     -0.37701828293520
  C   0.42600659749615     -0.44751752229079     -0.12708390231595
  F   -1.60294361536354     -0.75144889164476     -1.27200948208332
  H   1.00823104179599     -0.42512086043547     -1.04983892577479
  H   -1.55696801154455      0.09125742828620      0.55704430839646
  C   -0.92255434712565      1.44925554822613     -0.92950358308929
  N   -0.84867287514979      2.53671204041793     -1.36558127875300
  C   0.37236878608538     -1.79123280813902      0.43269566889823
  N   0.31821776871998     -2.87584182531942      0.87911251165119
  N   1.10969513627535      0.48157298247549      0.85026433642996
  O   0.53951250682505      0.63015318860763      1.92562597095295
  O   2.14760183961534      1.00998427037842      0.47429265862275
