12
Coordinates from ORCA-job run
  C   -0.56593502989374      0.80458369421106     -0.28334883312008
  C   0.28484923565791     -0.45627939857789     -0.12559693963200
  F   -0.42354784749558      1.57017628242924      0.84719807175684
  H   0.20933902835544     -1.06704123993960     -1.03079038409198
  H   -0.19494264897355      1.37534155311208     -1.13773947118129
  C   -1.97321291350994      0.44359456261941     -0.48240935483252
  N   -3.09393401281033      0.14788935789070     -0.66862687865458
  C   -0.08458761798118     -1.22373575295841      1.05441635981769
  N   -0.42789783832115     -1.84694265555641      1.98827050143196
  N   1.74474069576811     -0.01932748508723     -0.05534754150643
  O   2.42247334941235     -0.42407756924081      0.87601763066285
  O   2.10365559979166      0.69481865109786     -0.98304316065047
