12
Coordinates from ORCA-job run
  C   -0.74050442567595      0.15291586760633     -0.81965566162619
  C   0.37843715394592     -0.62550520615184     -0.11691422643658
  F   -0.19424622968413      0.76909659333359     -1.91972607843872
  H   0.82104971835707     -1.32150724196615     -0.83225953876331
  H   -1.49463634063651     -0.56362338894546     -1.16044249187696
  C   -1.38134415235017      1.14909093571400      0.04641424202319
  N   -1.95160970865921      1.93999367570636      0.70008780560746
  C   -0.12245250734166     -1.31364276440165      1.06291604168713
  N   -0.55492850288966     -1.88855435785527      1.99112250182574
  N   1.48693870129319      0.33419096548258      0.26576927937442
  O   1.26403617694241      1.07056309271730      1.21811293561815
  O   2.48926011669870      0.29698182876022     -0.43642480899433
