12
Coordinates from ORCA-job run
  C   -0.96674166133081      0.18373801119628     -0.40493643534751
  C   0.33358472964858     -0.53544920006170     -0.01321745519504
  F   -1.74516771139348     -0.71346541183370     -1.09360578924618
  H   0.88648273853320     -0.83193864777495     -0.90608895284280
  H   -1.49874951375220      0.50177339877707      0.49400629531258
  C   -0.66383147328177      1.34266075896895     -1.25333062839522
  N   -0.40465897953001      2.26847119071819     -1.92713302031551
  C   0.04904905932770     -1.68214213261099      0.83866261645229
  N   -0.19209464258041     -2.60683435992163      1.52091922254826
  N   1.20060210704472      0.45028406508982      0.73680010663959
  O   0.69559305372136      0.94168983025548      1.74030930408045
  O   2.30693229359314      0.68021249719719      0.26661473630908
