12
Coordinates from ORCA-job run
  C   -0.94801334074622      0.19310627344171     -0.44498327944529
  C   0.33766630710704     -0.53442135399355     -0.02175495683851
  F   -1.68090794778836     -0.67676335330330     -1.21419270958727
  H   0.93278310036353     -0.79427874404970     -0.89877007021717
  H   -1.52828096178038      0.46346176260459      0.43957895957396
  C   -0.61553032033126      1.39483557006102     -1.21953671894918
  N   -0.33425157113412      2.35778356586872     -1.82925308603363
  C   0.02034436487271     -1.71414164579020      0.77174241237454
  N   -0.24939263191996     -2.66238110316359      1.40957187322991
  N   1.16396857182300      0.42370700439321      0.80567265592665
  O   0.60581556962108      0.88329177406791      1.79608880969130
  O   2.29479885991293      0.66480024986317      0.40483611027470
