12
Coordinates from ORCA-job run
  C   -0.52671548085858      0.77757875182126     -0.40976654555172
  C   0.27698039948624     -0.47374264660783     -0.05287289932043
  F   -0.41848234380442      1.67451591033749      0.62380686614601
  H   0.22649035411015     -1.19069504933054     -0.87850062293223
  H   -0.09621509868703      1.22842792749700     -1.30674658006261
  C   -1.93212399244406      0.42612237305438     -0.63670415445883
  N   -3.04866298554818      0.12735036490191     -0.84155002274728
  C   -0.17343135154214     -1.07918731679986      1.19160883220636
  N   -0.58424324347231     -1.57457131445939      2.17356470859514
  N   1.74382205675640     -0.06679782800814      0.03909077871036
  O   2.16948250320577      0.51762129131043     -0.94926031427605
  O   2.36209918279816     -0.36662246371672      1.04832995369129
