12
Coordinates from ORCA-job run
  C   -0.97872137231422      0.10222968563545     -0.40671599771041
  C   0.40755169602608     -0.47528072319194     -0.07994906320242
  F   -1.60994692658640     -0.78393828826692     -1.24413009828817
  H   1.00835913887892     -0.55524187459855     -0.98747099676366
  H   -1.56210507182954      0.20418428147069      0.51062589521000
  C   -0.83715748994721      1.40584412075544     -1.06623666967015
  N   -0.70562917849816      2.44984668146279     -1.58684276270882
  C   0.28226767964518     -1.76373197014529      0.58771430831820
  N   0.17183987027667     -2.80381114077121      1.12128987170480
  N   1.11273744214092      0.50197913431943      0.83305385487613
  O   0.52999534862865      0.76219340142670      1.88005980749460
  O   2.17880886357913      0.95472669190341      0.43760185073989
