12
Coordinates from ORCA-job run
  C   -0.54558327545064      0.58258079183681     -0.64317300824512
  C   0.24593143890298     -0.47657640263562      0.12526769057281
  F   -0.25105903472207      1.81516677279093     -0.11555521508351
  H   0.04691372570027     -1.46481297176651     -0.30130662795931
  H   -0.23049283838692      0.56871835844785     -1.68904224139565
  C   -1.98298579144501      0.31132434377197     -0.53833228881654
  N   -3.12967147448613      0.06922289237381     -0.47150088624131
  C   -0.04816766901860     -0.45539975860734      1.55039732395851
  N   -0.33596163673167     -0.44935320671036      2.68862293571113
  N   1.72739026423621     -0.21907983068535     -0.12903903785373
  O   2.03281917592559     -0.14829209810418     -1.31270620293463
  O   2.46986711547599     -0.13249889071202      0.83636755828736
