12
Coordinates from ORCA-job run
  C   -0.59452730858731      0.71948492290265     -0.42287082529780
  C   0.37475606083357     -0.40231421518867     -0.04597320966664
  F   -0.85878942576437      1.46259532211752      0.70040430618332
  H   0.62306740452705     -0.98863335346456     -0.93630606599683
  H   -0.11540713781997      1.36562653477135     -1.16191364853923
  C   -1.83372578246970      0.15306815420516     -0.96534121895219
  N   -2.81000544441404     -0.30901959667072     -1.42509302657939
  C   -0.15567841008845     -1.25410914515163      1.00811718995963
  N   -0.62333476584505     -1.95385504693830      1.82671386018304
  N   1.68413679214782      0.24833732885523      0.38671364701593
  O   2.16109558311445     -0.07909681913991      1.46190175592941
  O   2.14941243436600      1.03791591370188     -0.42535276423925
