12
Coordinates from ORCA-job run
  C   -0.97557871428363      0.10342806587150     -0.41361737734478
  C   0.41424791875023     -0.46527961723201     -0.08706787627693
  F   -1.58655693099442     -0.76781676363156     -1.28139573713958
  H   1.02830438339815     -0.50774516527022     -0.98824401005434
  H   -1.57006331276854      0.17314613681535      0.49954854009531
  C   -0.84277199138808      1.42469373241080     -1.03889994269466
  N   -0.71716441689246      2.47817607783843     -1.54135321629165
  C   0.30005532099232     -1.77664824889255      0.53674940223477
  N   0.20301484002829     -2.83578919523738      1.03433820192694
  N   1.09383892592708      0.49143409625009      0.86642876288524
  O   0.49462268513146      0.70882549136635      1.91380615561447
  O   2.15805129209959      0.97157538971120      0.49970709704520
