12
Coordinates from ORCA-job run
  C   -0.63453435567979      0.65673017252194     -0.46504283647798
  C   0.31551194338761     -0.45183783705353     -0.00954256356400
  F   -0.51655043711702      1.71492531479417      0.40123834572154
  H   0.25824559301914     -1.29441025718994     -0.70596731836812
  H   -0.33609908911039      0.98945322482197     -1.46179745893371
  C   -2.01481397270855      0.16148414887131     -0.48274921211770
  N   -3.11261524584216     -0.25267444854463     -0.51896314232689
  C   0.04242706525464     -0.88316308436714      1.35330449727852
  N   -0.22689122537772     -1.24583294578202      2.43698802849628
  N   1.73885986444840      0.08067918842083     -0.13764385223095
  O   2.47458720754858     -0.00573587150546      0.83284005959245
  O   2.01287265217727      0.53138239501250     -1.24266454706943
