12
Coordinates from ORCA-job run
  C   -0.99877309826206      0.15516554209749     -0.33068713091000
  C   0.38107249137915     -0.48815684622681     -0.12039018558065
  F   -1.72616222872691     -0.68169423363131     -1.14075166972436
  H   0.91104209299893     -0.56739057897241     -1.07109656868749
  H   -1.50987246696503      0.25603678977914      0.62888749244519
  C   -0.84950174475278      1.46815785607738     -0.96934711163270
  N   -0.71306401708833      2.51520959147590     -1.48249014668437
  C   0.24665583413063     -1.78875676348554      0.52168911526963
  N   0.12397264748734     -2.83604265694269      1.03833871779717
  N   1.19194256111725      0.43170880369158      0.76385826446269
  O   2.24768988733673      0.84766400441603      0.30536331030188
  O   0.69599804134507      0.68809849172123      1.85562591294302
