12
Coordinates from ORCA-job run
  C   -1.01303246710138      0.18224331158443     -0.27081564523027
  C   0.35970764996683     -0.49661513609257     -0.14534309078338
  F   -1.80970463505087     -0.63334573537261     -1.03636026283080
  H   0.83223891202329     -0.58377236353901     -1.12526263620208
  H   -1.46214702606882      0.29342785900360      0.71840122511204
  C   -0.86925132684549      1.49406410296688     -0.91342626069551
  N   -0.73502484518976      2.54426577070646     -1.42073896926705
  C   0.23189224422544     -1.79773689127670      0.49710799762574
  N   0.11675593514192     -2.84662355730018      1.01215587957359
  N   1.24491062171450      0.39709427224995      0.69395403839936
  O   2.28236573785864      0.78830748813018      0.17584476054409
  O   0.82128919932570      0.65869087893956      1.81448296375427
