12
Coordinates from ORCA-job run
  C   -0.77993181739345      0.10953588227385     -0.78962495539148
  C   0.39816604166678     -0.61151423267382     -0.12335166336271
  F   -0.30551658924811      0.72894874290869     -1.92072738199899
  H   0.83726716029308     -1.30251095673506     -0.84575282945661
  H   -1.51772747266381     -0.64219858020945     -1.08752845185376
  C   -1.42419118178886      1.09316831615099      0.08807337800300
  N   -1.99605465890120      1.87053844822648      0.75641124697225
  C   -0.02462382036600     -1.29821796988848      1.08760116683540
  N   -0.39528351856625     -1.87479104142543      2.04120331198369
  N   1.48242805896564      0.39748804345553      0.19608478626925
  O   2.45404669041423      0.38869592171922     -0.54895546273230
  O   1.27142110758795      1.13985742619747      1.14656685473225
