12
Coordinates from ORCA-job run
  C   -0.77302523846908      0.12210020935932     -0.79386205131520
  C   0.40821965770232     -0.59950229866536     -0.13484236830207
  F   -0.29220959579874      0.78567606912319     -1.89709080894404
  H   0.86168732689746     -1.26856881831079     -0.86885487593152
  H   -1.49182812332981     -0.63296438203370     -1.12772369222130
  C   -1.45170970528850      1.06382729217224      0.10351295389602
  N   -2.05781044071677      1.80137261879573      0.78666732344881
  C   -0.01354340050496     -1.31969956436256      1.05696014014594
  N   -0.38148357277663     -1.92437439407132      1.99398308731724
  N   1.47912213038372      0.41331722816061      0.21703921149870
  O   1.23049676943688      1.16300231442275      1.15240337744330
  O   2.48108419246411      0.39681372540988     -0.48619229703586
