12
Coordinates from ORCA-job run
  C   -0.78541213660490      0.12064753420371     -0.78342482462759
  C   0.38043441288442     -0.62244858627129     -0.11997911406905
  F   -0.30717661715615      0.71098488557475     -1.92855556104843
  H   0.79740268404782     -1.32884905568874     -0.84060325239609
  H   -1.54631569546184     -0.61509859644979     -1.06252546303795
  C   -1.39173230912474      1.13514600436193      0.08599158704217
  N   -1.92878015804853      1.94508863747628      0.74472294251590
  C   -0.04855225332005     -1.29047314424467      1.09913002321498
  N   -0.42221863313067     -1.85625098317908      2.05791741854932
  N   1.49132387416394      0.36234525403442      0.18392286974347
  O   2.45617890647039      0.32539578069924     -0.56882922777454
  O   1.30684792528029      1.11451226948324      1.13223260188782
