14

C	-0.478269	0.017586	-1.441579
C	0.0	0.0	0.0
Br	-2.439717	-0.184337	-1.536414
H	1.094397	0.0	0.0
H	-0.071421	-0.837111	-1.980287
C	-0.125991	1.264555	-2.100562
N	0.153997	2.269764	-2.639767
N	-0.366712	-1.372459	0.565497
O	-0.116574	-2.3486	-0.135422
O	-0.859999	-1.413759	1.690472
N	-0.47691	1.085276	0.767784
H	-1.403198	0.913719	1.13349
H	0.160176	1.265975	1.531141
Br	3.367247	0.0	0.0
