14

C	-0.586704	-0.042607	-1.407695
C	0.0	0.0	0.0
Br	-0.248281	1.661802	-2.316232
H	1.097573	0.0	0.0
H	-1.671943	-0.130679	-1.343502
C	-0.053412	-1.104025	-2.251819
N	0.311371	-1.972493	-2.953082
N	-0.435416	-1.241539	0.72851
O	-0.173987	-1.281099	1.927145
O	-1.01615	-2.129074	0.102065
N	-0.561873	1.111504	0.758645
H	-0.095428	1.948372	0.425158
H	-0.230658	0.979142	1.710253
Br	3.411507	0.0	0.0
