14

C	-0.413174	-0.001835	-1.472967
C	0.0	0.0	0.0
Br	-2.367822	-0.181194	-1.666506
H	1.093625	0.0	0.0
H	0.016037	-0.864088	-1.98112
C	-0.020159	1.240171	-2.119983
N	0.273225	2.240925	-2.661446
N	-0.418728	-1.358016	0.55195
O	-0.094786	-2.327326	-0.133774
O	-1.025006	-1.409489	1.614668
N	-0.464119	1.060199	0.800776
H	-1.357811	1.442347	0.530805
H	0.245224	1.767706	0.914268
Br	3.367076	0.0	0.0
