14

C	-0.597011	-0.100574	-1.397284
C	0.0	0.0	0.0
Br	-0.174897	1.528043	-2.401386
H	1.104788	0.0	0.0
H	-1.684586	-0.124958	-1.32004
C	-0.134196	-1.238904	-2.181264
N	0.16881	-2.137288	-2.874237
N	-0.451078	-1.191995	0.795396
O	-0.127153	-1.20179	1.978769
O	-1.119085	-2.064983	0.238842
N	-0.546356	1.156896	0.705127
H	-0.216436	1.063686	1.661549
H	-0.063887	1.968536	0.334085
Br	3.413101	0.0	0.0
