14

C	-0.515399	-0.198268	-1.434383
C	0.0	0.0	0.0
Br	-0.148257	1.386793	-2.512399
H	1.107547	0.0	0.0
H	-1.598744	-0.314313	-1.426741
C	0.081116	-1.363795	-2.070341
N	0.557869	-2.303321	-2.590919
N	-0.477779	-1.205791	0.786455
O	-1.622205	-1.608929	0.543939
O	0.253528	-1.63772	1.665045
N	-0.497175	1.147855	0.68445
H	-1.360001	1.504934	0.301622
H	0.20906	1.866513	0.713825
Br	3.521603	0.0	0.0
