14

C	-0.550042	-0.063385	-1.431269
C	0.0	0.0	0.0
Br	0.05529	1.49576	-2.4349
H	1.090621	0.0	0.0
H	-1.638953	-0.003634	-1.406389
C	-0.175922	-1.279311	-2.140698
N	0.06436	-2.273527	-2.719631
N	-0.512957	-1.243739	0.691214
O	0.224773	-1.82757	1.46963
O	-1.692803	-1.540641	0.462416
N	-0.459285	1.114801	0.766825
H	0.248518	1.83409	0.776565
H	-1.34443	1.483044	0.447646
Br	3.464244	0.0	0.0
