14

C	-0.470413	0.017086	-1.454792
C	0.0	0.0	0.0
Br	0.286645	-1.383947	-2.575407
H	1.093353	0.0	0.0
H	-0.069081	0.943244	-1.873351
C	-1.92382	0.032912	-1.590319
N	-3.091088	0.121154	-1.692811
N	-0.458736	-1.250673	0.716128
O	-1.167543	-2.052835	0.104776
O	-0.079226	-1.374934	1.871646
N	-0.452753	1.140345	0.737824
H	0.313508	1.781438	0.8902
H	-1.243521	1.608954	0.319741
Br	3.394065	0.0	0.0
