14

C	-0.627294	0.007444	-1.398915
C	0.0	0.0	0.0
Br	0.021922	1.523134	-2.427858
H	1.090066	0.0	0.0
H	-1.704315	0.159128	-1.289113
C	-0.405303	-1.217161	-2.155749
N	-0.278177	-2.208832	-2.772779
N	-0.476869	-1.316574	0.613728
O	-1.638965	-1.320846	1.03712
O	0.282565	-2.277118	0.619483
N	-0.459805	1.121135	0.748489
H	-1.363277	0.93566	1.164323
H	0.221367	1.34872	1.459714
Br	3.458454	0.0	0.0
