14

C	0.0	0.0	0.0
C	-0.378361	-0.269486	-1.472424
Br	1.961856	0.0	0.0
H	0.06486	-1.230461	-1.756753
H	-0.284414	-0.847748	0.62756
H	0.124257	0.492392	-2.079984
C	-0.568761	1.286205	0.552919
H	-0.225185	1.471169	1.572825
H	-0.282156	2.135698	-0.073683
H	-1.660253	1.196003	0.563247
N	-1.778672	-0.276386	-1.816099
H	-2.336949	-0.87667	-1.219005
H	-2.202892	0.633997	-1.699308
Br	-4.5887	0.0	0.0
