17
Coordinates from ORCA-job run
  C   -0.54956122459942     -0.31333434163685      0.27283204054443
  C   0.98354357764822     -0.38263412350574      0.10209894913722
  Br  -1.14786968688664     -2.13841901795018      0.71170420918075
  H   1.39785766149933     -0.74333695207113      1.04886105741260
  C   -1.23759596684217      0.12661528890187     -1.00540178575156
  H   -0.98982323669531     -0.53269581035389     -1.83847168404535
  H   -0.92311022031510      1.14793035554286     -1.24039152048310
  H   -2.32128721004411      0.12180609315465     -0.88065996982141
  C   -0.89740902342094      0.58323357687743      1.44918143490863
  H   -0.55191460294305      1.59599875383668      1.24139857310062
  H   -0.41926154376143      0.23126651940580      2.36543829453823
  H   -1.97824943325759      0.59607002198065      1.60455760527180
  N   1.50715390984378      0.95329527980526     -0.17387509243168
  H   2.41604679594715      1.06157167352233      0.24736046879998
  H   1.62590200229377      1.09847576841273     -1.16734422158925
  C   1.37857852232762     -1.36108557709468     -0.92320297385958
  N   1.70499967920587     -2.04575750882780     -1.81808538491235
