17
Coordinates from ORCA-job run
  C   -0.38138196970270     -0.02441116387753      0.33322638318940
  C   0.98010418691778      0.00338667607552     -0.41166262347524
  Br  -0.16094589361085     -1.11194526196123      1.96089676477591
  H   0.80530272760578      0.61829170528906     -1.30619343130126
  C   -1.44392692094985     -0.68625583270450     -0.53034977377936
  H   -1.18545828620820     -1.71705563426367     -0.77471623206963
  H   -2.40253617414901     -0.69704321547143     -0.00936617269758
  H   -1.56405785554727     -0.11859572184515     -1.46012812560785
  C   -0.80167208493972      1.37576331938510      0.75174204180980
  H   -1.77005536348863      1.34832163753954      1.25470760090266
  H   -0.07504225338426      1.82979934002969      1.42644037056178
  H   -0.89431552931903      2.00751744024394     -0.13906493424268
  N   1.54105374768135     -1.25468309400380     -0.86297799074338
  H   1.62496463386529     -1.89939274943848     -0.08574918184051
  H   0.95540121350439     -1.67109023330773     -1.57438620066125
  C   1.98875778523135      0.71175686289764      0.39160081036399
  N   2.78380803649360      1.28663592541305      1.03598069481521
