18

C	-0.671432	-0.090051	-1.380394
C	0.0	0.0	0.0
Br	0.21173	-1.309882	-2.619906
H	1.087633	0.0	0.0
C	-2.149539	-0.415931	-1.326011
H	-2.272747	-1.431465	-0.947316
H	-2.647059	0.289825	-0.659111
H	-2.609629	-0.346373	-2.310064
N	-0.466721	1.293966	-1.99911
O	-1.470985	1.885906	-2.391964
O	0.678696	1.707879	-2.065369
N	-0.437408	-1.201994	0.784584
O	-0.134218	-2.30379	0.333096
O	-1.085847	-1.041263	1.828669
N	-0.429659	1.22271	0.626935
H	0.378836	1.598093	1.110992
H	-1.159239	1.038972	1.30426
F	2.507371	0.0	0.0
