18

C	-0.376405	0.144008	-1.47409
C	0.0	0.0	0.0
Br	-2.313007	0.477174	-1.711232
H	1.092158	0.0	0.0
C	0.424826	1.295049	-2.050625
H	1.457212	1.132815	-1.725338
H	0.048011	2.233513	-1.64544
H	0.343718	1.320515	-3.1386
N	-0.026242	-1.118407	-2.270779
O	1.156131	-1.210131	-2.578026
O	-0.902226	-1.93202	-2.534444
N	-0.552629	-1.276032	0.559318
O	-1.418478	-1.228271	1.430915
O	-0.08125	-2.316268	0.096258
N	-0.365143	1.106429	0.811616
H	0.422259	1.732925	0.886243
H	-1.217731	1.578087	0.547761
F	2.549111	0.0	0.0
