18

C	-0.440592	0.073381	-1.456435
C	0.0	0.0	0.0
Br	-2.377033	0.394541	-1.59273
H	1.092453	0.0	0.0
C	0.335721	1.20055	-2.10921
H	1.383114	1.042046	-1.838768
H	0.193381	1.196497	-3.192269
H	-0.004923	2.143148	-1.689489
N	-0.106342	-1.206082	-2.233373
O	-1.002899	-1.923138	-2.657236
O	1.092379	-1.385981	-2.396677
N	-0.50601	-1.230972	0.681199
O	-1.023966	-1.115261	1.794523
O	-0.334936	-2.30525	0.11017
N	-0.360908	1.203247	0.682214
H	-1.232074	1.097765	1.187083
H	0.380662	1.408328	1.339753
F	2.530599	0.0	0.0
