18

C	-0.329655	-0.064385	-1.499686
C	0.0	0.0	0.0
Br	-0.432793	1.755175	-2.218205
H	1.090821	0.0	0.0
C	0.728534	-0.814573	-2.283414
H	1.688618	-0.47856	-1.872184
H	0.625301	-1.880735	-2.09015
H	0.641229	-0.625788	-3.352224
N	-1.729585	-0.617379	-1.737159
O	-1.941507	-1.234538	-2.775151
O	-2.570816	-0.376327	-0.872767
N	-0.380083	-1.324234	0.63028
O	-0.436655	-2.334293	-0.074647
O	-0.556921	-1.32809	1.848209
N	-0.503483	1.101505	0.731382
H	-1.462979	0.955442	1.016018
H	0.079014	1.240427	1.54434
F	2.577428	0.0	0.0
