18

C	-0.644411	-0.127482	-1.386564
C	0.0	0.0	0.0
Br	0.315873	-1.33057	-2.587406
H	1.095292	0.0	0.0
C	-2.110221	-0.495787	-1.365282
H	-2.642414	0.209642	-0.722854
H	-2.211527	-1.508881	-0.977749
H	-2.541061	-0.449065	-2.362966
N	-0.473782	1.253748	-2.026832
O	-1.485153	1.793551	-2.46779
O	0.651806	1.721271	-2.060249
N	-0.393684	-1.167762	0.837319
O	-0.300401	-2.291227	0.341221
O	-0.745362	-0.963659	2.00605
N	-0.427342	1.241732	0.597654
H	0.406193	1.66789	0.984407
H	-1.073689	1.066754	1.354737
F	2.498128	0.0	0.0
