18

C	-0.334697	-0.10141	-1.493753
C	0.0	0.0	0.0
Br	-0.380697	1.700261	-2.261895
H	1.103884	0.0	0.0
C	0.696861	-0.903981	-2.261415
H	1.667197	-0.580249	-1.867731
H	0.608097	-0.741341	-3.333981
H	0.566484	-1.961219	-2.038636
N	-1.749868	-0.61831	-1.718714
O	-1.99087	-1.203798	-2.768976
O	-2.573419	-0.382824	-0.836679
N	-0.38467	-1.300804	0.669807
O	-0.46549	-2.329387	-0.005035
O	-0.544995	-1.270012	1.88915
N	-0.495593	1.125322	0.702184
H	0.10058	1.292331	1.49998
H	-1.448444	0.984484	1.010431
F	2.571346	0.0	0.0
