18

C	-0.381221	-0.037523	-1.463481
C	0.0	0.0	0.0
Br	0.411946	1.547889	-2.255933
H	1.096171	0.0	0.0
C	0.175663	-1.249376	-2.190071
H	-0.086	-1.188916	-3.249864
H	1.256057	-1.243766	-2.045504
H	-0.264696	-2.151053	-1.759837
N	-1.866296	-0.065568	-1.879641
O	-2.247921	0.572101	-2.87793
O	-2.546689	-0.932235	-1.317432
N	-0.459791	-1.142444	0.905529
O	-1.664935	-1.306056	1.157415
O	0.447999	-1.67698	1.585953
N	-0.480338	1.190831	0.637965
H	-0.095441	1.222354	1.582196
H	-1.495285	1.210887	0.695616
F	2.54101	0.0	0.0
