19

C	-0.417761	0.013746	-1.454809
C	0.0	0.0	0.0
Cl	0.450941	1.219116	-2.372065
H	1.095999	0.0	0.0
N	-0.177976	-1.372305	-2.079593
O	0.931695	-1.610474	-2.520826
O	-1.12763	-2.148145	-2.00226
N	-1.925571	0.221015	-1.711401
O	-2.676345	0.184414	-0.743415
O	-2.264805	0.367638	-2.878968
C	-0.426713	-1.253842	0.762406
H	-0.060483	-1.149606	1.786539
H	0.043057	-2.149786	0.352811
H	-1.508759	-1.390127	0.784689
C	-0.40768	1.278617	0.73748
H	-0.202343	2.171334	0.143759
H	0.210112	1.346402	1.635561
H	-1.459827	1.271855	1.024933
Cl	3.380647	0.0	0.0
