16

C	0.0	0.0	0.0
C	-0.580765	0.014045	-1.419611
F	1.352392	0.0	0.0
H	-1.680732	-0.12098	-1.289863
C	-0.515979	1.117376	0.862791
H	-0.121367	0.979597	1.86919
H	-0.159765	2.066468	0.458476
H	-1.608257	1.094495	0.8727
N	-0.365762	-1.342269	0.645383
O	-1.063047	-2.125956	0.01222
O	0.106838	-1.523268	1.763126
C	-0.012314	-1.037106	-2.265568
N	0.451262	-1.844852	-2.980575
C	-0.324926	1.316748	-2.03855
N	-0.127675	2.36145	-2.536754
Br	-3.813038	0.0	0.0
