16

C	0.0	0.0	0.0
C	-0.357653	-0.037641	-1.521913
F	1.369653	0.0	0.0
H	-0.394607	1.016967	-1.823982
C	-0.500575	1.177957	0.767871
H	-1.591849	1.162376	0.773783
H	-0.108263	1.128426	1.782824
H	-0.129534	2.082209	0.279731
N	-0.351505	-1.327111	0.656521
O	-0.421835	-2.300772	-0.086172
O	-0.406399	-1.338085	1.880344
C	-1.563414	-0.688126	-2.065602
N	-2.20949	-1.237662	-2.88337
C	0.761408	-0.652501	-2.264422
N	1.636203	-1.11608	-2.894879
Br	-3.615815	0.0	0.0
