16

C	0.0	0.0	0.0
C	-0.261486	0.198235	-1.523003
F	1.35833	0.0	0.0
H	0.262786	1.145738	-1.704764
C	-0.58189	1.044672	0.894137
H	-1.675402	0.959097	0.858064
H	-0.218952	0.88133	1.909036
H	-0.269095	2.031172	0.543738
N	-0.411398	-1.386421	0.457619
O	-0.119894	-1.652903	1.619777
O	-0.952691	-2.125979	-0.354112
C	-1.573433	0.37039	-2.161931
N	-2.353689	0.637334	-3.000991
C	0.488158	-0.817973	-2.282901
N	1.116527	-1.602336	-2.888655
Br	-3.852791	0.0	0.0
