16

C	0.0	0.0	0.0
C	-0.270368	0.011876	-1.532129
F	1.360644	0.0	0.0
H	0.25958	0.926864	-1.831809
C	-0.560767	1.155449	0.764056
H	-1.654149	1.085074	0.750637
H	-0.184877	1.116254	1.786227
H	-0.235703	2.08434	0.288889
N	-0.40822	-1.317645	0.633836
O	-0.878349	-2.186509	-0.089812
O	-0.175993	-1.407222	1.835265
C	-1.58912	0.117256	-2.17257
N	-2.343731	0.28177	-3.061553
C	0.468101	-1.085079	-2.181396
N	1.101172	-1.891728	-2.752516
Br	-3.804919	0.0	0.0
