16

C	0.0	0.0	0.0
C	-0.27136	-0.079586	-1.534448
F	1.358051	0.0	0.0
H	0.395784	-0.88818	-1.857599
C	-0.557368	1.160603	0.75127
H	-0.219468	2.083969	0.277379
H	-1.650964	1.093981	0.724881
H	-0.201125	1.119684	1.780222
N	-0.380991	-1.325539	0.637926
O	-0.277051	-1.377249	1.85965
O	-0.63839	-2.263678	-0.110024
C	0.252672	1.158679	-2.130509
N	0.684425	2.13197	-2.626938
C	-1.559017	-0.393931	-2.167839
N	-2.314976	-0.679737	-3.024446
Br	-3.784008	0.0	0.0
