16

C	0.0	0.0	0.0
C	-0.307256	0.085399	-1.525431
F	1.359011	0.0	0.0
H	0.487775	-0.531073	-1.959514
C	-0.546559	1.054967	0.899371
H	-0.196997	2.02923	0.554023
H	-0.191805	0.874937	1.913149
H	-1.637826	1.001431	0.867738
N	-0.35772	-1.405778	0.471474
O	-0.170885	-2.302997	-0.349335
O	-0.666204	-1.552079	1.645756
C	-0.051733	1.459078	-1.974195
N	0.226825	2.537395	-2.346722
C	-1.531254	-0.437345	-2.144021
N	-2.245386	-0.885255	-2.964865
Br	-3.766842	0.0	0.0
