15

C	-0.532317	0.00751	-1.415647
C	0.0	0.0	0.0
Cl	-0.27529	-1.572611	-2.216397
H	1.09309	0.0	0.0
H	-0.354186	-0.898884	0.507144
N	-2.107082	0.086591	-1.322441
O	-2.660212	-0.445387	-0.365939
O	-2.686005	0.671431	-2.233576
N	-0.024422	1.052581	-2.181225
H	-0.599	1.243607	-2.989781
H	0.068443	1.866458	-1.585045
N	-0.432014	1.249618	0.635799
H	-1.23201	1.089798	1.233438
H	0.33175	1.5971	1.201495
Br	3.601248	0.0	0.0
