17

C	-0.293235	-0.020228	-1.522169
C	0.0	0.0	0.0
Br	-2.189774	-0.553364	-1.834532
H	1.095503	0.0	0.0
C	-0.196656	1.349972	-2.039084
N	-0.115685	2.44885	-2.448074
N	0.556523	-0.865605	-2.31865
H	0.517195	-1.794613	-1.910817
H	1.513219	-0.538171	-2.157372
N	-0.425328	-1.300157	0.601795
O	-0.017433	-2.334212	0.071187
O	-1.154407	-1.277032	1.592706
C	-0.563922	1.168402	0.769872
H	-0.122493	2.089271	0.388249
H	-1.651874	1.220411	0.693684
H	-0.291341	1.074365	1.820283
Cl	3.243103	0.0	0.0
