17

C	-0.539804	0.034473	-1.452475
C	0.0	0.0	0.0
Br	0.443895	1.466655	-2.36986
H	1.090249	0.0	0.0
C	-0.204506	-1.222378	-2.132342
N	0.060313	-2.240169	-2.654856
N	-1.951953	0.296969	-1.657207
H	-2.160236	1.234033	-1.334055
H	-2.464965	-0.368639	-1.087534
N	-0.451556	-1.284924	0.633916
O	0.350445	-1.902375	1.322557
O	-1.630062	-1.623956	0.453114
C	-0.513502	1.131788	0.86927
H	-1.599459	1.0959	0.986347
H	-0.042247	1.058363	1.85133
H	-0.217199	2.085384	0.430099
Cl	3.340165	0.0	0.0
