17

C	-0.515789	-0.163159	-1.437078
C	0.0	0.0	0.0
Br	0.193715	1.340108	-2.495482
H	1.092571	0.0	0.0
C	0.030556	-1.36426	-2.091941
N	0.358901	-2.322736	-2.689639
N	-1.962792	-0.084798	-1.519231
H	-2.239922	-0.093962	-2.494171
H	-2.325816	-0.922963	-1.076326
N	-0.411197	-1.19238	0.817422
O	-1.102057	-2.075571	0.294193
O	-0.035162	-1.216061	1.98239
C	-0.503937	1.244447	0.710889
H	-0.109253	1.238396	1.726412
H	-0.117806	2.12805	0.205255
H	-1.595155	1.283348	0.724799
Cl	3.260603	0.0	0.0
