17

C	-0.560846	0.03643	-1.436146
C	0.0	0.0	0.0
Br	0.37321	1.511923	-2.347757
H	1.090392	0.0	0.0
C	-0.207112	-1.187839	-2.162201
N	0.013035	-2.182513	-2.747042
N	-1.980669	0.278559	-1.613047
H	-2.20616	1.193975	-1.242151
H	-2.471484	-0.431536	-1.080125
N	-0.448433	-1.256277	0.685869
O	-1.468835	-1.824552	0.272878
O	0.188952	-1.606883	1.670244
C	-0.467906	1.15195	0.878191
H	-0.179694	2.098948	0.42275
H	0.040653	1.073276	1.839186
H	-1.549261	1.131904	1.039599
Cl	3.293482	0.0	0.0
