17

C	-0.410287	0.025556	-1.471473
C	0.0	0.0	0.0
Br	-2.581833	-0.346887	-1.468658
H	1.097413	0.0	0.0
C	-0.42292	1.373401	-2.027487
N	-0.394731	2.445995	-2.507996
N	0.260035	-0.839698	-2.284368
H	0.025059	-0.819852	-3.263942
H	0.433384	-1.749297	-1.881177
N	-0.395307	-1.310377	0.610563
O	-0.139121	-2.335004	-0.024632
O	-0.907335	-1.302919	1.725246
C	-0.509326	1.15956	0.821972
H	-0.141301	2.088982	0.385556
H	-1.598648	1.178114	0.873232
H	-0.103276	1.081887	1.829238
Cl	3.199536	0.0	0.0
