17

C	-0.31225	-0.00648	-1.517007
C	0.0	0.0	0.0
Br	-2.212218	-0.544523	-1.807166
H	1.095073	0.0	0.0
C	-0.231197	1.367996	-2.024539
N	-0.155352	2.466997	-2.434221
N	0.528242	-0.841138	-2.335839
H	1.485771	-0.50863	-2.189704
H	0.500954	-1.772963	-1.932877
N	-0.416686	-1.304958	0.598704
O	-1.108119	-1.289218	1.616171
O	-0.035424	-2.335242	0.041527
C	-0.555202	1.161502	0.787958
H	-0.257141	1.064387	1.83113
H	-0.128657	2.087096	0.400687
H	-1.645041	1.206589	0.736755
Cl	3.239971	0.0	0.0
