13

C	0.0	0.0	0.0
C	-0.45505	-0.070135	-1.487643
Br	1.946655	0.0	0.0
H	0.442535	-0.201467	-2.104168
H	-0.311782	-0.885439	0.546026
C	-0.44011	1.188152	0.718051
N	-0.52392	2.171677	1.363863
N	-1.067009	1.175912	-1.916942
H	-1.284594	1.099065	-2.906446
H	-1.94225	1.205793	-1.382978
C	-1.273968	-1.279454	-1.710036
N	-1.740355	-2.278364	-2.127766
H	-2.277108	0.0	0.0
