13

C	0.0	0.0	0.0
C	-0.546	-0.296004	-1.412823
Br	1.942869	0.0	0.0
H	0.238348	-0.799339	-1.993217
H	-0.297444	-0.800542	0.676126
C	-0.426233	1.270767	0.573981
N	-0.526263	2.334097	1.075279
N	-0.879727	0.948836	-2.087693
H	-1.158332	0.713395	-3.035563
H	-1.719238	1.278484	-1.604149
C	-1.701461	-1.223449	-1.265008
N	-2.234706	-2.233075	-1.606909
H	-2.312343	0.0	0.0
