13

C	0.0	0.0	0.0
C	-0.397516	0.036058	-1.498084
Br	1.94288	0.0	0.0
H	0.391321	-0.478038	-2.061084
H	-0.322186	-0.930129	0.460433
C	-0.469275	1.140528	0.773183
N	-0.535286	2.125921	1.422009
N	-0.428182	1.416757	-1.964016
H	-1.255032	1.846033	-1.553781
H	-0.578473	1.394118	-2.967446
C	-1.671914	-0.677662	-1.752249
N	-2.325753	-1.314253	-2.518181
H	-2.205361	0.0	0.0
