13

C	0.0	0.0	0.0
C	-0.455193	0.004513	-1.489377
Br	1.950528	0.0	0.0
H	0.441907	-0.092505	-2.113277
H	-0.309525	-0.911645	0.501661
C	-0.437671	1.151551	0.776032
N	-0.519826	2.103709	1.467452
N	-1.071181	1.267725	-1.854949
H	-1.945685	1.266811	-1.319451
H	-1.290974	1.240697	-2.846975
C	-1.27034	-1.195788	-1.771262
N	-1.735648	-2.176227	-2.231949
H	-2.270266	0.0	0.0
