16

C	-0.339021	-0.019687	-1.484603
C	0.0	0.0	0.0
Cl	-2.172594	0.02934	-1.64266
H	1.09587	0.0	0.0
H	-0.364409	0.926523	0.463321
C	0.222418	1.19903	-2.183606
H	1.305707	1.214645	-2.027137
H	0.000821	1.148167	-3.250926
H	-0.204217	2.114566	-1.770467
N	0.115424	-1.223744	-2.133302
H	1.130529	-1.147692	-2.185781
H	-0.079056	-1.978836	-1.478434
N	-0.455258	-1.221081	0.658197
H	0.196301	-1.455311	1.395444
H	-1.372163	-1.088685	1.063704
Br	3.627033	0.0	0.0
