16

C	-0.451786	-0.1295	-1.456542
C	0.0	0.0	0.0
Cl	-0.094394	-1.825689	-1.9713
H	1.091572	0.0	0.0
H	-0.375469	-0.834149	0.604572
C	-1.939655	0.103058	-1.637505
H	-2.175876	1.125507	-1.33415
H	-2.203977	-0.031707	-2.686841
H	-2.517981	-0.595061	-1.026803
N	0.288853	0.754782	-2.338632
H	1.278881	0.543763	-2.212255
H	0.156858	1.684738	-1.945293
N	-0.413205	1.322633	0.498002
H	-1.216165	1.244252	1.107423
H	0.350143	1.709468	1.038307
Br	3.648035	0.0	0.0
