16

C	-0.468171	-0.045662	-1.456727
C	0.0	0.0	0.0
Cl	0.063591	1.552605	-2.219459
H	1.092069	0.0	0.0
H	-0.359132	0.928716	0.45788
C	0.220571	-1.142421	-2.241174
H	-0.083129	-2.111297	-1.836326
H	-0.055287	-1.101962	-3.298508
H	1.302222	-1.031892	-2.144596
N	-1.894354	-0.181328	-1.523406
H	-2.331338	0.619026	-1.077655
H	-2.19769	-0.204468	-2.490336
N	-0.456177	-1.149245	0.778053
H	0.208341	-1.906423	0.672646
H	-1.358206	-1.456698	0.431227
Br	3.740135	0.0	0.0
