16

C	-0.362296	0.044825	-1.482901
C	0.0	0.0	0.0
Cl	-2.280307	0.337605	-1.583776
H	1.094472	0.0	0.0
H	-0.369381	-0.941332	0.422829
C	0.25576	1.219854	-2.202373
H	1.340766	1.128666	-2.09321
H	-0.016388	1.22028	-3.261125
H	-0.077103	2.158899	-1.762364
N	-0.034205	-1.164381	-2.100857
H	-0.274047	-1.193214	-3.08135
H	-0.402352	-1.968781	-1.613781
N	-0.434769	1.115788	0.821222
H	0.215769	1.882874	0.718882
H	-1.360256	1.423075	0.551417
Br	3.682417	0.0	0.0
