16

C	-0.402876	0.010476	-1.484523
C	0.0	0.0	0.0
Cl	-0.011965	-1.604629	-2.208234
H	1.095247	0.0	0.0
H	-0.31994	0.974222	0.396507
C	-1.884116	0.237721	-1.70954
H	-2.099074	0.242812	-2.778117
H	-2.473051	-0.54661	-1.234447
H	-2.172701	1.202691	-1.279228
N	0.35555	0.9893	-2.236144
H	1.341405	0.855748	-2.018624
H	0.106461	1.904093	-1.873047
N	-0.501196	-1.049233	0.868444
H	-0.03373	-1.916795	0.631314
H	-1.498772	-1.182118	0.737431
Br	3.749746	0.0	0.0
