12
Coordinates from ORCA-job run
  C   1.03592707979028      0.27137855563356     -0.20688717368214
  C   -0.46517608263945      0.31239107033464      0.15516272822394
  Br  2.07089957210640     -0.76345733602376      1.06604003652754
  H   -0.91900692130444      1.01300629053585     -0.56644362326081
  H   1.44559869749689      1.28408333012289     -0.18923969763074
  C   1.17903750960388     -0.29175321874946     -1.54342047753751
  N   1.22444764511569     -0.73965836899293     -2.62870645966613
  C   -0.63589268737944      0.90355346009260      1.48564158935132
  N   -0.80340752868547      1.39896725808598      2.53639892088448
  N   -1.03121446161361     -1.02326159204795      0.11987082674104
  H   -1.91544988376199     -1.05396997753282      0.61025707530522
  H   -1.18476293872873     -1.31027947145860     -0.83967374525623
