12
Coordinates from ORCA-job run
  C   0.89622248969558      0.51768526606197     -0.34145764425170
  C   -0.54724614998819      0.17484118231496      0.08868621585232
  Br  2.16802017797656      0.29403700649608      1.10570680198856
  H   -1.17920326457233      0.44486458063318     -0.77465419497208
  H   0.94982583673101      1.56675996699260     -0.64195018375928
  C   1.26233122127005     -0.33243092254990     -1.46712513442450
  N   1.48610403525435     -1.03369579712768     -2.38297499529178
  C   -0.95016342001601      1.04343736058336      1.19866788476799
  N   -1.30489927605170      1.74431613372815      2.07068320225771
  N   -0.64190650948045     -1.21936832646710      0.47925837698740
  H   -0.65207342801830     -1.81087624840965     -0.34337691507457
  H   -1.48701171280057     -1.38957020225596      1.00853658591994
