12
Coordinates from ORCA-job run
  C   0.69898851805820     -0.02941367836136     -0.64623602216994
  C   -0.44776295148502      0.24642066489460      0.37003381304145
  Br  0.60281433370169      1.25152486111397     -2.11335199932003
  H   -0.28147955387977      1.24720080674523      0.78271354019164
  H   0.56294534779265     -1.01725819966239     -1.09373177910873
  C   2.00807275886548      0.05827687322517     -0.01689873704054
  N   3.05338355818937      0.15133553199261      0.51224087279053
  C   -0.30336509093218     -0.73121120118043      1.45907819458371
  N   -0.17018431495891     -1.54344634831850      2.29627053345357
  N   -1.79302475043843      0.18598675257705     -0.14883674973759
  H   -1.93694764017223      0.90169263918026     -0.84926905776720
  H   -1.99344021474083     -0.72110870220620     -0.55201260891689
