12
Coordinates from ORCA-job run
  C   0.97224174484605      0.41876622336495     -0.17558625815489
  C   -0.54097254600176      0.22816068184232      0.02491927459525
  Br  1.98371670001952     -0.56963539733823      1.16829467947778
  H   -1.02520537646833      0.80290471701418     -0.77379337781162
  H   1.24077904135751      1.46781325960556     -0.03211446588624
  C   1.36495932534309     -0.01300626387348     -1.50976451906174
  N   1.67736488816775     -0.31590375442310     -2.60064899140884
  C   -0.94807570797843      0.83138512286725      1.31139588683554
  N   -1.30936655611667      1.27828941270535      2.33614694442334
  N   -0.90296573341088     -1.16095007762212     -0.14840559290798
  H   -1.90510129174167     -1.25738990572859     -0.24903769880572
  H   -0.60537448801617     -1.71043401841409      0.64859411870513
