12
Coordinates from ORCA-job run
  C   0.67460258885531      0.54152299297721     -0.60207899694875
  C   -0.62269296276598      0.37156302450872      0.22931206970698
  Br  1.69018402033472      2.09696603056314     -0.02199185411214
  H   -1.18378006165686      1.30764638350362      0.13685818079608
  H   0.39514130141586      0.73394187156665     -1.64094431529312
  C   1.49046731640792     -0.66216958208005     -0.53475482709812
  N   2.09458088394284     -1.66825123796135     -0.47232567151057
  C   -0.28748063246795      0.18382338953375      1.64668709956596
  N   -0.01686430021955      0.00442201568270      2.77455996230384
  N   -1.46414577292244     -0.71879667138339     -0.21311096371502
  H   -0.99013429251746     -1.61086119311144     -0.13705828487337
  H   -1.77787808840641     -0.57980702379954     -1.16515239882179
