17

C	-0.007354	0.010127	0.005626
C	-0.58119	0.050795	-1.410714
F	1.405853	-0.022894	-0.052503
H	-1.696574	0.1238	-1.163296
C	-0.450012	1.196569	0.832838
H	-0.036708	1.127548	1.841881
H	-0.097915	2.116939	0.360782
H	-1.542664	1.137504	0.834531
C	-0.398596	-1.248984	0.670613
N	-0.543917	-2.265234	1.240522
C	-0.296556	-1.22387	-2.204015
H	0.767706	-1.477184	-2.198144
H	-0.619499	-1.104741	-3.241002
H	-0.865052	-2.04592	-1.764958
C	-0.080449	1.227019	-2.103029
N	0.30463	2.168602	-2.694176
F	-2.812445	-0.100567	-0.104542
