17

C	-0.006198	0.007657	0.005211
C	-0.582964	0.285932	-1.38294
F	1.406919	-0.013723	-0.060646
H	-1.6979	0.314847	-1.12504
C	-0.447575	1.037217	1.021598
H	-0.032399	0.798894	2.00373
H	-1.540202	0.978381	1.015383
H	-0.096305	2.024179	0.711115
C	-0.395245	-1.345857	0.449333
N	-0.539718	-2.443036	0.841757
C	-0.298456	-0.836175	-2.380436
H	0.766313	-1.084162	-2.420553
H	-0.625232	-0.544884	-3.381536
H	-0.863832	-1.721892	-2.084474
C	-0.084642	1.56282	-1.867569
N	0.2991	2.591651	-2.290131
F	-2.811076	-0.085684	-0.116132
