16
Coordinates from ORCA-job run
  C   -0.55570390012644      0.14367996368449     -0.34792968211008
  C   0.56717636819815     -0.10553588683430      0.34319994489575
  C   -0.83740155782470      0.00306264637233     -1.80525101051937
  H   -0.00439375045288     -0.44744108692810     -2.33818408977075
  H   -1.73353656263842     -0.60422707299148     -1.93782508334868
  H   -1.02499295763282      0.98960667141900     -2.23896870893042
  N   -1.72576129754740      0.59248451778015      0.42878720441966
  O   -1.58471838894911      1.56209848777372      1.17263981603129
  O   -2.76996903874704     -0.03164916245884      0.24970648780613
  N   1.73832352755755     -0.55093318499714     -0.43380835909941
  O   2.09381150081959      0.14165600676381     -1.38634231358849
  O   2.28873620060548     -1.58023175842424     -0.04705529011902
  C   0.82564557064636     -0.04178693221804      1.81018932504812
  H   1.54629015874749      0.75370333218728      2.02097968883378
  H   -0.08033476357034      0.16510551203978      2.37346353167933
  H   1.25682889091451     -0.98859205316841      2.13739853877216
