16
Coordinates from ORCA-job run
  C   -0.56832746371719      0.09246086182282     -0.34501788289134
  C   0.55714580563452     -0.13080752428649      0.35068216528267
  C   -0.82597507742691     -0.00428277948221     -1.81038933754910
  H   -1.26929919387503      0.92998133401275     -2.15679947609515
  H   0.08268206159553     -0.21092166455300     -2.36941371057333
  H   -1.53616107084961     -0.81325798468800     -2.00482257742798
  N   -1.74407955150785      0.54087416755841      0.42288001165973
  O   -2.30377568322925      1.55744156597639      0.01626310340990
  O   -2.09356983287936     -0.13650717625921      1.38839077691391
  N   1.73240678182854     -0.58215086170839     -0.41658709345617
  O   2.76968398444437      0.05655306208270     -0.24918100506329
  O   1.60228998777057     -1.56699504531033     -1.14214104071401
  C   0.83687074074226      0.04266182843938      1.80491769215998
  H   1.03562072122485     -0.93251973061714      2.25882780813493
  H   1.72584755089491      0.66291579194320      1.92498167616553
  H   -0.00135976065036      0.49455415506913      2.32840889004371
