16
Coordinates from ORCA-job run
  C   -0.56535628227206      0.10414899555995     -0.34650373223802
  C   0.55362937047084     -0.14318686652687      0.35162622009232
  C   -0.81474238633495      0.03805636535189     -1.81494580832500
  H   0.09504383650059     -0.16796028700943     -2.37237344338136
  H   -1.24513477513138      0.98386268786418     -2.14607504678430
  H   -1.53284775027895     -0.75873957617825     -2.02935951484864
  N   -1.74112890484342      0.55052172380847      0.42284828893862
  O   -2.10218085748673     -0.14013212942350      1.37463539447548
  O   -2.28924278876483      1.57911604521520      0.03098152683334
  N   1.72859528745218     -0.59197830723486     -0.41755606491116
  O   1.59318144055793     -1.56254183831944     -1.16114352551413
  O   2.77098429640543      0.03362932559732     -0.23307603978701
  C   0.82652184484111      0.00051886728388      1.81030470583055
  H   1.72126231043841      0.60895122670099      1.94703316335061
  H   -0.00993543604667      0.45162103446281      2.33728988625418
  H   1.01235079449252     -0.98488726715234      2.24731399001450
