16
Coordinates from ORCA-job run
  C   0.64524783032537     -0.09188600451848      0.18154583409965
  C   -0.59036016704175      0.26425889480859     -0.19385158477823
  C   1.15205066158712     -1.45105232474896      0.52552561848444
  H   1.91187081603450     -1.75148126346935     -0.19837339786952
  H   1.62272303892864     -1.43230994391677      1.51219681524631
  H   0.35466120322248     -2.19106758463182      0.53588673255488
  N   1.68755445823224      0.94624634674790      0.28255816130618
  O   2.73894613395205      0.70555381583196     -0.30563519100524
  O   1.44717823164473      1.93321949567547      0.97210276744854
  N   -0.85637079268898      1.67460820448051     -0.53269924207165
  O   -0.14659350023900      2.19995941366278     -1.38576730745147
  O   -1.81091451838484      2.19147518155433      0.04220145747708
  C   -1.80093177877084     -0.59513940545226     -0.32895972766025
  H   -2.56257692956575     -0.26605836295538      0.38042519606104
  H   -2.21705354404362     -0.49249424111866     -1.33493529186581
  H   -1.57643114319235     -1.64483222194985     -0.15222083997595
