16
Coordinates from ORCA-job run
  C   0.62745108678340     -0.06103408398449      0.24591436309741
  C   -0.57788490175822      0.23603498264473     -0.25796813805749
  C   1.14819175937541     -1.39070349961318      0.67392976819242
  H   0.38083983591202     -2.16055023645218      0.62870053281694
  H   1.52165666665083     -1.33040831667080      1.69972676772711
  H   1.98439535531649     -1.67862003519238      0.03389789569750
  N   1.61482053171730      1.01990403804588      0.41965566871385
  O   2.72785545837886      0.80779454496888     -0.05517685588053
  O   1.27078829509866      2.01159838741038      1.05672191243701
  N   -0.86174557558386      1.62569622758596     -0.66103270066768
  O   -1.88866953940748      2.11737554060040     -0.20012065134344
  O   -0.08902116774723      2.15881949113602     -1.45252434052096
  C   -1.73605518624998     -0.67449121495490     -0.48541352671496
  H   -2.05756716702420     -0.61161962476294     -1.52862490958516
  H   -2.57430369800673     -0.35997178438853      0.13927039617667
  H   -1.48975175345528     -1.70982441637284     -0.25995618208870
