16
Coordinates from ORCA-job run
  C   -0.58991110860887      0.24398008701004     -0.22204068853618
  C   0.64165605251996     -0.07129442118557      0.20054352392116
  C   -1.77932354723112     -0.64514378469685     -0.35196059951128
  H   -2.18223377519406     -0.57938323343714     -1.36624577030999
  H   -2.55916530009682     -0.31425003439568      0.33654066947181
  H   -1.53403849292724     -1.68422412615704     -0.14302083225815
  N   -0.87459619104574      1.63548686931656     -0.61808427921277
  O   -0.14650978201938      2.14908551223407     -1.46274458856625
  O   -1.85953120358312      2.14912130651944     -0.09374022715541
  N   1.65993512417360      0.99141768796827      0.28964247267514
  O   1.38464738300415      1.99248628089652      0.94494649289480
  O   2.72796241126570      0.75592284697385     -0.26956409497497
  C   1.16647596098651     -1.40553421836027      0.60857507331356
  H   1.95272530103413     -1.71524252382824     -0.08248972078359
  H   1.60832398205561     -1.34064572559208      1.60657168701329
  H   0.38458318566669     -2.16178252326586      0.62407088201883
