14

C	-0.545251	-0.007471	-1.415574
C	0.0	0.0	0.0
Br	0.497624	1.112657	-2.595981
H	1.089576	0.0	0.0
H	-1.575409	0.324506	-1.495798
N	-0.508015	-1.399497	-1.97703
O	-1.498671	-1.747687	-2.620951
O	0.498234	-2.066904	-1.779553
C	-0.495393	-1.118922	0.775363
N	-0.892951	-2.040268	1.389376
N	-0.420478	1.246629	0.695586
O	-0.054804	1.372253	1.859091
O	-1.088617	2.077052	0.075177
F	2.42235	0.0	0.0
