14

C	-0.509272	0.203768	-1.41589
C	0.0	0.0	0.0
Br	0.647173	1.328681	-2.48961
H	1.107328	0.0	0.0
H	-1.50101	0.644296	-1.464568
N	-0.60631	-1.122797	-2.118689
O	0.374454	-1.853815	-2.100738
O	-1.68141	-1.359875	-2.67238
C	-0.495166	-1.218526	0.600052
N	-0.886381	-2.225037	1.067072
N	-0.397841	1.14435	0.849234
O	-0.779065	2.177062	0.291773
O	-0.26587	1.009758	2.062805
F	2.409166	0.0	0.0
