14

C	-0.540328	-0.244711	-1.383404
C	0.0	0.0	0.0
Br	-2.489378	-0.245231	-1.485917
H	1.107552	0.0	0.0
H	-0.219846	-1.238209	-1.696371
N	0.048498	0.684689	-2.442908
O	1.236829	0.474092	-2.65216
O	-0.660975	1.501898	-3.007702
C	-0.403402	-1.075613	0.879982
N	-0.683181	-2.004909	1.544294
N	-0.395514	1.304786	0.556129
O	-0.470916	2.239324	-0.24135
O	-0.539691	1.396644	1.773779
F	2.407049	0.0	0.0
