14

C	-0.540202	0.222504	-1.402234
C	0.0	0.0	0.0
Br	0.676439	1.206056	-2.542738
H	1.107545	0.0	0.0
H	-1.480111	0.766309	-1.414201
N	-0.818205	-1.102601	-2.05776
O	0.116663	-1.876709	-2.210426
O	-1.989999	-1.306491	-2.37474
C	-0.498917	-1.209638	0.614284
N	-0.894639	-2.209489	1.093733
N	-0.355581	1.154938	0.859139
O	-0.686753	2.206501	0.30642
O	-0.228079	1.008848	2.07167
F	2.409227	0.0	0.0
