14

C	-0.570285	-0.002208	-1.4054
C	0.0	0.0	0.0
Br	0.295668	1.3211	-2.517356
H	1.106857	0.0	0.0
H	-1.639686	0.199576	-1.439949
N	-0.394072	-1.348625	-2.05919
O	0.610304	-1.993091	-1.793434
O	-1.289272	-1.677962	-2.837197
C	-0.57327	-1.099099	0.751864
N	-1.021103	-2.008623	1.347121
N	-0.499339	1.284082	0.62234
O	0.334213	2.121805	0.945904
O	-1.720897	1.414795	0.745133
F	2.452505	0.0	0.0
