13

C	-0.177351	-0.013009	-1.552727
C	0.0	0.0	0.0
F	-0.215112	-1.353759	-1.928187
H	1.095674	0.0	0.0
H	-1.128941	0.427827	-1.869201
N	0.918909	0.629001	-2.186676
H	1.754283	0.512523	-1.590481
H	0.723853	1.607599	-2.341082
C	-0.612949	-1.108603	0.699842
N	-1.11092	-2.004245	1.275591
C	-0.44859	1.282124	0.511568
N	-0.781305	2.349265	0.876456
F	2.551452	0.0	0.0
