13

C	-0.303019	0.08301	-1.499108
C	0.0	0.0	0.0
F	0.001129	1.371225	-1.915062
H	1.095996	0.0	0.0
H	0.422651	-0.562607	-2.006253
N	-1.671791	-0.185184	-1.830846
H	-1.757253	-0.590699	-2.752407
H	-2.103854	-0.798898	-1.155716
C	-0.447088	-1.272938	0.531009
N	-0.808047	-2.324921	0.915331
C	-0.563544	1.109383	0.74357
N	-0.994349	2.011017	1.36287
F	2.464371	0.0	0.0
