13

C	-0.338965	0.015691	-1.487523
C	0.0	0.0	0.0
F	0.142139	1.230506	-2.002684
H	1.09528	0.0	0.0
H	0.234112	-0.772467	-1.979536
N	-1.727236	-0.137821	-1.755709
H	-2.245292	0.592705	-1.281488
H	-1.897326	-0.055564	-2.750125
C	-0.457463	-1.231031	0.620308
N	-0.788481	-2.245356	1.114044
C	-0.556064	1.162561	0.666019
N	-1.011223	2.118838	1.177746
F	2.467728	0.0	0.0
