12
Coordinates from ORCA-job run
  C   -0.55569307690947     -0.25549746635968      0.29286675883583
  C   0.58411079480029      0.17022460258021     -0.29839905449493
  C   -0.76206552812323     -0.40628472391161      1.68677345710171
  N   -0.98998363777865     -0.54806417695329      2.83501404799886
  N   -1.75255092923312     -0.53353492296995     -0.54620636748153
  O   -2.81798612893845     -0.16666719743079     -0.06639525310335
  O   -1.55963149938049     -1.09124155051197     -1.61858243863140
  N   1.75400217935175      0.53465906709986      0.54549997058991
  O   1.97412217379739     -0.17055008243166      1.52144551486685
  O   2.37991155850432      1.51714143808241      0.16722888633732
  C   0.76867970070341      0.37801630208044     -1.68813909894609
  N   0.97808439320627      0.57279871072602     -2.83210642307318
