12
Coordinates from ORCA-job run
  C   -0.54854078448675     -0.26253201092715      0.30200070544126
  C   0.58209992482779      0.19448656990302     -0.28253511357397
  C   -0.77814834613727     -0.41403199161687      1.69194889378270
  N   -1.04626486590241     -0.56208585503914      2.83111919834643
  N   -1.71625761712996     -0.59120639063260     -0.55954562574795
  O   -2.78757104756303     -0.14343014787565     -0.17133824183780
  O   -1.49453223988786     -1.27062840127816     -1.55358083774312
  N   1.74849445059989      0.59575747739463      0.55155849938380
  O   1.88753933695351      0.02490938909387      1.62471320604156
  O   2.45414045841235      1.47451012970878      0.07041853520550
  C   0.75654817354996      0.38630139186887     -1.67721535986033
  N   0.94149255676378      0.56794983940040     -2.82754385943808
