12
Coordinates from ORCA-job run
  C   0.56709785805824      0.41830321518072     -0.10104553882722
  C   -0.69836629737114      0.01317587555221      0.14027188449011
  C   0.95490048647930      1.78030235427671     -0.14337271367029
  N   1.27709581418606      2.91461729367237     -0.16551809067072
  N   1.64926705953181     -0.56213170100906     -0.35135531299888
  O   1.79883794302742     -1.43710236836670      0.49025894360656
  O   2.29295570608102     -0.36823067256842     -1.37378088024521
  N   -1.04774184712239     -1.42713136331207      0.15625343639940
  O   -0.64545831034586     -2.09816117337034     -0.78431975759980
  O   -1.72213276253710     -1.78473031554772      1.11290496828690
  C   -1.76733270277162      0.90523220873050      0.40333386519431
  N   -2.65912294721574      1.64685664676180      0.61636919603483
