12
Coordinates from ORCA-job run
  C   0.54952976125740      0.40261731102249     -0.20905874137711
  C   -0.66327726256809      0.03116925639594      0.25459644862214
  C   0.95271690491869      1.75469948433342     -0.34086974456550
  N   1.28085690954965      2.88113041698436     -0.45962787358705
  N   1.55663453830330     -0.60869567085697     -0.60665250212044
  O   2.67722738325370     -0.42994675031633     -0.14787982906112
  O   1.17374034201792     -1.49693882231955     -1.35575000507901
  N   -1.02553769325542     -1.39919230514522      0.38891425925508
  O   -2.08435738625318     -1.71421505951894     -0.13732635497460
  O   -0.24918472642217     -2.10234580158158      1.02075913413334
  C   -1.66844712942539      0.95493126863990      0.63419654382687
  N   -2.49990164137641      1.72578667236249      0.95869866492740
