12
Coordinates from ORCA-job run
  C   -0.62355466305753     -0.21781390325597      0.14262075089151
  C   0.62407728981449      0.21724777583320     -0.14706509022737
  C   -1.75040823559051     -0.14210520903453     -0.71345496609647
  N   -2.72242271124905     -0.12550644380502     -1.38089408823881
  N   -0.90141630705167     -0.80776699637532      1.48016702135297
  O   -1.98038449046228     -0.49198613059243      1.96637284745582
  O   -0.03953403416378     -1.53129363309414      1.96127506193939
  N   0.90546512710135      0.80541312092929     -1.48445798498431
  O   1.99489914133282      0.50638828144655     -1.95779727222998
  O   0.03578674906100      1.51040744660537     -1.97884548516799
  C   1.74812268236961      0.14266591269393      0.71317674222678
  N   2.70736945189552      0.13434977864908      1.39890246307846
