12
Coordinates from ORCA-job run
  C   0.63882378043383      0.12615224988227     -0.20026025758875
  C   -0.60256246625635     -0.14987291094860      0.26389409570896
  C   1.01860235126386      0.00779753500890     -1.56225571975010
  N   1.34172243016562     -0.06863251288149     -2.69358495129030
  N   1.71815483342333      0.59792891777986      0.71322573409770
  O   2.79651990195916      0.82584005727534      0.17740362403456
  O   1.43586992934757      0.71074132215713      1.89776611173826
  N   -1.63984272610624     -0.57465847318604     -0.71702883342294
  O   -2.68057724432972      0.06832966764750     -0.67072507246576
  O   -1.35543242309851     -1.50743886078097     -1.45651382713698
  C   -1.08369860351128     -0.03811304735119      1.59144594012234
  N   -1.58857976329127      0.00192605539730      2.65663315595301
