12
Coordinates from ORCA-job run
  C   -0.67801369284957      0.00682016013620      0.21747304028551
  C   0.58596428451403      0.40064679105461     -0.04896945943233
  C   -1.65241806289275      0.85638892767355      0.79776332408943
  N   -2.46060805340196      1.56337674081674      1.28535820520675
  N   -1.13240836621582     -1.36744170937905     -0.09845161657314
  O   -2.18376218568131     -1.43340274981208     -0.72138315298029
  O   -0.42813187528015     -2.28232464160927      0.30622275788248
  N   1.55940341504884     -0.52451933486123     -0.67469188209057
  O   1.19430928347175     -1.09558835274617     -1.69303011324563
  O   2.63945521390610     -0.59984662209135     -0.10415340900129
  C   1.07705325499211      1.69635259143720      0.24794773207988
  N   1.48015678438874      2.77853819938086      0.48691457377918
