12
Coordinates from ORCA-job run
  C   0.63794835883509      0.13458531795001     -0.15108934904442
  C   -0.62574437175584     -0.22455576491442      0.16009342801094
  C   1.81904381200568     -0.16724843384079      0.56789008236933
  N   2.82750117904230     -0.42602822763882      1.12335491747343
  N   0.85315774567316      0.94145974742195     -1.37875282601715
  O   1.18699208890174      2.10158294612189     -1.18835016498044
  O   0.70912141136766      0.34503105691511     -2.43915992308894
  N   -0.91858935752080     -0.96808518992652      1.41464935865164
  O   -2.03169245428163     -0.75843059827473      1.87710477836617
  O   -0.03010846140299     -1.67669219789644      1.86475536257678
  C   -1.75682847598882      0.15731943698781     -0.60561604593597
  N   -2.67080147487557      0.54106190709493     -1.24487961838138
