12
Coordinates from ORCA-job run
  C   -0.68859308881391      0.01083329702441      0.21015687536740
  C   0.60128975507240      0.34297580179059     -0.02727611038445
  C   -1.59918666755685      0.90802189893256      0.82554837153157
  N   -2.33541448067913      1.67473914110506      1.33605654802045
  N   -1.24393949717793     -1.31036294141731     -0.16887754406051
  O   -0.43856214912895     -2.19091776431595     -0.44225827023191
  O   -2.46698331604209     -1.39222927579077     -0.15966426959613
  N   1.56699181987546     -0.56372784293127     -0.69243873253670
  O   2.35673972462783     -1.11645790479301      0.05732598664888
  O   1.49898348298763     -0.60821205639628     -1.91048865913381
  C   1.14095211533832      1.60221306922670      0.33629889574739
  N   1.60872230149722      2.64312457756527      0.63561690862783
