12
Coordinates from ORCA-job run
  C   0.58137209154327      0.36358594776026     -0.18968800861409
  C   -0.70390519764285      0.05919103191070      0.09174498908096
  C   1.00497268126903      1.65202432582132     -0.60018505241327
  N   1.35586928079494      2.72207451520647     -0.95043230856687
  N   1.65071034420991     -0.65509720708287     -0.07428013968931
  O   1.45851304881886     -1.71711882979891     -0.65024527212960
  O   2.62616786656427     -0.30716915535735      0.57782271577954
  N   -1.08677342310666     -1.30205969998804      0.53342964013175
  O   -2.03048347688619     -1.79441439474690     -0.07062835532255
  O   -0.44001981655216     -1.77988661141292      1.45554607992230
  C   -1.76704776991166      0.98957270286875     -0.01821948838839
  N   -2.64937562910076      1.76729737481946     -0.10386479979046
