12
Coordinates from ORCA-job run
  C   0.55104378056921      0.35727711730866     -0.27624400123567
  C   -0.67787534210852      0.05576472489443      0.19610560895937
  C   0.90209606313865      1.64903397146008     -0.74218865598129
  N   1.17203064468541      2.74351461651947     -1.08842637071725
  N   1.62296159831222     -0.66266064379431     -0.32322948206534
  O   1.83234874594842     -1.28344779789505      0.70982067356218
  O   2.20545089371284     -0.75132410193653     -1.39632218120171
  N   -1.00055220114933     -1.30765593003850      0.67378770258793
  O   -1.53405891425730     -1.35658802807270      1.77453698683729
  O   -0.73081365095454     -2.23082142578737     -0.08243761924796
  C   -1.73350481899222      0.99912188741585      0.26473502833160
  N   -2.60912679890485      1.78878560992596      0.29086231017086
