12
Coordinates from ORCA-job run
  C   0.56171244414103      0.41120866895900     -0.14790713954192
  C   -0.67264905444123      0.01744068523987      0.23311347716642
  C   0.98758704825351      1.76263990881797     -0.13338298755807
  N   1.33692418819934      2.88898666495148     -0.13091461754310
  N   1.56977047241793     -0.57300531356779     -0.60606789994290
  O   2.66524360065407     -0.47729035799635     -0.06878855227978
  O   1.21338102387844     -1.35701777452737     -1.47486071126820
  N   -1.05787213117874     -1.41285258128222      0.21332720835843
  O   -2.11474630514663     -1.65464533495520     -0.35442897012748
  O   -0.29918869025340     -2.19131839201092      0.77455173395380
  C   -1.67898258102773      0.91731336917897      0.66377466901295
  N   -2.51118001549656      1.66854045719256      1.02958378976987
