12
Coordinates from ORCA-job run
  C   -0.66072932682414      0.03774013229941      0.24933233155242
  C   0.54303529962580      0.39199537443356     -0.25086863500370
  C   -1.67940816925003      0.97302000119304      0.55752476690659
  N   -2.52752790735722      1.74986935004545      0.81843404899141
  N   -0.99771397774837     -1.37836751501417      0.52347107638436
  O   -0.99345723578273     -2.13360589076098     -0.43767370780095
  O   -1.27102839843063     -1.62457498184092      1.68975172198339
  N   1.58058041595565     -0.62620895719247     -0.53736099689323
  O   2.22377978074354     -0.44111113522204     -1.56292606830561
  O   1.70018334209820     -1.53189854274495      0.27741386021813
  C   0.89662934246863      1.73226037087474     -0.54805622532427
  N   1.18465683450129      2.85188179392934     -0.78004217270854
