12
Coordinates from ORCA-job run
  C   0.53593408034989      0.38383436525148     -0.27669615469411
  C   -0.64715444143690      0.05052638617153      0.28293846159013
  C   0.89690401605971      1.71688399133883     -0.59511267002299
  N   1.19499910001700      2.82962934385958     -0.84704483270279
  N   1.54119765811161     -0.65234170424386     -0.60911909022462
  O   1.75960565548237     -1.49903695848668      0.24688150055200
  O   2.05806537099315     -0.53727925981912     -1.71296298285317
  N   -0.98796494867819     -1.36102642641092      0.57931196879778
  O   -1.31035929957642     -1.57916748400789      1.73906034429810
  O   -0.93569009482242     -2.14315421734321     -0.35926971093563
  C   -1.63769303913946      1.00115794846623      0.63347373551496
  N   -2.46684405736034      1.78997401522403      0.91853943068034
