12
Coordinates from ORCA-job run
  C   -0.65647052448726      0.03432931936848      0.27461116298981
  C   0.53187553173886      0.39895484475549     -0.25328486185200
  C   -1.66137654234509      0.96184355875947      0.64591318634165
  N   -2.49991109935287      1.73538089960942      0.94458326399221
  N   -0.98197399459400     -1.39151658825623      0.51084749224828
  O   -1.40541074961691     -1.64550033058119      1.63064167512613
  O   -0.81335911774258     -2.15404182607886     -0.43079814802293
  N   1.55350890527561     -0.61410673322415     -0.60699085569926
  O   2.01503885816448     -0.50936492744363     -1.73555905051921
  O   1.83918703444108     -1.42813605891859      0.26035485676285
  C   0.88871718554873      1.74514989066504     -0.51464547748302
  N   1.18917451296998      2.86600795134473     -0.72467324388450
