12
Coordinates from ORCA-job run
  C   0.59168393513488      0.39225850075631     -0.12604699141684
  C   -0.67283180761630     -0.00642459401380      0.14609537646371
  C   0.94550690701782      1.76590968042178     -0.19585716682120
  N   1.20209932366456      2.91543440141449     -0.24692359087648
  N   1.69309194239010     -0.56995211790183     -0.37062386762307
  O   1.41051743733413     -1.75941368907680     -0.31251432131723
  O   2.78705821795600     -0.07183612986788     -0.60897988936820
  N   -1.09073708436998     -1.42623110693786      0.22935266939128
  O   -1.03817030251881     -1.92085793832801      1.34414855190712
  O   -1.50043149372446     -1.91175920633216     -0.81291964781904
  C   -1.72226576969516      0.91804695055907      0.37928628645250
  N   -2.60652130557280      1.67382524930670      0.57598259102744
