12
Coordinates from ORCA-job run
  C   -0.66534777321402     -0.00571885622488      0.17656660089658
  C   0.59262172061219      0.39160566497394     -0.12515482238761
  C   -1.68527005294698      0.91455615571333      0.52726458253183
  N   -2.54537236482000      1.66673327705689      0.82120622793044
  N   -1.10667647655423     -1.42113926124331      0.17508511718725
  O   -1.55969486742886     -1.82617534009918     -0.88360083761484
  O   -1.02621368286043     -1.99287773416354      1.25060018906040
  N   1.66231076306550     -0.56817299513089     -0.49189928241133
  O   2.74738251042389     -0.07015154212057     -0.76774923413746
  O   1.36543217603384     -1.75551108225412     -0.48333792926909
  C   0.97034519702626      1.76037943143097     -0.11095435085218
  N   1.24948285066284      2.90547228206137     -0.08802626093399
