12
Coordinates from ORCA-job run
  C   -0.66322156388622      0.02863926495808      0.25687101277236
  C   0.53972957619392      0.40339891197853     -0.22922516077913
  C   -1.67716173068744      0.94906853335115      0.62126019514615
  N   -2.52279060742338      1.71720260706911      0.91379511087793
  N   -0.99713473969384     -1.40151037392922      0.45059026965577
  O   -0.80338206218442     -2.14247985296216     -0.50339712542475
  O   -1.45214521955098     -1.68047114619642      1.55194927859427
  N   1.56971468299788     -0.60238613621273     -0.57842301846403
  O   2.06230994379991     -0.47146876066657     -1.69108848731906
  O   1.83083751214969     -1.43727813534695      0.27681111509987
  C   0.90439211637833      1.75504144625011     -0.44853038066734
  N   1.20885209190655      2.88124364170707     -0.62061280949203
