12
Coordinates from ORCA-job run
  C   -0.67088332984837     -0.00331744497363      0.15178590028397
  C   0.59474731638929      0.39018390041103     -0.12201433852280
  C   -1.71169361533079      0.92429830128328      0.41016218006599
  N   -2.58882989752122      1.68239620528554      0.62854638400770
  N   -1.10041045905521     -1.42103322641419      0.21063716585247
  O   -1.50629085256825     -1.88785264625540     -0.84178481662970
  O   -1.06069053138134     -1.93204335906300      1.31855606385269
  N   1.68585144442501     -0.57646909452995     -0.39367488810140
  O   2.77529283391864     -0.08286856807967     -0.66024731051987
  O   1.40015507650124     -1.76476536404377     -0.32746634575712
  C   0.95899879740824      1.76184547510204     -0.17128622092333
  N   1.22575321706279      2.90962582127771     -0.20421377360860
