12
Coordinates from ORCA-job run
  C   0.63373088745325      0.16472291115225     -0.17598462212019
  C   -0.61854961880851     -0.24332306265181      0.13251777148237
  C   1.78696357370099     -0.01845186729518      0.62721033589680
  N   2.77799482889349     -0.13839597595513      1.25487318698821
  N   0.86206727340561      0.94266916397127     -1.42345160200616
  O   1.66518371335117      1.86171175342341     -1.32127924331668
  O   0.23284970674407      0.59688290041392     -2.41480920456080
  N   -0.86173784415695     -0.94397217444689      1.42245239446184
  O   -1.89951854193466     -0.63242808777677      1.99347825826776
  O   -0.01327419806989     -1.74847330048885      1.78444287431311
  C   -1.78202670258925     -0.00674114418883     -0.64130370900483
  N   -2.78368307798934      0.16579888384262     -1.23914644040144
