12
Coordinates from ORCA-job run
  C   0.60651760106673      0.10462424990571     -0.28381159747707
  C   -0.58215559907357     -0.19046572134544      0.29065370565701
  C   0.87189120229813      0.12240582285587     -1.67588329533365
  N   1.14730433807305      0.14995435294026     -2.82211608707586
  N   1.74853841110538      0.52461587888927      0.57219582008837
  O   1.88360793437308     -0.05751269075271      1.64043720969839
  O   2.44095276270575      1.42224631191796      0.10856075102697
  N   -1.74753506317830     -0.52109243690367     -0.57292810060508
  O   -1.52997004065044     -1.22223633535162     -1.55240087749116
  O   -2.81514044175285     -0.04590319304160     -0.20617195514129
  C   -0.86646419847436     -0.15060752020570      1.67842004427615
  N   -1.15754690649261     -0.13702871890832      2.82104438237723
