12
Coordinates from ORCA-job run
  C   -0.64889112609308      0.03702812046622      0.27949156382524
  C   0.54078486125048      0.39868453150739     -0.24786280602849
  C   -1.65595559784374      0.96801646391448      0.63531040985731
  N   -2.50033717124202      1.74073290677912      0.92088350297618
  N   -0.98605321470610     -1.38689259668886      0.51731515670956
  O   -1.31188354516488     -1.65361954564250      1.66558261120491
  O   -0.93478720659325     -2.12677876330834     -0.45472323574813
  N   1.55706411033734     -0.62144367301069     -0.60037208566503
  O   1.74986410969091     -1.50923903040486      0.21933778549027
  O   2.10407901218312     -0.45541832108216     -1.68297229340326
  C   0.89638292212024      1.74273333208559     -0.52150386655999
  N   1.18973284606100      2.86519657538461     -0.73148674265857
