12
Coordinates from ORCA-job run
  C   0.55630108992433      0.40682597782376     -0.17878708202300
  C   -0.68221824107852      0.02474377096460      0.20074936124636
  C   0.94339412316202      1.76249837681048     -0.32152334820659
  N   1.26052113943006      2.89142725701658     -0.44646075799043
  N   1.61044195727978     -0.59404268590132     -0.46510739158493
  O   1.31198293516776     -1.49815659098749     -1.23325353095218
  O   2.68031132022934     -0.39078417523432      0.09328906077714
  N   -1.02748860456530     -1.40783389992702      0.35273488100131
  O   -0.27718804397945     -2.08045775551175      1.04638867163412
  O   -2.04812606106678     -1.75654245507825     -0.22554835515879
  C   -1.73042453630202      0.93901674443618      0.47127826120249
  N   -2.59750707820125      1.70330543558856      0.70524023005451
