12
Coordinates from ORCA-job run
  C   -0.69110490187143      0.03965677515663      0.16426453284993
  C   0.57021384651873      0.39446365459830     -0.16281508846471
  C   -1.74032651948606      0.97410345498140      0.34820701381034
  N   -2.60866250311622      1.75512100413354      0.51181273519295
  N   -1.06190110129954     -1.38300189844208      0.34605903365416
  O   -0.36012430815432     -2.03834127555316      1.10402615639788
  O   -2.05241654399899     -1.74128567121174     -0.27698527061152
  N   1.62436259703132     -0.62788818242742     -0.35852742068785
  O   1.35226490612304     -1.55804565325771     -1.10520186062664
  O   2.66842022583462     -0.41464935478325      0.24341217182339
  C   0.98210861946474      1.73971739878894     -0.33186435732958
  N   1.31816568295410      2.86014974801656     -0.48138764600836
