12
Coordinates from ORCA-job run
  C   0.64982118923067      0.12781113654158     -0.14760920204505
  C   -0.64050362364495     -0.19767256067585      0.09412492854965
  C   1.76546298559003     -0.27450407493936      0.62789378254548
  N   2.72742836873779     -0.57997809774925      1.23769489532682
  N   0.97369945012983      1.04191043309441     -1.27597897374050
  O   1.86175792498000      1.85394326198326     -1.04751216025515
  O   0.32865309498280      0.89887405589326     -2.30645649116854
  N   -0.97199295490014     -1.03817348959619      1.27627617856590
  O   -0.21295552435121     -1.96560410625125      1.52599111491232
  O   -1.98179585819624     -0.70434513928161      1.88336848840719
  C   -1.76312535344576      0.24823896242709     -0.64675643258798
  N   -2.73544969911281      0.58949961855393     -1.22003612851012
