12
Coordinates from ORCA-job run
  C   -0.68757053237022      0.02185139641852      0.18246876243860
  C   0.56303788320631      0.40937180653147     -0.14875855213200
  C   -1.74109253336056      0.93253001888398      0.44462032046369
  N   -2.61249413537631      1.69548601017967      0.66661497683151
  N   -1.04128650243988     -1.41315601934928      0.28419369342883
  O   -2.04653594287642     -1.74158445590530     -0.33169957594257
  O   -0.31224104226126     -2.10800418011870      0.97862050140299
  N   1.62227648318899     -0.58750913272794     -0.42973052822967
  O   2.67524817842958     -0.40352623395320      0.16628490211375
  O   1.34475226252451     -1.46916187978329     -1.23114776555647
  C   0.95832625601597      1.76685270962849     -0.24386464186145
  N   1.27857962531929      2.89784996019559     -0.33860209295723
