12
Coordinates from ORCA-job run
  C   0.56351557184959      0.40397200910944     -0.16403174632391
  C   -0.68808282464562      0.03069713837496      0.17728106542883
  C   0.95450541823669      1.75510584087100     -0.33367056238652
  N   1.27448568420592      2.88014430868723     -0.48130125315422
  N   1.62236491675897     -0.60587243050814     -0.38967313509955
  O   1.34529628348543     -1.53434695683006     -1.13773006211978
  O   2.67510044867544     -0.38707268035465      0.19525901612472
  N   -1.04059966387642     -1.40057837216381      0.33751687405504
  O   -0.35450867531145     -2.04890714724727      1.11375990270549
  O   -2.00290187152956     -1.76910497613286     -0.32181915049784
  C   -1.73979075039641      0.95152038992412      0.40315401633669
  N   -2.60838453745259      1.72444287627002      0.60125503493105
