18
Coordinates from ORCA-job run
  C   -0.78593102208279     -0.32063738405986      0.12574104097400
  C   0.73677635052993     -0.50098767352272     -0.00008847197241
  Br  -1.63191701429015     -1.84920562017412     -0.91272382494468
  H   1.00657985561284     -1.43825323629385      0.49129251666036
  N   -1.09281102411009     -0.40710100620433      1.51036596734819
  H   -0.86392614132919     -1.31677507433604      1.89335121243451
  H   -2.07383924322633     -0.22178649682022      1.67928531272512
  C   -1.35703285474913      0.95903061386582     -0.45400224810994
  H   -0.95646367284832      1.81401542277021      0.09535740459713
  H   -2.44335442992488      0.95206809137620     -0.34210785449748
  H   -1.11585976598793      1.05956030458818     -1.50863873010592
  C   1.52261099511518      0.66691513690625      0.57569332464185
  H   1.20378489476141      0.84724159073829      1.60142991218534
  H   2.58892129456435      0.42954850185654      0.56903219440247
  H   1.36692163846456      1.56667525520023     -0.01872217850845
  N   1.17573387395424     -0.70218769537883     -1.41876290785513
  O   0.99961038789009      0.22997773243284     -2.20092722072408
  O   1.72019587765620     -1.76909846294461     -1.68957544925088
