18
Coordinates from ORCA-job run
  C   -0.82759314722943     -0.17938639602178     -0.03691292556401
  C   0.72164652853012     -0.16274209120841      0.09489331231759
  Br  -1.27013254766696     -0.38945121438848     -1.95490160952009
  H   0.91981235208614     -0.25672494489089      1.16824127848265
  N   -1.49633195560482     -1.23589585317394      0.66775271443233
  H   -1.52117673448693     -1.02334713018741      1.65922655555545
  H   -1.02657150007323     -2.12354386748446      0.53726276544337
  C   -1.40312737067562      1.14927109918915      0.42812986017576
  H   -2.49079656869067      1.07668909089397      0.40614859309926
  H   -1.08223224564303      1.35048627660274      1.45728357106506
  H   -1.09316574465383      1.97711686387775     -0.20609432879430
  C   1.43215137257915      1.04250971796063     -0.48328146435377
  H   2.51230374484885      0.90223493714674     -0.42786779570424
  H   1.16295200812217      1.19493890038385     -1.52751393466488
  H   1.17690329997669      1.93223216204775      0.09306223215345
  N   1.29432443147063     -1.42862026269878     -0.48363278850082
  O   1.91971753323389     -1.35939296988209     -1.53617542084670
  O   1.07331654387688     -2.46737431816634      0.14337938522388
