18
Coordinates from ORCA-job run
  C   -0.76286488575592     -0.43109043239533      0.09735729767925
  C   0.76889108163522     -0.52871129259241     -0.02862439463261
  Br  -1.52346879446407     -2.03030547829181     -0.75987053621387
  H   1.06021139746467     -1.50049816367981      0.36820094570991
  N   -1.04024532629681     -0.55250000091232      1.52721239202786
  H   -1.96956164221960     -0.93285967660861      1.66186428707760
  H   -1.03367890076628      0.37740283503838      1.93637965354010
  C   -1.40590327341803      0.78719142382396     -0.54871381715505
  H   -2.48101412148739      0.75682817474141     -0.36172480672283
  H   -1.23342622894646      0.83304844980845     -1.62195609308035
  H   -1.00200193733899      1.69814286143679     -0.09658719767391
  C   1.50934138794675      0.59096565321439      0.68503583320047
  H   2.58528224052160      0.45179444644024      0.55867420740883
  H   1.24644374092089      1.56871647918599      0.28262590010457
  H   1.29134103739654      0.54981506659254      1.75223760479870
  N   1.21115263812918     -0.54529490917521     -1.46052871324777
  O   1.10706691146237      0.50451294664620     -2.09567291639460
  O   1.67143467521633     -1.59815838327283     -1.89590964642630
