18
Coordinates from ORCA-job run
  C   -0.85567615750093     -0.37780169571043      0.05178422846436
  C   0.68162876028917     -0.53550597535920     -0.01795915235700
  Br  -1.61708969218081     -1.89171340663771     -0.97148839289499
  H   0.93472082810353     -1.49823393143569      0.43118692568644
  N   -1.33856529669758     -0.51567880701207      1.40122450387771
  H   -0.92749279765522     -1.30707104092544      1.88134448546095
  H   -1.18735637068676      0.33371358086241      1.93094282501244
  C   -1.40552689624592      0.91014465185775     -0.53200666711861
  H   -1.13508006746502      1.02525526437452     -1.57823475360719
  H   -2.49075981206572      0.89576004467389     -0.43069708141572
  H   -1.01546337996602      1.76869505481196      0.02388472510568
  C   1.44147087996748      0.59783616352443      0.65415729374853
  H   1.13178872946606      0.70083590934629      1.69473497902915
  H   2.51121572459055      0.37728818043073      0.64409992698973
  H   1.28171390379615      1.53984449002400      0.13090868139670
  N   1.19261098325743     -0.64971404610144     -1.42384768157522
  O   1.07554140931693      0.33837203795307     -2.14745301508252
  O   1.72131925167669     -1.71102647467706     -1.74458183072042
