18
Coordinates from ORCA-job run
  C   -0.76394678843183     -0.24658141360687      0.25611778913597
  C   0.66157360163048     -0.47680249122076     -0.28080334789810
  Br  -1.40335298575379     -2.03989069945440      0.82337894686715
  H   0.62692397421131     -1.27423349522004     -1.02284658643605
  N   -0.73515443413896      0.58231568885040      1.42968680058718
  H   -0.24673870346655      1.44588263796050      1.21386311324968
  H   -1.67825741935566      0.79866095093306      1.73063436644261
  C   -1.70957653455267      0.21296035055763     -0.84888128786330
  H   -2.73389746585284      0.23610665658797     -0.47256447204768
  H   -1.43715239912233      1.22583315520897     -1.16068992857570
  H   -1.67443194079614     -0.44845890551251     -1.71711179803954
  C   1.72028947466847     -0.73594821674332      0.77283190024757
  H   1.80005550497312      0.10351621923306      1.45990442013803
  H   1.45203232519738     -1.62563156896679      1.34178918186219
  H   2.68622721293685     -0.90420468897209      0.29086469540553
  N   1.05249664380330      0.74106508307551     -1.07403389350662
  O   1.19293405726514      0.60843380767189     -2.28712741073993
  O   1.18997587678470      1.79797692961777     -0.45501248882897
