18
Coordinates from ORCA-job run
  C   -0.77049036473926     -0.09921144397878      0.19895812436514
  C   0.63768818989550     -0.47708648884732     -0.29025997958131
  Br  -1.55243777763654     -1.91532114980528      0.80752721050803
  H   0.53960852118946     -1.29373408440895     -1.00450710688263
  N   -0.72975038152143      0.83978072527574      1.23696478273687
  H   -0.20427406437729      0.53741683240510      2.04524937605343
  H   -1.65174405194470      1.14596513470245      1.51779935443884
  C   -1.69092261647152      0.36506505980189     -0.91462997316565
  H   -1.36481513920681      1.34663810299633     -1.26551757419276
  H   -2.71306009113381      0.44658590306865     -0.54017427320722
  H   -1.68324025225120     -0.33438877442405     -1.74930453966172
  C   1.64610772896639     -0.79746898240491      0.79377382661456
  H   2.58901143281848     -1.10831376403431      0.33974119125832
  H   1.27748649015428     -1.61474577106075      1.41388252173630
  H   1.84890429370110      0.07962090774687      1.40719311610800
  N   1.15339177611251      0.67428599022246     -1.12103358786639
  O   0.96338840260432      0.59874708508979     -2.33529599643562
  O   1.70314790384051      1.60616471765508     -0.54136647282620
