18
Coordinates from ORCA-job run
  C   -0.77625315411096     -0.11757540397625     -0.14418809185371
  C   0.73995159792893     -0.10458499152328      0.11573995035668
  Br  -1.17366753116748      0.20101017606392     -2.05431278469982
  H   0.85565131110270     -0.14938903479201      1.20343876266603
  N   -1.27865815018126     -1.43135689659666      0.16218134101059
  H   -0.95380965870002     -1.74540723796806      1.07048271970321
  H   -2.29062879596330     -1.44439862509043      0.13601547208390
  C   -1.44362099748080      1.01728460593055      0.63003918070624
  H   -2.52210189593532      0.98238397211852      0.46432567784079
  H   -1.25281540319945      0.87973883398270      1.69987173814239
  H   -1.08991821677855      2.00254328333139      0.32466636206179
  C   1.52760506071100      1.05563823005417     -0.45491544425047
  H   2.56829878432343      0.98326323495029     -0.13140323509669
  H   1.12649544049717      2.00438616465656     -0.09662166288462
  H   1.49807748008071      1.04132004038950     -1.54205693001369
  N   1.34062400812138     -1.40121490200919     -0.34977724097811
  O   1.47706893001168     -2.27857207159593      0.50224615950183
  O   1.64870119074013     -1.49406937792581     -1.53273197429633
