18
Coordinates from ORCA-job run
  C   -0.76811777521910     -0.19099036396221      0.06675861136651
  C   0.77194637147418     -0.16652553243796      0.13374004999481
  Br  -1.26429416225116     -0.40024695591233     -1.91119653553724
  H   1.01693217002423     -0.32985598751792      1.18876643076673
  N   -1.29264312586143     -1.22541996807011      0.86683202045246
  H   -2.30084528297016     -1.27504321128190      0.80031060168307
  H   -0.87791175602122     -2.12572847447927      0.66413647326136
  C   -1.37075616914711      1.13797271792735      0.48990248912683
  H   -1.04575736972023      1.36641132114737      1.50931777778788
  H   -2.45954484488448      1.05656880340460      0.48570246770383
  H   -1.09221436105379      1.94771426741669     -0.18082842125615
  C   1.43348939713637      1.08816291583371     -0.39185845674089
  H   1.13223486004098      1.29516341690851     -1.41819741174156
  H   1.17213994361953      1.93387582897372      0.24462297930853
  H   2.51689211675893      0.97209082050672     -0.37203642605185
  N   1.33863825789799     -1.38427125568800     -0.55881701569349
  O   2.04313195345563     -1.22145551260398     -1.54739241561661
  O   1.04867977672085     -2.47742283016498     -0.06976321881424
