18
Coordinates from ORCA-job run
  C   -0.77648526543561     -0.16304603638568      0.03390314722792
  C   0.76034850375555     -0.20368387540684      0.14884677361822
  Br  -1.21641138177385     -0.25636425860308     -1.96589504652728
  H   0.96466007328700     -0.42848660393964      1.20122322901150
  N   -1.36585992482524     -1.21354562800265      0.76538259076288
  H   -2.37242815891765     -1.22035717000954      0.66412318602608
  H   -0.97918645603761     -2.11848710645177      0.53010137172957
  C   -1.34144628724748      1.16660774772219      0.50408488410839
  H   -2.43178774962869      1.12920907508978      0.46068096934210
  H   -1.04296359955373      1.33103538863676      1.54375377184114
  H   -1.00936272975067      1.99679239130259     -0.11530603497282
  C   1.48652793158711      1.04769056830986     -0.29279631043722
  H   1.22615836035107      1.31651674636909     -1.31602121884821
  H   2.56345541060016      0.88734714008096     -0.24660656601617
  H   1.23788976659158      1.87104099714993      0.37719179223374
  N   1.30174819191273     -1.40778610116002     -0.58632827867963
  O   0.95449667587493     -2.51088514722230     -0.16092854395579
  O   2.04264663921042     -1.22559812747964     -1.54440971646443
