18
Coordinates from ORCA-job run
  C   -0.78211976061556     -0.32705996392064      0.13257318674939
  C   0.74135762099141     -0.49430501946905     -0.00126801008949
  Br  -1.62088379554087     -1.86908697814198     -0.89090643337359
  H   1.02280401756387     -1.42615004416629      0.49389805690064
  N   -1.07964720514476     -0.40762578733458      1.51990821651475
  H   -2.06129795844855     -0.22968911810357      1.69329200995927
  H   -0.84138195261981     -1.31352072810669      1.90619365560965
  C   -1.36794322390536      0.94402697258785     -0.45127652792124
  H   -0.97168407654908      1.80578680416555      0.09057127018994
  H   -1.13418082113273      1.04025082169429     -1.50799521238680
  H   -2.45345229823217      0.92820893071376     -0.33252443692586
  C   1.52004831487544      0.68399066536747      0.56285659490245
  H   1.35267688948706      1.57876766082764     -0.03588870961430
  H   1.20587226088433      0.86774119639229      1.58942296274755
  H   2.58838321794379      0.45614379935417      0.55113848170919
  N   1.17334602036801     -0.69984040430987     -1.42131546850087
  O   1.72413534220100     -1.76410960594900     -1.68999116566792
  O   0.98496740787398      0.22647079839865     -2.20768847080277
