18
Coordinates from ORCA-job run
  C   -0.75547440046832     -0.44002675553729      0.10781842261660
  C   0.77616831561668     -0.51757769805942     -0.03227097017651
  Br  -1.50195163070722     -2.05291916027572     -0.73608225717695
  H   1.08461638637271     -1.48087279211004      0.37224214777782
  N   -1.01731811086324     -0.55806994641408      1.54123283304068
  H   -1.93328387684189     -0.96532098654790      1.68744693360755
  H   -1.03524723335226      0.37474403763635      1.94317755843446
  C   -1.42089871756617      0.76709795456329     -0.53626195326779
  H   -1.25610051429908      0.81324880333916     -1.61067196996139
  H   -2.49405620010038      0.72135160861954     -0.34141491879530
  H   -1.02738688179740      1.68481447428816     -0.08853124890534
  C   1.50674974202848      0.62071109979683      0.66163289610745
  H   1.23323919375628      1.58832059846537      0.24210044000779
  H   2.58388423233879      0.48984133583430      0.53649686671240
  H   1.29045941158358      0.59670231916903      1.72968754491785
  N   1.20624074583204     -0.54421429272730     -1.46755648089854
  O   1.68402314235255     -1.59328391793920     -1.89311452993411
  O   1.07533639611484      0.49445331789894     -2.11593131410666
