18
Coordinates from ORCA-job run
  C   -0.85513431366618     -0.37788616287893      0.05504135794169
  C   0.68188042976164     -0.53516476724754     -0.01887284451403
  Br  -1.61876306703152     -1.89380426712590     -0.96427953256737
  H   0.93644967849337     -1.49680013983828      0.43177792451080
  N   -1.33369347029282     -0.51430564814098      1.40605710390069
  H   -1.18312061724664      0.33633361429960      1.93391150039814
  H   -0.92023269502340     -1.30413015864401      1.88663997300031
  C   -1.40795815331399      0.90874661784394     -0.52878107567575
  H   -1.01647335901479      1.76858189161059      0.02408925651916
  H   -1.14150324737052      1.02205382774629     -1.57622138994878
  H   -2.49281060661503      0.89360992711116     -0.42354660399283
  C   1.44355301074516      0.59965808450246      0.64866749625751
  H   1.28088498268700      1.54099760497902      0.12511395462024
  H   1.13804611446977      0.70349243171121      1.69042031984462
  H   2.51340752233171      0.37988801955322      0.63434628324797
  N   1.18911079002929     -0.65190318989884     -1.42606617722918
  O   1.06687100121699      0.33388824269364     -2.15190429942482
  O   1.72048599983995     -1.71225592827665     -1.74539324688838
