16

C	0.0	0.0	0.0
C	-0.595121	0.120268	-1.414685
Br	1.962342	0.0	0.0
H	-1.697415	0.178961	-1.23868
C	-0.467781	1.096616	0.955361
H	-0.112675	0.856252	1.958896
H	-1.559711	1.107865	0.936216
H	-0.067744	2.062352	0.652353
C	-0.37055	-1.31841	0.523394
N	-0.564722	-2.381293	0.986692
C	-0.257567	-1.01138	-2.264491
N	-0.02536	-1.945201	-2.93908
N	-0.155555	1.395243	-2.080765
O	-0.640618	2.430594	-1.634987
O	0.64746	1.318673	-3.008206
Cl	-3.533293	0.0	0.0
