16

C	0.0	0.0	0.0
C	-0.594023	-0.429768	-1.354491
Br	1.958991	0.0	0.0
H	-1.697536	-0.309351	-1.216739
C	-0.464505	1.380507	0.461078
H	-0.11313	1.541255	1.482315
H	-1.557275	1.390471	0.433928
H	-0.0587	2.157063	-0.185758
C	-0.377281	-1.016871	0.985487
N	-0.591251	-1.832368	1.805343
C	-0.250525	-1.799162	-1.70629
N	0.01036	-2.906896	-1.996415
N	-0.153702	0.496495	-2.456443
O	-0.644648	1.621111	-2.440836
O	0.655754	0.076676	-3.280628
Cl	-3.534343	0.0	0.0
