19

C	-0.486488	-0.05472	-1.452576
C	0.0	0.0	0.0
Br	0.166	1.650235	-2.396694
H	1.097456	0.0	0.0
C	0.165207	-1.192205	-2.211023
H	-0.114515	-1.164567	-3.268222
H	1.249746	-1.11106	-2.12012
H	-0.163822	-2.126757	-1.756624
N	-1.908463	-0.12409	-1.520699
H	-2.207816	-0.241862	-2.481381
H	-2.324166	0.727915	-1.164698
N	-0.380285	-1.285305	0.604316
H	-1.317248	-1.228746	0.985384
H	0.270962	-1.483147	1.354577
C	-0.501978	1.197071	0.801628
H	-0.213485	2.147087	0.350742
H	-0.060096	1.150668	1.800213
H	-1.593366	1.171132	0.92025
Br	3.651679	0.0	0.0
