19

C	-0.400214	-0.036934	-1.484201
C	0.0	0.0	0.0
Br	-0.050213	-1.8944	-2.159178
H	1.096139	0.0	0.0
C	-1.869573	0.23381	-1.740826
H	-2.099562	0.080515	-2.796513
H	-2.475272	-0.427164	-1.122326
H	-2.105654	1.270975	-1.481753
N	0.43008	0.818021	-2.29885
H	0.15014	1.782959	-2.157159
H	1.402208	0.718194	-1.997874
N	-0.60164	-1.089696	0.774691
H	-0.374728	-0.920891	1.748972
H	-0.121911	-1.947474	0.52635
C	-0.437449	1.316624	0.639605
H	-1.514955	1.321375	0.828962
H	-0.168402	2.17997	0.026735
H	0.087283	1.433798	1.592477
Br	3.643277	0.0	0.0
