19

C	-0.555357	-0.025487	-1.426499
C	0.0	0.0	0.0
Br	0.291624	-1.537131	-2.39462
H	1.099985	0.0	0.0
C	-2.058726	-0.283535	-1.479576
H	-2.389623	-0.328941	-2.520278
H	-2.325539	-1.204707	-0.96527
H	-2.577371	0.545961	-0.986459
N	-0.142427	1.170943	-2.141184
H	-0.680243	1.954972	-1.78214
H	-0.363657	1.066687	-3.126492
N	-0.512385	-1.170207	0.742316
H	-0.116701	-1.104644	1.676111
H	-0.069338	-1.988573	0.33155
C	-0.429424	1.26349	0.74156
H	-0.015826	2.152693	0.264137
H	-0.004438	1.230663	1.748143
H	-1.516161	1.346092	0.83554
Br	3.734534	0.0	0.0
