14

C	0.0	0.0	0.0
C	-0.516672	-0.082497	-1.427915
Cl	1.839413	0.0	0.0
H	-1.6102	-0.125802	-1.281159
H	-0.298611	-0.917744	0.503031
N	-0.521046	1.127584	0.647179
H	-0.102083	2.00167	0.370538
H	-0.625592	1.039793	1.642763
N	-0.059552	-1.28985	-2.09642
H	-0.665074	-1.48386	-2.883119
H	0.885687	-1.167319	-2.437758
C	-0.194688	1.161043	-2.152831
N	0.112087	2.116823	-2.763639
Br	-3.858668	0.0	0.0
