17

C	-0.308347	0.315002	-1.474665
C	0.0	0.0	0.0
Br	0.517881	-1.030492	-2.594383
H	1.106013	0.0	0.0
N	-1.829896	0.306512	-1.723064
O	-2.328964	-0.396072	-2.590013
O	-2.44354	1.082612	-0.993541
N	0.145828	1.601488	-1.91733
H	-0.203618	2.297517	-1.263123
H	1.16224	1.595474	-1.853582
C	-0.551528	-1.316974	0.5267
H	-0.176107	-2.145643	-0.072891
H	-0.211159	-1.464078	1.552243
H	-1.644734	-1.325888	0.518515
C	-0.39953	1.120481	0.849873
N	-0.697927	2.021203	1.543291
Cl	3.266025	0.0	0.0
