17

C	-0.400747	-0.021982	-1.461864
C	0.0	0.0	0.0
Br	-2.443678	0.397504	-1.617697
H	1.095811	0.0	0.0
N	0.197364	1.14188	-2.249899
O	0.502881	2.142562	-1.62439
O	0.291446	0.98026	-3.463084
N	-0.052059	-1.185818	-2.114313
H	-0.171592	-1.115205	-3.115343
H	-0.482203	-2.010006	-1.723636
C	-0.425436	-1.284767	0.72033
H	-0.176369	-1.187955	1.777534
H	-1.498924	-1.4698	0.627249
H	0.149348	-2.12783	0.334054
C	-0.500255	1.157183	0.73059
N	-0.903453	2.019595	1.418574
Cl	3.249386	0.0	0.0
