17

C	-0.585164	0.022584	-1.4281
C	0.0	0.0	0.0
Br	0.385029	1.349581	-2.481421
H	1.097766	0.0	0.0
N	-0.308125	-1.335354	-2.082602
O	0.788397	-1.828763	-1.864753
O	-1.202425	-1.824273	-2.773063
N	-1.981964	0.284692	-1.567086
H	-2.216223	1.127066	-1.055529
H	-2.524999	-0.499487	-1.22678
C	-0.504826	-1.185721	0.828569
H	-0.09904	-1.096088	1.837215
H	-0.136976	-2.12185	0.409821
H	-1.596918	-1.207858	0.898918
C	-0.437614	1.244325	0.633717
N	-0.862636	2.215871	1.142366
Cl	3.302393	0.0	0.0
