17

C	-0.372763	0.01661	-1.493636
C	0.0	0.0	0.0
Br	0.51075	-1.454087	-2.386317
H	1.096134	0.0	0.0
N	-1.899426	-0.151787	-1.631687
O	-2.534008	0.761556	-1.105306
O	-2.385562	-1.113973	-2.208988
N	-0.052933	1.224924	-2.197761
H	0.960201	1.30865	-2.205971
H	-0.431418	2.00965	-1.673605
C	-0.518019	-1.202083	0.785586
H	-1.609418	-1.196646	0.859273
H	-0.099409	-1.172082	1.793025
H	-0.189263	-2.127055	0.311934
C	-0.405706	1.250194	0.640483
N	-0.696683	2.254389	1.177747
Cl	3.300786	0.0	0.0
