12

C	-0.513717	0.093688	-1.413462
C	0.0	0.0	0.0
F	-0.345632	-1.111829	-2.110742
H	1.093629	0.0	0.0
H	0.039731	0.864713	-1.962515
H	-1.591414	0.321166	-1.461631
H	-0.389216	-0.920952	0.453018
C	-0.446106	1.220809	0.800581
H	-1.53685	1.336889	0.865666
H	-0.045207	1.163896	1.815231
H	-0.032623	2.130831	0.354803
F	2.772323	0.0	0.0
