17

C	0.0	0.0	0.0
C	-0.414386	0.01442	-1.515182
Cl	1.847788	0.0	0.0
H	0.502931	-0.165328	-2.082243
N	-0.558439	1.07425	0.745504
H	-1.587969	0.872354	0.613793
H	-0.33597	0.930613	1.726737
C	-0.28272	-1.322598	0.611485
N	-0.434167	-2.303589	1.242357
C	-0.980085	1.37469	-1.924174
H	-1.949804	1.489583	-1.44155
H	-0.323028	2.20378	-1.649443
H	-1.115027	1.376283	-3.01259
N	-1.304194	-1.111469	-1.780059
H	-2.146915	-0.900655	-1.217681
H	-1.544402	-1.086515	-2.766786
F	-2.848851	0.0	0.0
