17

C	0.0	0.0	0.0
C	-0.412768	0.068051	-1.514697
Cl	1.847263	0.0	0.0
H	0.504863	-0.092623	-2.085711
N	-0.560958	1.046619	0.779841
H	-0.340944	0.874682	1.756134
H	-1.58997	0.849044	0.637147
C	-0.282386	-1.344733	0.562197
N	-0.425259	-2.350176	1.154382
C	-0.97189	1.446003	-1.874854
H	-0.30992	2.259132	-1.565074
H	-1.100279	1.489906	-2.962978
H	-1.943954	1.544114	-1.393624
N	-1.306106	-1.043268	-1.821266
H	-1.538295	-0.988792	-2.807768
H	-2.152094	-0.849546	-1.256946
F	-2.849648	0.0	0.0
