17

C	0.0	0.0	0.0
C	-0.434278	0.014648	-1.482749
Cl	1.863612	0.0	0.0
H	-1.526673	0.0403	-1.33836
N	-0.520384	1.080203	0.761487
H	-0.368041	1.900944	0.177642
H	-1.552879	0.843678	0.682881
C	-0.370714	-1.27518	0.630404
N	-0.555709	-2.327684	1.115935
C	-0.019183	-1.211751	-2.280575
H	-0.386288	-2.129698	-1.817734
H	-0.445043	-1.14931	-3.286707
H	1.068445	-1.281036	-2.373526
N	0.002104	1.284522	-2.064596
H	0.932935	1.18281	-2.455463
H	-0.630633	1.531276	-2.815364
F	-2.758595	0.0	0.0
