17

C	0.0	0.0	0.0
C	-0.184768	-0.026665	-1.582249
Cl	1.813286	0.0	0.0
H	0.367407	0.880806	-1.884422
N	-0.61408	1.068574	0.689228
H	-0.456094	1.915391	0.147204
H	-1.653211	0.777044	0.570456
C	-0.402654	-1.283298	0.595741
N	-0.607419	-2.300722	1.144394
C	-1.574	0.078705	-2.184739
H	-2.183389	0.842984	-1.718019
H	-2.126684	-0.847393	-2.034833
H	-1.432107	0.273044	-3.259112
N	0.430072	-1.243836	-2.121876
H	0.00412	-1.462016	-3.012323
H	1.424424	-1.130931	-2.257145
F	-2.846347	0.0	0.0
