17

C	0.0	0.0	0.0
C	-0.464512	0.006222	-1.490613
Cl	1.792401	0.0	0.0
H	-1.554135	0.03715	-1.367988
N	-0.564844	1.152544	0.633638
H	-0.339677	1.126949	1.62417
H	-1.602685	0.908398	0.512464
C	-0.361341	-1.26843	0.67094
N	-0.561396	-2.290275	1.216796
C	-0.057543	-1.237647	-2.256377
H	-0.454279	-2.137567	-1.783428
H	1.029951	-1.336346	-2.333465
H	-0.464871	-1.164346	-3.267341
N	-0.021632	1.200328	-2.197121
H	0.9955	1.203183	-2.223917
H	-0.293419	1.996355	-1.626805
F	-2.777855	0.0	0.0
