14
Coordinates from ORCA-job run
  C   0.31355660539633      0.41331023256654     -0.35992865080751
  C   -0.85364825933865     -0.54213228466123     -0.14745402714352
  Cl  1.09995367947344      0.16854959529878     -1.89077155117726
  H   -1.51434181558231     -0.45053740068745     -1.01081095327523
  H   -1.39986945313596     -0.19794241863303      0.73142054954283
  N   -0.12572090832100      1.86858247054841     -0.28244462777599
  O   0.71336034837577      2.68072548070635      0.08083302640376
  O   -1.27815030020062      2.09495617668932     -0.63067715550244
  N   1.28712886314213      0.23855283746425      0.80595529338105
  O   2.46115583445284      0.01445673542342      0.58301646824906
  O   0.74051459060540      0.35455967453762      1.89698007991023
  N   -0.30718943726017     -1.87018588269545      0.03875008034761
  H   -0.60738994336259     -2.28181793003007      0.90841810318950
  H   -0.52835980424461     -2.49007728652746     -0.72428663534209
