14
Coordinates from ORCA-job run
  C   0.39373664859396      0.36389825127640     -0.29900922253481
  C   -0.18701601500255     -1.00329011784547      0.01357576891980
  Cl  0.46316045524521      0.67828386424550     -2.01020039127460
  H   0.41214671652897     -1.75294981616541     -0.51192500241920
  H   -0.06810210179255     -1.16257591930652      1.08542293221338
  N   -0.44893860750860      1.41052190392349      0.43194336365246
  O   -1.05558952531319      2.24715408829227     -0.20722106502321
  O   -0.42523676496070      1.26152447527343      1.64758343392358
  N   1.79423918762344      0.54004670508595      0.27079046066131
  O   2.39154216937684     -0.48414186253035      0.57881899345762
  O   2.20302868053753      1.68976862298056      0.34510917276481
  N   -1.59747464796681     -0.96776354469999     -0.32456590929854
  H   -2.12325488883417     -1.59332808883922      0.26804880840700
  H   -1.75324130652739     -1.22814856169067     -1.28837134344958
