14
Coordinates from ORCA-job run
  C   0.49275296408945      0.43464492159826     -0.39563342797805
  C   -0.26191823225726     -0.86476848291092     -0.62635348502722
  Cl  1.57335872966489      0.79652643511337     -1.71757852706100
  H   -0.90846279282350     -0.71625484859384     -1.49905019856421
  H   0.49958819651910     -1.60110712009843     -0.88910955840467
  N   -0.44350688253780      1.62121750929414     -0.19552092273928
  O   0.07577517780542      2.72218906609468     -0.10938142112444
  O   -1.64163733196679      1.36244975469328     -0.12939475058105
  N   1.27840984336584      0.28355625836203      0.90891607941691
  O   0.89496136639895      0.92643458622123      1.87221898318658
  O   2.18168315106970     -0.53558619958019      0.86404612671630
  N   -0.92390129886403     -1.26977280164721      0.59255154597028
  H   -0.96151092669949     -2.27477538911683      0.67247402634379
  H   -1.85459196376448     -0.88475368942956      0.65181552984605
