14
Coordinates from ORCA-job run
  C   0.37255586724783      0.34882605684021     -0.38240656737988
  C   -0.85671535945503     -0.50456882625633     -0.08914035038896
  Cl  1.14225038935729     -0.05714418051101     -1.87834080188070
  H   -1.30953855957829     -0.10738452117714      0.82578162426609
  H   -1.54356549725048     -0.32485778816993     -0.92034108453833
  N   -0.08438877376701      1.81291334207232     -0.37747635363020
  O   -0.11756519401852      2.33934802835758      0.72871740848479
  O   -0.46328551981686      2.28449215683579     -1.43705149227559
  N   1.38896346852260      0.26873013786125      0.75403503530218
  O   1.03481031435621     -0.32715459655979      1.76502562968176
  O   2.45164058965802      0.84202939497548      0.57196370374117
  N   -0.48911463138215     -1.89866719199995     -0.02537010535849
  H   -1.18261747749022     -2.48538287827519     -0.46274245832098
  H   -0.34542961638338     -2.19117913399330      0.92934581229715
