14
Coordinates from ORCA-job run
  C   0.30037821551476      0.42138564255499     -0.32929620414160
  C   -0.85304725749170     -0.54540190984106     -0.13152795516648
  Cl  1.08595202957541      0.20937988086323     -1.86914390133156
  H   -1.55128669164828     -0.41330074386055     -0.96344633016485
  H   -1.35905757530011     -0.25207878367074      0.78853713144118
  N   -0.14007905781345      1.87374100164554     -0.22111767051153
  O   0.74848543919004      2.69276777850812     -0.03562943708724
  O   -1.33945739376839      2.09132684633497     -0.34375149254191
  N   1.27709263594118      0.23019668429428      0.83210029288924
  O   0.76794652789045      0.48502367517314      1.91660002735525
  O   2.41214050637745     -0.14113891576961      0.60724960286969
  N   -0.29059413031077     -1.87427146057934      0.02061157719865
  H   -0.17553979045226     -2.33031696258121     -0.87384256723193
  H   -0.88493345770432     -2.44831273307175      0.60065692642309
