14
Coordinates from ORCA-job run
  C   0.19735288996619      0.43244101458783     -0.38310951006588
  C   -0.82844286526750     -0.59451068212744      0.05709869213599
  Cl  0.65082573136265      0.24432226095532     -2.05375151290763
  H   -1.69695426313354     -0.51109899665889     -0.60401453752188
  H   -1.13965843654357     -0.32018465178278      1.06529856709210
  N   -0.29195707788894      1.86009488566300     -0.18264146335659
  O   -1.49386141760172      2.00770392700383      0.00204641720525
  O   0.56159025964671      2.73230577606152     -0.25447746829701
  N   1.40857343650882      0.31394782451592      0.54523242387031
  O   1.13020780366224      0.57086964478064      1.70999463326391
  O   2.48445831597377     -0.01766268884995      0.08821877871336
  N   -0.17026350101272     -1.88749227208987      0.08757468859487
  H   -0.18192194835271     -2.32678928518294     -0.82284679332515
  H   -0.62794892731970     -2.50194675687621      0.74537708459833
