14
Coordinates from ORCA-job run
  C   0.40486036619402      0.40911182563155     -0.27006036973016
  C   -0.22985045042054     -0.96652280013431     -0.09425769360269
  Cl  0.59926564985068      0.86663104907400     -1.92666203483423
  H   -0.24749666272584     -1.17191623974725      0.98124665141258
  H   0.46066386227559     -1.66984865964069     -0.56801044413158
  N   -0.38804452449306      1.48795019336395      0.46408302659560
  O   0.03440470691374      2.62928593722965      0.35988099420618
  O   -1.35331776482633      1.11394295511944      1.12008788355795
  N   1.75219233734821      0.38212408438696      0.46291682622424
  O   2.75920798487716      0.17120895723347     -0.19190383420700
  O   1.66176856444713      0.49111802991533      1.68071859161934
  N   -1.51924099017512     -1.01186252577750     -0.74065117133936
  H   -2.26056647914606     -0.83370399707561     -0.08011927597774
  H   -1.67284660011958     -1.89751880957897     -1.19726914979319
