14
Coordinates from ORCA-job run
  C   0.45675063302439      0.41820258462693     -0.33356661340854
  C   -0.21186417632522     -0.90525043786596     -0.73446649941359
  Cl  1.51063048320041      0.97747033179364     -1.61393989100156
  H   0.61174928524974     -1.58521192417229     -0.96508983434433
  H   -0.72269114530379     -0.69528494667678     -1.67723736340470
  N   -0.56639352661551      1.53342039241967     -0.04982683669808
  O   -0.12983563295590      2.64435380929028      0.20503106168617
  O   -1.74867120413198      1.21006477989375     -0.12272890487103
  N   1.30395681710253      0.28752017469819      0.94562671105118
  O   1.28308046417539     -0.81040909309010      1.49498898366695
  O   1.93710539819920      1.26810382382726      1.30238632954271
  N   -1.12402126248971     -1.55098974742598      0.16743481671432
  H   -0.67057861648629     -1.81590578582187      1.02752667261615
  H   -1.93021751664324     -0.97608396149675      0.35486136786435
