14
Coordinates from ORCA-job run
  C   0.32007413780220      0.44508349675059     -0.32116342502170
  C   -0.77239809806921     -0.60883116313127     -0.17245781509146
  Cl  1.15780120905725      0.35450354738309     -1.83130875612037
  H   -1.26630584341209     -0.41991193081808      0.78630117831148
  H   -1.48729611869595     -0.40496003644288     -0.97450870758096
  N   -0.34307360926954      1.81554839559011     -0.13199223641769
  O   -0.64025533835595      2.45570673088585     -1.12644147927899
  O   -0.59019306149479      2.09230892999152      1.03661565581638
  N   1.32832638895274      0.36920129289996      0.82328134487882
  O   1.10664231276126     -0.45594000482864      1.70182936862991
  O   2.25224606014943      1.16696795214194      0.77786345064789
  N   -0.21614442757528     -1.93289114948754     -0.31685534253510
  H   -0.83360693582219     -2.53829730333629     -0.83529693492470
  H   -0.01481667602784     -2.33948875759839      0.58413369868644
