14
Coordinates from ORCA-job run
  C   0.38878709928142      0.34799549472516     -0.36220934006980
  C   -0.84655121298675     -0.51449279591084     -0.12352034477505
  Cl  1.24457383456933     -0.06515920192644     -1.80690603024190
  H   -1.33103156448281     -0.12942936464483      0.77982606437739
  H   -1.50519269685786     -0.32382667862242     -0.97549645560855
  N   -0.07776428545746      1.80918603905312     -0.38717642930808
  O   -0.32325112069983      2.27122163223747      0.72178073442326
  O   -0.24433995502759      2.34549710705541     -1.46952886814611
  N   1.34608528793702      0.29394808343311      0.82631113962413
  O   2.36994296553537      0.95161230703598      0.71993446552136
  O   0.99253122257696     -0.37287845021047      1.79177426201722
  N   -0.48429258558284     -1.91020369754439     -0.06988311324475
  H   -0.35896140341338     -2.21472509997913      0.88354878880352
  H   -1.17153558539154     -2.48874537470168     -0.52745487337261
