14
Coordinates from ORCA-job run
  C   0.41282433619658      0.26757083765995      0.36748108964597
  C   -0.23193177456800     -0.96386141238846     -0.24275825585499
  Cl  0.51274301416657      0.17136996753385      2.10323207181128
  H   0.33782470022523     -1.83966545101643      0.08206796827802
  H   -0.13036765391249     -0.87360803478351     -1.32440049680939
  N   1.81396718241366      0.51338734657627     -0.17321366644895
  O   2.27292094367924      1.63115246511856      0.01274271310234
  O   2.36208588833186     -0.43502758092722     -0.72159341413765
  N   -0.38931357437253      1.48952629219623     -0.08333459239566
  O   -0.95295895820561      2.17761583683597      0.74448818446014
  O   -0.38260319797735      1.62787925676152     -1.30049440149546
  N   -1.63613808406323     -0.94914730313503      0.12160462972669
  H   -1.79450893754817     -1.41768637338460      1.00274408261888
  H   -2.19454388436575     -1.39950584704709     -0.58856591250119
