14
Coordinates from ORCA-job run
  C   0.42544471490955      0.40028640612209     -0.49691127344285
  C   -0.31998343240180     -0.92460287697364     -0.50164863930109
  Cl  1.31173123919728      0.64642087448708     -1.98007800038610
  H   -1.07938517263730     -0.86954552857636     -1.29037988956557
  H   0.41888827794405     -1.67328032400830     -0.79257503184158
  N   -0.50526642059475      1.58877695928568     -0.28484665303903
  O   -0.00638240632914      2.69911191488094     -0.37205589293706
  O   -1.67742283640114      1.32336625842397     -0.03488146529026
  N   1.38024847660184      0.38516238334002      0.69891792208797
  O   1.10968937084511      1.11052075366616      1.64172456303765
  O   2.29159865710967     -0.42113571330151      0.60915227559344
  N   -0.80473392272728     -1.21884953108016      0.82782096521382
  H   -0.81808431562197     -2.21304524705978      0.99955483983909
  H   -1.72534222989408     -0.83318632920619      0.97620628003160
