14
Coordinates from ORCA-job run
  C   0.36961033087629      0.46448937521536     -0.22521616031732
  C   -0.71972188443064     -0.59609211466888     -0.34975900997865
  Cl  1.47696306955900      0.46876062577486     -1.55363246947327
  H   -1.38120864131249     -0.47162223119635      0.51373124317938
  H   -1.27976767061921     -0.33664651386009     -1.25255573565285
  N   -0.33251093699990      1.82013613364346     -0.07849344866700
  O   -0.43889395998943      2.52636407715181     -1.06695024444208
  O   -0.80366570507234      2.01842462437585      1.03600391532508
  N   1.14718856142011      0.31578354617878      1.08029177581033
  O   2.04628588598202      1.12226011400746      1.26311513227368
  O   0.78390564325092     -0.57212048229391      1.84287716842038
  N   -0.13312579118013     -1.90840737480788     -0.47753207050415
  H   -0.10193803103704     -2.37876784402630      0.41422836179850
  H   -0.63312087044718     -2.47356193549418     -1.14610845777207
