14
Coordinates from ORCA-job run
  C   0.40241291746791      0.38769135319179     -0.47431390855222
  C   -0.34132960582249     -0.95621242615188     -0.60726392458172
  Cl  1.43190932599351      0.67437021573129     -1.85148517576474
  H   0.39547625840187     -1.66384832634871     -0.98854958030181
  H   -1.08861531798549     -0.80793689974714     -1.39302043667112
  N   -0.57228326843324      1.55153229667017     -0.28639005607447
  O   -1.47792858449194      1.31697834634292      0.50782866231505
  O   -0.38789917072607      2.58938739004485     -0.89848382015995
  N   1.27451165477767      0.38438827203223      0.77703699647425
  O   1.25937820849859      1.38042861579208      1.48704278674088
  O   1.93108957812111     -0.63491442641789      0.93916926496259
  N   -0.95574909507904     -1.51781245342934      0.56167352867307
  H   -1.60425694802228     -0.87763622567899      0.99391482371468
  H   -0.26771595270011     -1.82541573203139      1.23384083922551
