15

C	-0.567056	0.017812	-1.409914
C	0.0	0.0	0.0
Cl	0.127005	-1.250431	-2.422736
H	1.094334	0.0	0.0
H	-1.650305	-0.099094	-1.41639
N	-0.32805	1.350627	-2.080939
O	0.815598	1.781334	-2.092636
O	-1.326169	1.892689	-2.559601
C	-0.440528	-1.258002	0.756257
H	-1.529723	-1.357169	0.787764
H	-0.060119	-1.205107	1.777432
H	-0.003805	-2.138144	0.284156
C	-0.493327	1.191725	0.690564
N	-0.939242	2.123508	1.250921
Br	3.469101	0.0	0.0
