15

C	-0.41555	0.070005	-1.463387
C	0.0	0.0	0.0
Cl	-2.178921	0.098786	-1.699119
H	1.095818	0.0	0.0
H	-0.002839	0.957684	-1.936251
N	0.141	-1.083217	-2.261488
O	0.952519	-0.788779	-3.13238
O	-0.26495	-2.2099	-1.99592
C	-0.488668	-1.209643	0.7957
H	-1.575846	-1.305159	0.766766
H	-0.035714	-2.118393	0.404993
H	-0.167144	-1.086993	1.831216
C	-0.444839	1.242881	0.627484
N	-0.830811	2.226125	1.141647
Br	3.402063	0.0	0.0
