15

C	-0.569015	-0.047067	-1.410764
C	0.0	0.0	0.0
Cl	0.212953	-1.282951	-2.396815
H	1.094324	0.0	0.0
H	-1.640965	-0.241455	-1.410259
N	-0.431941	1.284731	-2.107361
O	-1.484695	1.782039	-2.511056
O	0.687587	1.763337	-2.203426
C	-0.423455	-1.246148	0.787669
H	-0.017415	-1.180733	1.797735
H	0.000982	-2.133283	0.316859
H	-1.511861	-1.344117	0.845076
C	-0.50649	1.199442	0.662823
N	-0.964524	2.136051	1.205052
Br	3.44864	0.0	0.0
