15

C	-0.568789	-0.077094	-1.408777
C	0.0	0.0	0.0
Cl	0.211239	-1.337331	-2.367876
H	1.094339	0.0	0.0
H	-1.641334	-0.270595	-1.40375
N	-0.429826	1.238776	-2.136437
O	0.687261	1.726159	-2.222862
O	-1.478408	1.714583	-2.576309
C	-0.425332	-1.228216	0.814025
H	-1.513763	-1.325909	0.870318
H	-0.022869	-1.139076	1.823573
H	0.001442	-2.125671	0.365215
C	-0.506614	1.214554	0.635523
N	-0.967429	2.162167	1.155467
Br	3.446518	0.0	0.0
