15

C	-0.568919	-0.078926	-1.409516
C	0.0	0.0	0.0
Cl	0.208168	-1.34034	-2.367407
H	1.094345	0.0	0.0
H	-1.641497	-0.267294	-1.405169
N	-0.424978	1.237011	-2.133986
O	-1.477226	1.744156	-2.525579
O	0.699043	1.696046	-2.259586
C	-0.423195	-1.228803	0.814635
H	0.004459	-2.125547	0.365651
H	-0.020106	-1.138837	1.823862
H	-1.511357	-1.327688	0.871313
C	-0.507094	1.213712	0.635764
N	-0.968353	2.161201	1.155525
Br	3.451226	0.0	0.0
