15

C	-0.569359	-0.061924	-1.410737
C	0.0	0.0	0.0
Cl	0.237737	-1.283628	-2.393468
H	1.094351	0.0	0.0
H	-1.637125	-0.279246	-1.408937
N	-0.461717	1.271248	-2.11008
O	0.647888	1.771563	-2.213792
O	-1.525846	1.748408	-2.507882
C	-0.421073	-1.242454	0.795124
H	-0.003535	-2.132514	0.323626
H	-0.00622	-1.175228	1.801527
H	-1.509358	-1.336557	0.861641
C	-0.507512	1.202894	0.655462
N	-0.963165	2.14415	1.19154
Br	3.450006	0.0	0.0
