15

C	-0.422882	0.050475	-1.463238
C	0.0	0.0	0.0
Cl	-2.182139	0.198737	-1.685696
H	1.095811	0.0	0.0
H	0.051638	0.888299	-1.96963
N	0.048665	-1.174399	-2.213566
O	-0.515737	-2.239176	-1.98284
O	0.97066	-0.994176	-3.001354
C	-0.497866	-1.200414	0.8033
H	-0.183849	-1.069524	1.839932
H	-1.584799	-1.294522	0.766264
H	-0.043869	-2.114886	0.426164
C	-0.432869	1.251613	0.619268
N	-0.793247	2.240531	1.140985
Br	3.413113	0.0	0.0
