13

C	0.0	0.0	0.0
C	-0.186162	-0.075981	-1.549345
F	1.365831	0.0	0.0
H	0.453953	0.704162	-1.962427
H	0.157174	-1.063569	-1.857566
C	-0.540451	1.255869	0.545626
N	-0.543307	2.340532	1.02329
C	-0.67571	-1.120215	0.668318
N	-0.653104	-2.145814	1.278598
N	-1.514473	0.133163	-2.176291
O	-1.860643	1.298819	-2.362649
O	-2.101632	-0.862503	-2.599166
H	-2.034058	0.0	0.0
