13

C	0.0	0.0	0.0
C	-0.158062	-0.023122	-1.555121
F	1.380344	0.0	0.0
H	0.276378	0.904026	-1.926409
H	0.41737	-0.883527	-1.895967
C	-0.591569	1.20869	0.586623
N	-0.582705	2.283808	1.092136
C	-0.624556	-1.177043	0.614512
N	-0.61161	-2.231255	1.163388
N	-1.489612	-0.150482	-2.190931
O	-1.921914	-1.29015	-2.356375
O	-2.009636	0.879046	-2.620253
H	-2.016019	0.0	0.0
