13

C	0.0	0.0	0.0
C	-0.156944	-0.123175	-1.549206
F	1.379483	0.0	0.0
H	0.322096	-1.061735	-1.827959
H	0.376963	0.725704	-1.976526
C	-0.577564	1.252191	0.502704
N	-0.575993	2.356709	0.937863
C	-0.636793	-1.131568	0.682841
N	-0.622986	-2.167968	1.26628
N	-1.492336	-0.130593	-2.191675
O	-1.944989	0.954959	-2.550589
O	-1.98383	-1.229059	-2.446673
H	-2.019571	0.0	0.0
