13

C	0.0	0.0	0.0
C	-0.351466	-0.038381	-1.495091
F	1.377742	0.0	0.0
H	-1.42958	-0.191253	-1.577372
H	-0.036789	0.895383	-1.958419
C	-0.577604	1.234503	0.562289
N	-0.543361	2.324089	1.031848
C	-0.510556	-1.134407	0.795178
N	-0.530499	-2.048684	1.542879
N	0.356927	-1.119693	-2.217963
O	0.452882	-2.217477	-1.672816
O	0.740635	-0.864166	-3.361892
H	-2.290182	0.0	0.0
