13

C	0.0	0.0	0.0
C	-0.334462	-0.021599	-1.506705
F	1.376258	0.0	0.0
H	-1.37887	0.247347	-1.648657
H	-0.119083	-1.008115	-1.912502
C	-0.587801	1.140491	0.732424
N	-0.599254	2.102122	1.42479
C	-0.518045	-1.232356	0.618725
N	-0.4948	-2.292427	1.146567
N	0.522028	0.931142	-2.259622
O	0.633747	2.07143	-1.817844
O	1.009467	0.533366	-3.320309
H	-2.228219	0.0	0.0
