13

C	0.0	0.0	0.0
C	-0.327703	0.16001	-1.503753
F	1.376229	0.0	0.0
H	-0.13159	-0.784215	-2.009028
H	-1.35836	0.476712	-1.628724
C	-0.501759	1.102212	0.845714
N	-0.520801	2.000248	1.612701
C	-0.617967	-1.251006	0.464508
N	-0.571781	-2.372467	0.858432
N	0.565547	1.162966	-2.1401
O	0.607946	2.283814	-1.638553
O	1.163973	0.824513	-3.163699
H	-2.218059	0.0	0.0
