13

C	0.0	0.0	0.0
C	-0.313241	-0.169014	-1.520591
F	1.363802	0.0	0.0
H	-1.379025	-0.226637	-1.687221
H	0.227329	-1.048897	-1.875945
C	-0.712498	1.182047	0.527144
N	-0.661861	2.28166	0.986023
C	-0.542539	-1.198529	0.677624
N	-0.535704	-2.2419	1.239059
N	0.19096	0.983472	-2.329868
O	-0.658621	1.662389	-2.912113
O	1.404669	1.164044	-2.409183
H	-2.171151	0.0	0.0
