15

C	-0.337597	0.068112	-1.466396
C	0.0	0.0	0.0
Cl	-2.252429	0.695402	-1.586065
H	1.094872	0.0	0.0
H	-0.331856	0.926224	0.474361
N	0.420038	1.099702	-2.068861
H	1.376417	0.996722	-1.712323
H	0.425259	1.001332	-3.075754
N	-0.293402	-1.194987	-2.065749
H	-0.730965	-1.861367	-1.438093
H	-0.713493	-1.201899	-2.985117
N	-0.510306	-1.213627	0.625829
H	0.231024	-1.605603	1.191266
H	-1.301661	-1.005777	1.221342
H	2.914083	0.0	0.0
