15

C	-0.334593	0.020997	-1.468144
C	0.0	0.0	0.0
Cl	-2.259007	0.682368	-1.55495
H	1.094595	0.0	0.0
H	-0.329002	0.940384	0.454525
N	0.375016	0.997021	-2.239158
H	1.362497	0.795854	-2.044608
H	0.177961	1.913277	-1.852785
N	-0.2292	-1.22201	-2.034749
H	-0.515834	-1.253217	-2.999891
H	-0.61465	-1.935922	-1.431587
N	-0.506938	-1.19605	0.664002
H	-1.333309	-0.982063	1.206319
H	0.215749	-1.534531	1.287861
H	2.928365	0.0	0.0
