16

C	-0.519196	-0.161837	-1.409896
C	0.0	0.0	0.0
F	-1.864837	-0.412127	-1.416765
H	1.090825	0.0	0.0
H	0.0042	-0.98851	-1.892299
N	-0.283433	1.028811	-2.312965
O	-1.235323	1.765294	-2.537939
O	0.850085	1.123384	-2.76066
C	-0.446439	-1.173264	0.852373
H	-1.528865	-1.218718	0.960507
H	0.012438	-1.092924	1.836358
H	-0.081594	-2.093782	0.389829
N	-0.451344	1.29999	0.592311
O	-1.104526	1.276008	1.635628
O	-0.10749	2.320766	0.000585
Br	3.410717	0.0	0.0
