16

C	-0.537419	-0.110292	-1.407164
C	0.0	0.0	0.0
F	-1.894388	-0.284937	-1.400441
H	1.09165	0.0	0.0
H	-0.06763	-0.960437	-1.90414
N	-0.237916	1.069894	-2.306968
O	-1.168045	1.801961	-2.618656
O	0.925784	1.149794	-2.672426
C	-0.443645	-1.200148	0.817362
H	0.027974	-1.157955	1.797443
H	-1.525644	-1.241717	0.938135
H	-0.092881	-2.106082	0.31737
N	-0.446061	1.278609	0.638819
O	-0.984892	1.225295	1.74432
O	-0.211019	2.314732	0.020669
Br	3.412957	0.0	0.0
