16

C	-0.543869	0.052911	-1.411551
C	0.0	0.0	0.0
F	0.03657	1.053649	-2.112467
H	1.092432	0.0	0.0
H	-1.625922	0.170931	-1.445188
N	-0.269057	-1.248379	-2.133287
O	-1.05108	-2.15993	-1.863046
O	0.657703	-1.295285	-2.925
C	-0.479354	-1.173388	0.839518
H	-1.569329	-1.253145	0.850351
H	-0.104952	-1.032808	1.853603
H	-0.058412	-2.10106	0.455652
N	-0.454016	1.255341	0.690977
O	-1.447384	1.84357	0.249894
O	0.161944	1.578995	1.697632
Br	3.442737	0.0	0.0
