13

C	0.0	0.0	0.0
C	-0.270111	0.267908	-1.497699
Br	2.034471	0.0	0.0
H	0.323956	-0.474018	-2.037395
H	0.143237	1.250071	-1.746094
C	-0.344628	1.148927	0.854653
N	-0.513911	2.054374	1.585937
N	-0.497979	-1.261549	0.401021
H	-0.293294	-1.394354	1.386837
H	-1.54603	-1.030632	0.300695
C	-1.628784	0.193474	-2.056539
N	-2.441666	0.160489	-2.90811
F	-2.594574	0.0	0.0
