12
Coordinates from ORCA-job run
  C   -0.80275706975746     -0.38169023319672     -0.09253185040715
  C   0.65646854455465     -0.24906812912817     -0.57299429001486
  Br  -1.00290646580485     -2.26730914357714      0.58072374562771
  H   0.89848102736861     -1.10102689842171     -1.21656171417163
  H   -1.46604497321324     -0.34616950371680     -0.95625610594057
  N   -1.12705713400636      0.63153770043387      0.82185936513938
  H   -0.60431823220855      0.56879710704247      1.68722305552272
  H   -2.11685486673474      0.67710772755871      1.02007763166706
  C   1.57505708494111     -0.24856676010120      0.57000193615654
  N   2.28136906738960     -0.23069355996067      1.50754499404334
  C   0.80466860413506      0.98872569573198     -1.34877550917964
  N   0.90389441333618      1.95935599733539     -2.00131125844291
