12
Coordinates from ORCA-job run
  C   -0.74655364366405     -0.32489039110552     -0.03391414420314
  C   0.55652937234210      0.43308510195489     -0.36511473586457
  Br  -0.41187522717279     -2.23308669426104     -0.00847844983834
  H   0.31661419257798      1.50512094314503     -0.32301409394745
  H   -1.44799745206348     -0.16703680654767     -0.86190365147445
  N   -1.19912596209371      0.10365580785656      1.26738718980383
  H   -1.87909613860794     -0.54431056099897      1.64379238950321
  H   -1.63513773115742      1.01726290499519      1.19598623495288
  C   1.02298884321296      0.13656378049907     -1.72265035637351
  N   1.36051560998805     -0.08652642168900     -2.82444800666886
  C   1.60241425814230      0.17190035525280      0.62755472849160
  N   2.46072387849602     -0.01373801910134      1.40580289561880
