12
Coordinates from ORCA-job run
  C   -0.63946850301559     -0.49167284352058      0.06258210584883
  C   0.80912631000787      0.04450799515114      0.09563510658055
  Br  -0.67103940365640     -2.21407516706752      0.95850604610147
  H   1.10914915646274      0.09697224641503      1.14826490669014
  H   -0.92305275955907     -0.70110537187492     -0.97548288545352
  N   -1.48082769770175      0.43207656969173      0.78252376470163
  H   -1.62719247856159      1.26900644338858      0.22623754825376
  H   -2.38377677879812      0.01381925116794      0.96914425473876
  C   0.82579353785724      1.39984241308424     -0.46809223868533
  N   0.77424067297199      2.48255650307280     -0.91961555599494
  C   1.73528313831138     -0.81972124488636     -0.64037835596648
  N   2.47076480568130     -1.51120679462206     -1.23932469681486
