12
Coordinates from ORCA-job run
  C   -0.80327297441545     -0.09094854584162      0.00894289638414
  C   0.68487226593376     -0.21878748427841     -0.38612662190643
  Br  -1.80887367228349     -1.43728885264916     -0.96369913136759
  H   0.99311598199654     -1.24356917037565     -0.15071580335790
  H   -1.18969530871142      0.87154210059819     -0.34646516175859
  N   -0.91833205364351     -0.34361768824043      1.42434134237383
  H   -1.88667423578708     -0.49503691171911      1.67753852850930
  H   -0.57530841607012      0.45770005979444      1.94537997138894
  C   1.47329666194917      0.71129857631685      0.43108737436854
  N   2.05171839305475      1.46732522826804      1.11864838709826
  C   0.90503843146097      0.04912281408285     -1.80955125029783
  N   1.07611492651588      0.27125987404401     -2.94938053143467
