12
Coordinates from ORCA-job run
  C   -0.75772897884368     -0.48681505262182     -0.01224715986460
  C   0.68800907081690     -0.28933345903903     -0.51566259478344
  Br  -0.88863469249268     -2.23607884820856      0.82303766898422
  H   0.93246170087668     -1.10210165960613     -1.20896619451502
  H   -1.41148490772616     -0.54484129685625     -0.89143178660784
  N   -1.07422108659548      0.53049693207529      0.95225183075643
  H   -1.13879626531983      1.43531831558346      0.49594891477026
  H   -1.95731536147121      0.33458703183007      1.40611162917721
  C   1.65604023984016     -0.30125328842427      0.58496070526534
  N   2.46148491606640     -0.32667672881913      1.43790301437707
  C   0.75486504923151      0.98342333769830     -1.24543724452694
  N   0.73532031561739      2.00327471638807     -1.82746878303268
