12
Coordinates from ORCA-job run
  C   -0.82663530049416     -0.51022562303993     -0.05979039848936
  C   0.63749070082575     -0.28441107584484     -0.55646102938394
  Br  -0.91343433489645     -2.33755491353837      0.62498562417258
  H   0.91559228183002     -1.08263431303135     -1.25323765846126
  H   -1.47756042569155     -0.48336025230623     -0.93568063597873
  N   -1.30760326477165      0.40526184560568      0.91316416593331
  H   -1.49390299132841      1.31756820891224      0.51718837276842
  H   -0.70272163397988      0.47645049073088      1.72151354290034
  C   1.56772268305967     -0.28428550067254      0.57441091560436
  N   2.27660236026750     -0.26484048553660      1.51006692954871
  C   0.68464071371010      1.00613047179806     -1.25223000535663
  N   0.64080921146905      2.04190114692300     -1.80392982325780
