12
Coordinates from ORCA-job run
  C   -0.70443586103852     -0.53704472006576     -0.04300079797240
  C   0.74431571476893      0.01636648874228      0.14465902638369
  Br  -0.77192045036014     -2.25897196604869      0.87006884947053
  H   0.94632027715613      0.07722965982076      1.22093573331998
  H   -0.86268826015893     -0.74288762903435     -1.10310415450380
  N   -1.74700482770402      0.30593100449186      0.43532485892570
  H   -1.62087845350349      0.57574256125457      1.40219015014912
  H   -1.86766158556662      1.12330584981683     -0.14936610389748
  C   0.80193956628253      1.36753177669889     -0.42396397797965
  N   0.77935206531028      2.44995599915800     -0.87903566467620
  C   1.75386491385580     -0.84255359327497     -0.47767376747254
  N   2.54679690095807     -1.53460543155943     -0.99803415174693
