12
Coordinates from ORCA-job run
  C   -0.80530695812412     -0.36574902449403     -0.12236960455891
  C   0.67842708948553     -0.27775697264854     -0.53323875856456
  Br  -1.08298196654188     -2.22859989366637      0.58524141878359
  H   0.93206545484860     -1.15178057359003     -1.14178613026771
  H   -1.42469006436385     -0.33682209085262     -1.01840746296984
  N   -1.14951810388144      0.67751775526088      0.75030216275614
  H   -0.66959189248921      0.62544607136621      1.64081143212921
  H   -2.14651885605355      0.74847384222182      0.90038138532431
  C   1.53868246223251     -0.26661652697174      0.65417750563897
  N   2.19394379475105     -0.23983388569373      1.62794596253974
  C   0.89243276130967      0.93461092637704     -1.33329250217402
  N   1.04305627882668      1.88211037269110     -2.00976540863692
