12
Coordinates from ORCA-job run
  C   -0.79857793345900      0.05027183083808      0.03779676790220
  C   0.68049885022337     -0.18086225767373     -0.33631536057218
  Br  -1.87453783848173     -1.23094103315639     -1.06322654777637
  H   0.93810444305248     -1.21781921385123     -0.08550677499865
  H   -1.11959268386727      1.03373150961315     -0.30443678777797
  N   -0.97062420328477     -0.06833968653819      1.43001587774202
  H   -0.81492202508814     -1.01148480239318      1.76337507417187
  H   -1.88119964015504      0.24913959667504      1.73300030509698
  C   1.53858498715173      0.72017642820843      0.44447442530176
  N   2.23496590615716      1.44065259918995      1.05589752089048
  C   0.92649398168262      0.01821661498542     -1.76792118080859
  N   1.13980615606860      0.19725841410265     -2.90815331917156
