12
Coordinates from ORCA-job run
  C   -0.82088378761081     -0.34047462748276     -0.08930571277025
  C   0.64624073195629     -0.29703440155492     -0.56239703266194
  Br  -1.12604982738075     -2.19638358013947      0.62508998834432
  H   0.84667930336424     -1.17638799017979     -1.18296874490796
  H   -1.47630427316873     -0.28908015230186     -0.95823758314569
  N   -1.09536478326124      0.70959860842153      0.79965650348177
  H   -0.58096858950917      0.63891656207931      1.66946340909244
  H   -2.08232237007344      0.81163529168523      0.99106844105122
  C   1.55570778585432     -0.31654761084418      0.58774360162070
  N   2.25241258506277     -0.31296944717503      1.53258726591228
  C   0.86389712855665      0.91106935561605     -1.36800985880190
  N   1.01595609620985      1.85665799187588     -2.04669027721498
