12
Coordinates from ORCA-job run
  C   -0.81955562837979     -0.37502180882947     -0.11298312333683
  C   0.49228848418903      0.42194029642195     -0.39131505325608
  Br  -0.40596564794104     -2.27663733988694     -0.16623059496260
  H   0.20908477053942      1.48359871267512     -0.40273113436448
  H   -1.50221907320037     -0.18615629167912     -0.94415373033059
  N   -1.46742214431176     -0.05893334069769      1.11663245876701
  H   -1.86225317736121      0.87286425486404      1.10839844337256
  H   -0.86185573452539     -0.18500955942300      1.91825036895991
  C   1.08319618467934      0.10361574247210     -1.69223575910757
  N   1.51961046492275     -0.12803085148305     -2.75731565225769
  C   1.44901898037380      0.23205351337025      0.70110041947141
  N   2.16507252101524      0.09671667219579      1.62158335704496
