12
Coordinates from ORCA-job run
  C   -0.84950977072288     -0.24050224225927     -0.07861544734684
  C   0.69384884759277     -0.11669440821125     -0.28402305438290
  Br  -1.39775761834040     -1.90869761675256     -0.92914800246757
  H   1.16493773867028     -1.00862720121722      0.14641199372946
  H   -1.33923409988717      0.56316156194460     -0.63143480477172
  N   -1.28897874874188     -0.21865486355224      1.27490079835193
  H   -0.81879974755043     -0.90421816158142      1.85262855098052
  H   -1.20916837359139      0.70503275441802      1.68123885660295
  C   1.16399204560339      1.06679349872218      0.44410369542860
  N   1.47645443628512      2.01836699547581      1.05723194955655
  C   1.06217465911807     -0.02384260496801     -1.69835465603734
  N   1.34204063156451      0.06788228798139     -2.83493987964364
