12
Coordinates from ORCA-job run
  C   -0.70649159963169     -0.36503010436699      0.08801690922821
  C   0.78054278960112      0.03923620242829      0.00427570372727
  Br  -0.79948325106778     -1.96095935423126      1.29473974366987
  H   1.12138706728400      0.29973053654511      1.01436259063379
  H   -1.04464351864969     -0.73882071008923     -0.87820603733814
  N   -1.48621292509680      0.73540385930282      0.49214800082191
  H   -1.29345664563650      1.02114937367984      1.44399785489791
  H   -2.47676436658411      0.56326611204699      0.38721279855867
  C   0.92719765133582      1.21625916038451     -0.86211929253767
  N   1.05844735652043      2.14878473724953     -1.56295127814757
  C   1.62149234275695     -1.05158583278077     -0.49768206894990
  N   2.29998509916827     -1.90943398016883     -0.92379492456436
