12
Coordinates from ORCA-job run
  C   -0.79863425251246      0.03146587494887      0.03975054658393
  C   0.68483318532489     -0.15847168218088     -0.34094032681850
  Br  -1.84916963092970     -1.23989923429443     -1.09686134090861
  H   0.96474918334389     -1.19621788471935     -0.11922004237972
  H   -1.13940829721164      1.01748046018203     -0.27506092544738
  N   -0.96778903202671     -0.12941728084136      1.42799493705284
  H   -0.79331015754142     -1.07815612189415      1.73520606353783
  H   -1.88423036057389      0.16182849895583      1.73947260608064
  C   1.52326268471054      0.73927622173846      0.46458018708685
  N   2.20282488887053      1.46166493976887      1.09245125164530
  C   0.92470442626001      0.08702523060104     -1.76624446934483
  N   1.13216736228597      0.30342097773507     -2.90112848708835
