12
Coordinates from ORCA-job run
  C   -0.89280970609903     -0.17093170402130     -0.04637945169922
  C   0.54214795017444      0.31201721548091     -0.42091719483612
  Br  -0.94161664958906     -2.11245787616909     -0.18570639948358
  H   0.51778941220022      1.40967567272670     -0.37620789962253
  H   -1.57813035256221      0.20846119179566     -0.80719066856429
  N   -1.34552768542187      0.22941138290492      1.24461897312016
  H   -1.51273003036018      1.22629619750764      1.29459426161264
  H   -0.72106019173166     -0.06698202366906      1.98447414464382
  C   0.93097159325813     -0.07121181742865     -1.77908705500546
  N   1.20729048020014     -0.34587883720662     -2.88661240730261
  C   1.51541352196966     -0.14635133629546      0.57294773440754
  N   2.27726165796142     -0.47004806562565      1.40546596272966
