12
Coordinates from ORCA-job run
  C   -0.74794720853988     -0.50097793739375     -0.00676405190062
  C   0.67118091159410     -0.24934443679644     -0.56009930213461
  Br  -0.81210522209816     -2.29137196111654      0.74402932819679
  H   0.89857737066444     -1.01797621203883     -1.30725564519880
  H   -1.43773810446218     -0.52756600129319     -0.85952371276889
  N   -1.04045791465987      0.46117626175013      1.02028991337807
  H   -1.14661854215781      1.38455190790237      0.61205293798364
  H   -1.89632946806743      0.22241872418027      1.50484388600314
  C   1.68606742449200     -0.30124287251222      0.49618359147433
  N   2.52622337012816     -0.35840456345973      1.31330056888391
  C   0.68283931813684      1.06287127995708     -1.21961893599769
  N   0.61630806496979      2.11486581082084     -1.73743857791928
