12
Coordinates from ORCA-job run
  C   -0.83694961346966     -0.48573155968128     -0.09559067319871
  C   0.65876685607479     -0.31492235044487     -0.51327990185158
  Br  -1.01929366230207     -2.29524441696149      0.61805543702269
  H   0.95052526178455     -1.13676678484728     -1.17629289780848
  H   -1.43679980551582     -0.45776429141404     -1.00717371916090
  N   -1.34248042031800      0.46395985280060      0.83079483363957
  H   -1.48001485781403      1.37254381198695      0.40736912812079
  H   -0.78172702813452      0.53456492581888      1.67039719242605
  C   1.52438896067939     -0.31722460520582      0.66763459941087
  N   2.17999293985355     -0.29921203838290      1.64136482883285
  C   0.78399429604774      0.95695914223620     -1.23327093994932
  N   0.80059707311408      1.97983831409504     -1.81000788748386
