12
Coordinates from ORCA-job run
  C   -0.80064362873747     -0.37858207978263     -0.11214570395844
  C   0.68380101781209     -0.28912063092205     -0.52034101668034
  Br  -1.06105382501398     -2.21800425452283      0.66037503483483
  H   0.94933136599227     -1.18122964771549     -1.09677129985476
  H   -1.41654004027475     -0.38839484843926     -1.01092194537761
  N   -1.15955526512348      0.69108474964343      0.72152316512590
  H   -0.68348527721037      0.67562128489823      1.61545872688296
  H   -2.15769135220918      0.75771985189651      0.86424612356664
  C   1.53894791789432     -0.22713210616781      0.66927581114950
  N   2.19010919659030     -0.15942318446985      1.64368885797109
  C   0.88766772734584      0.89663012609319     -1.36195112608279
  N   1.03011216293441      1.82083073948858     -2.07143662757697
