12
Coordinates from ORCA-job run
  C   -0.76618624356915     -0.28129492135995      0.00653995982193
  C   0.56917104904644      0.37339137797447     -0.40455159922613
  Br  -0.54678353623728     -2.20193663593846      0.13867014819801
  H   0.39532876557808      1.45893325975267     -0.42145528435381
  H   -1.48177617473748     -0.12947736636343     -0.81050506849458
  N   -1.15207446862538      0.24994910918983      1.29105757097243
  H   -1.52694743594122      1.18612517283414      1.17744465278838
  H   -1.86342219889237     -0.32747483606897      1.72073300205834
  C   0.97665101626234     -0.02876076639442     -1.75388925751775
  N   1.26859539534981     -0.33019623238022     -2.85007240992807
  C   1.62815347694711      0.10891438829942      0.57327028815354
  N   2.50029035481910     -0.07817254954507      1.33575799752771
