12
Coordinates from ORCA-job run
  C   -0.79763203909901     -0.16696561646138      0.00812497765052
  C   0.61057189335516      0.31994907284301     -0.39384839994982
  Br  -0.85610963951097     -2.10377381728243     -0.00999672887739
  H   0.59592800141361      1.41709647395169     -0.32445708709018
  H   -1.49945486894035      0.14879498288211     -0.77314909689208
  N   -1.07771287339826      0.31241607571764      1.33970157762222
  H   -1.32347099135862      1.29647069976947      1.30652279352894
  H   -1.85090147937863     -0.19492954296615      1.75021829543984
  C   0.92815052190781     -0.03066056308655     -1.78113525228591
  N   1.14857760684535     -0.28810425912515     -2.90497049911391
  C   1.63761055812737     -0.16949970261299      0.52970425732926
  N   2.48344331003653     -0.54079380362927      1.25328516263851
