12
Coordinates from ORCA-job run
  C   -0.82374789028803     -0.14562404719408     -0.07855743057645
  C   0.57524024431196      0.38738576861803     -0.44558809496501
  Br  -0.74544776745476     -2.13944118908030     -0.03342572183590
  H   0.46660392196559      1.47648636423128     -0.52946481592987
  H   -1.50745252935518      0.07504639254792     -0.89840856181980
  N   -1.26691649166445      0.47169176975882      1.11196564507031
  H   -0.71795116918797      0.18914066451362      1.91603797067843
  H   -2.24199667544709      0.27440501856848      1.29429581556426
  C   1.05495542105184     -0.12871532186306     -1.72896474419276
  N   1.42170256278560     -0.50162530532987     -2.77968596915955
  C   1.53031608423197      0.11645391501781      0.63294658057935
  N   2.25469428905052     -0.07420402978864      1.53684932658699
