12
Coordinates from ORCA-job run
  C   -0.87855131749544     -0.11492260127098     -0.01929009900100
  C   0.64321211547671     -0.15837718460926     -0.36788824260105
  Br  -1.72822411380968     -1.55515670209267     -1.02299362670359
  H   1.02125226031950     -1.15449433949923     -0.10746705800285
  H   -1.29635418821391      0.81760850611282     -0.40283033596723
  N   -1.19114186105723     -0.23902829880456      1.36397405149609
  H   -0.77970038827796     -1.06113503722336      1.78657910284864
  H   -0.93853591292624      0.59278681426920      1.88287082449552
  C   1.33397255372070      0.84088957116923      0.45459925849821
  N   1.82319439609698      1.65157058949664      1.14938299834057
  C   0.89935475980942      0.08524834521762     -1.78892015951924
  N   1.09252169635716      0.29401033723456     -2.92801671388407
