12
Coordinates from ORCA-job run
  C   -0.73020654242646     -0.49598229406547      0.08355876335934
  C   0.75357783796483     -0.00862635595105      0.07967028532523
  Br  -0.79786179031571     -2.08421559840328      1.21441839191910
  H   1.05044164147362      0.17771697414438      1.11898952620956
  H   -0.99162420897894     -0.82316724891860     -0.92444950955572
  N   -1.68476610067100      0.45969767117638      0.53244500447015
  H   -1.45832520671190      0.84416835267167      1.44030965670197
  H   -1.82311988105390      1.19983625746184     -0.14378647993430
  C   0.82487682806354      1.25346681542087     -0.66474029507673
  N   0.81146823742796      2.26846982725137     -1.25518279085079
  C   1.66484304622370     -0.99689096919717     -0.50074352534162
  N   2.38069613900427     -1.79447343159096     -0.98048902722621
