12
Coordinates from ORCA-job run
  C   -0.76726061223723     -0.47226392752937      0.00067972860903
  C   0.66919575796484     -0.29632999670697     -0.53618566203131
  Br  -0.91262884948853     -2.22958768578424      0.81610118361629
  H   0.88043368446416     -1.10475039134172     -1.24529335815755
  H   -1.44347391218398     -0.50515001598008     -0.86266601483896
  N   -1.03945252234535      0.53789472343541      0.98599191977805
  H   -1.91703138760323      0.35562236144857      1.45593741488654
  H   -1.09240990131079      1.45049694971214      0.54412974561111
  C   1.66389137903655     -0.34085547791675      0.53963397366895
  N   2.48961751691500     -0.39304533522920      1.37171088207557
  C   0.74242643013775      0.98443813104633     -1.25132518666167
  N   0.72669241665082      2.01253066484589     -1.81871462655605
