12
Coordinates from ORCA-job run
  C   -0.88450487934510     -0.19878337193039     -0.06889271661849
  C   0.54227642106460      0.32897795967280     -0.41334795779599
  Br  -0.86839772692268     -2.14152256699254     -0.19626870650975
  H   0.47871413777670      1.42561282622942     -0.38455729462198
  H   -1.56341955151036      0.15391750923604     -0.84805316526265
  N   -1.38021676449559      0.19466812879720      1.20815514476406
  H   -1.58189538579612      1.18561836836497      1.24751286006736
  H   -0.76367908983590     -0.07604402882744      1.96439039941796
  C   0.98296317449817     -0.05770847647678     -1.75476916799616
  N   1.30549466941996     -0.33780651012751     -2.84838104509568
  C   1.50250903978238     -0.08426515474760      0.61260078269499
  N   2.22915595536394     -0.39266468319816      1.48161086695633
