12
Coordinates from ORCA-job run
  C   -0.82557023686052     -0.50669205916830     -0.08866026649609
  C   0.64639404404384     -0.26658612373268     -0.55453266737680
  Br  -0.92446029204639     -2.35532785782331      0.53497978885876
  H   0.93575118665898     -1.04364892975727     -1.27049667898575
  H   -1.46239402609249     -0.45086864748567     -0.97349498061775
  N   -1.32137419988958      0.37700366915597      0.90571108770681
  H   -1.50108955462054      1.30204860011471      0.53746988626594
  H   -0.73058817913504      0.42000741990930      1.72630371523602
  C   1.55836653996074     -0.30125088795474      0.59042989231666
  N   2.25122811188516     -0.31098024259016      1.53813227028225
  C   0.70429671015926      1.04368355228722     -1.21146269703741
  N   0.66843989593657      2.09461150704494     -1.73437935015264
