12
Coordinates from ORCA-job run
  C   -0.80398416441073     -0.37262210252823     -0.10944990637743
  C   0.67359690490470     -0.27645005111910     -0.54010186565165
  Br  -1.05684519554905     -2.23176829741768      0.61860247334662
  H   0.92612881246193     -1.15298800604490     -1.14555415940464
  H   -1.43513328231663     -0.35764161598485     -0.99749833593325
  N   -1.14574723396180      0.67526626728040      0.75800912177104
  H   -2.14095097192116      0.74092788222002      0.91975722071266
  H   -0.65379920677311      0.63674647899905      1.64231546997014
  C   1.54949397890691     -0.25164671652355      0.63564024842864
  N   2.21925965364497     -0.22022784552458      1.59918964814927
  C   0.86734819329514      0.93201044092067     -1.35120251835542
  N   1.00063251171883      1.87839356572274     -2.03270739665598
