12
Coordinates from ORCA-job run
  C   -0.84618211190301     -0.47174691909552     -0.08052418344946
  C   0.64174130037853     -0.31792935047962     -0.53080503905744
  Br  -1.03826651325213     -2.28736608524412      0.61616485170151
  H   0.90599739901781     -1.13696012201258     -1.20852170821056
  H   -1.46656658381826     -0.42478031805213     -0.97747973474087
  N   -1.31615381747016      0.47403326842757      0.86789192417702
  H   -0.73401591296465      0.52944436205598      1.69399594501308
  H   -1.45498585155515      1.38839994694495      0.45775728771406
  C   1.53404069703511     -0.34502929874928      0.62963672855707
  N   2.21106039896772     -0.35027244868358      1.58882881210578
  C   0.76989148123048      0.95831164933695     -1.24265383760010
  N   0.79143951433371      1.98389531555139     -1.81429104621009
