12
Coordinates from ORCA-job run
  C   -0.83269160993220     -0.49753075647141     -0.07255307543117
  C   0.65139487065854     -0.31171296660917     -0.52460424340158
  Br  -0.97576522958929     -2.30159386053627      0.66337007949683
  H   0.93988577551956     -1.13705536241513     -1.18470043235873
  H   -1.45264904338215     -0.48682447973285     -0.97100871646521
  N   -1.33023022741326      0.45498942589205      0.85523453965089
  H   -0.75383843342892      0.53879532957949      1.68296890509154
  H   -1.48620220905117      1.35824506213878      0.42695907395831
  C   1.54203212601144     -0.28926891474919      0.63727236954972
  N   2.21775267317410     -0.25142667183190      1.59662997134889
  C   0.74387013195464      0.95342637155532     -1.26125365481956
  N   0.73544117547870      1.96995682318028     -1.84931481661993
