16

C	0.0	0.0	0.0
C	-0.106983	-0.161443	-1.588893
Cl	1.910204	0.0	0.0
H	0.614347	0.527452	-2.025849
N	-0.497398	1.228032	0.42643
H	-1.140325	1.094159	1.194779
H	-0.966704	1.738875	-0.307901
N	-0.451471	-1.061003	0.801897
H	-1.477202	-1.065314	0.758881
H	-0.064068	-1.953214	0.525448
N	-1.39482	0.254402	-2.277703
O	-1.586683	1.467738	-2.287681
O	-2.059954	-0.593466	-2.84946
C	0.222441	-1.527129	-1.97011
N	0.490942	-2.634139	-2.2566
Br	-3.652088	0.0	0.0
