18

C	0.0	0.0	0.0
C	-0.197679	0.026674	-1.566242
F	1.37757	0.0	0.0
H	0.426524	-0.776395	-1.948252
N	-0.595033	0.919897	0.834574
H	-1.640582	0.662335	0.687416
H	-0.438204	1.838853	0.436069
N	-0.389073	-1.414092	0.479753
O	-0.705028	-1.558539	1.649853
O	-0.25841	-2.324874	-0.338042
N	0.514646	1.262196	-2.043145
O	0.107281	2.359125	-1.655909
O	1.442425	1.114	-2.839737
C	-1.553045	0.00451	-2.233201
H	-1.395878	0.119734	-3.313166
H	-2.034077	-0.94607	-2.022452
H	-2.211817	0.758918	-1.820628
F	-2.799136	0.0	0.0
