18

C	0.0	0.0	0.0
C	-0.563764	-0.11616	-1.418863
F	1.347213	0.0	0.0
H	-1.641443	-0.28134	-1.272451
N	-0.583231	1.07687	0.647348
H	-1.62515	0.855646	0.522629
H	-0.332992	1.030422	1.62995
N	-0.292471	-1.345215	0.767049
O	-0.192338	-1.283932	1.990203
O	-0.526601	-2.363015	0.124994
N	-0.020912	-1.254161	-2.222092
O	1.189555	-1.472332	-2.222535
O	-0.831398	-1.853609	-2.925745
C	-0.27464	1.14786	-2.215273
H	0.800455	1.336417	-2.272853
H	-0.674049	1.041643	-3.224317
H	-0.760357	1.987075	-1.725649
F	-2.817921	0.0	0.0
