18

C	0.0	0.0	0.0
C	-0.266865	0.049922	-1.541585
F	1.381063	0.0	0.0
H	0.476929	0.794831	-1.839026
N	-0.523008	1.011972	0.797529
H	-1.572837	0.773482	0.692876
H	-0.3678	1.889446	0.312994
N	-0.349664	-1.341825	0.664036
O	-0.915782	-2.22066	0.028122
O	0.04906	-1.451956	1.819721
N	-1.536911	0.731136	-1.984841
O	-2.314134	0.122171	-2.705513
O	-1.599837	1.934996	-1.740165
C	-0.034696	-1.211946	-2.349119
H	-0.892112	-1.870544	-2.279213
H	0.850796	-1.728199	-1.975332
H	0.129702	-0.94815	-3.397164
F	-2.627775	0.0	0.0
