18

C	0.0	0.0	0.0
C	-0.559161	-0.152431	-1.413405
F	1.347439	0.0	0.0
H	-1.643367	-0.274831	-1.260654
N	-0.584748	1.100635	0.61387
H	-1.626982	0.875306	0.49508
H	-0.335322	1.085629	1.59693
N	-0.306087	-1.311649	0.814255
O	-0.046572	-1.238821	2.014984
O	-0.745153	-2.30298	0.247051
N	-0.060378	-1.347167	-2.160239
O	1.063207	-1.797894	-1.937016
O	-0.813235	-1.767142	-3.040143
C	-0.219382	1.064057	-2.259243
H	-0.62529	1.952448	-1.776822
H	0.865126	1.177089	-2.356638
H	-0.663429	0.952141	-3.249979
F	-2.82234	0.0	0.0
