14
Coordinates from ORCA-job run
  C   -0.73651556906998      0.13507491132621     -0.27634763520312
  C   0.59729208754087      0.32427637157535      0.44428483227562
  Cl  -0.81566133688630      1.08337271800847     -1.76170669320822
  H   0.50392637356180     -0.18308251132548      1.41019913233136
  H   0.70466065970695      1.39706859510602      0.63020277725320
  N   -1.82392545339043      0.62887325672414      0.70514416758979
  O   -2.23126616501601     -0.22067527656464      1.48716324292901
  O   -2.10536383500260      1.81444224580943      0.68158138003804
  C   -1.00554079312246     -1.26575861228609     -0.57768049674968
  N   -1.15219740040950     -2.40073368656285     -0.84508515354179
  C   1.78523804210717     -0.22522283168740     -0.33327924307722
  H   1.68406309493494     -1.29880623101456     -0.50428993229330
  H   2.70064505899889     -0.06092740235182      0.23809512111488
  H   1.89564523604666      0.27209845324323     -1.29728149945856
