14
Coordinates from ORCA-job run
  C   -0.77820418524842      0.09248591543433     -0.43454219405274
  C   0.65229436182053     -0.44979024785653     -0.44045406284567
  Cl  -0.91108268131646      1.61565104275639     -1.30874647600051
  H   0.94902864679153     -0.53729877367989     -1.48884408187887
  H   0.60905460887219     -1.45833143794127     -0.02024530158004
  N   -1.15940733246900      0.29693230459750      1.05024685871721
  O   -1.31592702379173     -0.75347766347270      1.65997396184852
  O   -1.19247180190241      1.42904229733443      1.49814179530522
  C   -1.71930593311866     -0.87204931176120     -0.99261094403120
  N   -2.44148501553712     -1.66159315928950     -1.47846528750213
  C   1.63197436229981      0.41652703626848      0.34086935450065
  H   1.41310634328203      0.40219592532954      1.41020318670986
  H   2.64279306058033      0.02773187305669      0.20648038313088
  H   1.61863258973740      1.45197419922372     -0.00100719232119
