14
Coordinates from ORCA-job run
  C   -0.70351078155394      0.16210735117664     -0.23307593792709
  C   0.64078761815763      0.30389234412023      0.46542389053124
  Cl  -0.78347164482367      1.16315694238334     -1.68686677364055
  H   0.76604929092487      1.36181889785646      0.71358382532263
  H   0.57570749957172     -0.24895138354438      1.40375555939114
  N   -1.85667015415948      0.60192356825422      0.72436105967099
  O   -1.62331487752949      0.47279240625022      1.91840037396665
  O   -2.89586429029565      0.97708066232051      0.21079885247884
  C   -1.00336693201753     -1.22558261881104     -0.57448124295044
  N   -1.23627871286882     -2.35235179015028     -0.81556951675890
  C   1.80244130997595     -0.20688525058857     -0.37887718421696
  H   2.73129298824726     -0.10215394472171      0.18452468361637
  H   1.90580352085783      0.35508457788291     -1.30716264879711
  H   1.67939516551334     -1.26393176242855     -0.62481494068680
