16

C	-0.33543	0.164134	-1.468375
C	0.0	0.0	0.0
F	-1.630582	0.584508	-1.689918
H	1.086922	0.0	0.0
H	-0.447651	-0.892306	0.430323
C	0.658468	1.010641	-2.213509
H	1.650901	0.712757	-1.861598
H	0.481695	2.047107	-1.9299
H	0.5492	0.889904	-3.29247
N	-0.303288	-1.271005	-2.016934
O	-1.315702	-1.946902	-1.837142
O	0.725518	-1.656007	-2.565614
N	-0.461379	1.133743	0.809357
O	-0.821838	0.886682	1.962442
O	-0.414195	2.267835	0.335158
F	2.56689	0.0	0.0
