16

C	-0.330509	0.157546	-1.470286
C	0.0	0.0	0.0
F	-1.630734	0.563431	-1.697471
H	1.086909	0.0	0.0
H	-0.445174	-0.891821	0.432628
C	0.657206	1.012584	-2.212723
H	1.652514	0.718592	-1.865849
H	0.476005	2.046023	-1.921067
H	0.544661	0.897706	-3.292189
N	-0.291185	-1.278262	-2.018046
O	0.691795	-1.632157	-2.663877
O	-1.262076	-1.984705	-1.753296
N	-0.466719	1.134524	0.805246
O	-0.805662	0.892417	1.965369
O	-0.452338	2.265262	0.317326
F	2.566848	0.0	0.0
