16

C	-0.334741	0.144159	-1.470295
C	0.0	0.0	0.0
F	-1.637361	0.535083	-1.699107
H	1.086914	0.0	0.0
H	-0.443099	-0.88868	0.442326
C	0.646247	1.000387	-2.22093
H	0.452152	2.036608	-1.948371
H	1.641253	0.72091	-1.863667
H	0.544237	0.867086	-3.299031
N	-0.274174	-1.294967	-2.004512
O	0.751594	-1.659078	-2.570245
O	-1.264824	-1.993859	-1.801522
N	-0.461182	1.141419	0.798551
O	-0.460816	2.266665	0.297104
O	-0.774227	0.910732	1.968099
F	2.563958	0.0	0.0
