16

C	-0.335019	0.15148	-1.469734
C	0.0	0.0	0.0
F	-1.629345	0.57086	-1.692422
H	1.086907	0.0	0.0
H	-0.444893	-0.888212	0.439578
C	0.660008	0.990887	-2.221381
H	1.651389	0.694752	-1.868551
H	0.482923	2.028816	-1.94439
H	0.552603	0.862853	-3.299783
N	-0.304114	-1.286858	-2.008086
O	-1.31167	-1.964496	-1.81906
O	0.71795	-1.671175	-2.566314
N	-0.457555	1.139586	0.800996
O	-0.785877	0.903748	1.964928
O	-0.437852	2.268479	0.307709
F	2.564381	0.0	0.0
