16

C	-0.404594	0.170694	-1.437238
C	0.0	0.0	0.0
F	-1.724334	0.55028	-1.568994
H	1.089432	0.0	0.0
H	-0.323134	0.890372	0.541081
C	0.520771	1.192803	-2.06176
H	0.387098	1.227049	-3.14524
H	0.280294	2.172437	-1.641785
H	1.540081	0.920509	-1.773407
N	-0.259478	-1.113728	-2.247748
O	0.875601	-1.561092	-2.327615
O	-1.256872	-1.560963	-2.801107
N	-0.587661	-1.140317	0.705834
O	-0.78983	-2.185698	0.084861
O	-0.805068	-0.999008	1.911047
F	2.557656	0.0	0.0
