14

C	-0.450418	0.054088	-1.475574
C	0.0	0.0	0.0
Br	-0.079767	-1.695834	-2.276013
H	1.09154	0.0	0.0
H	-1.534964	0.173646	-1.527277
N	0.204456	1.08394	-2.216698
H	1.195795	1.097241	-1.986776
H	-0.205196	1.98519	-2.010777
C	-0.578442	-1.085049	0.774839
N	-1.043243	-1.955076	1.413108
N	-0.482816	1.305736	0.584544
O	0.33937	2.201395	0.739425
O	-1.693955	1.39949	0.791639
Br	3.385646	0.0	0.0
