14

C	-0.442006	0.057714	-1.45993
C	0.0	0.0	0.0
Br	-0.110654	-1.773129	-2.26429
H	1.092052	0.0	0.0
H	-1.521728	0.161475	-1.552244
N	0.250088	1.113615	-2.068661
H	1.254783	1.03271	-1.928051
H	0.028124	1.21614	-3.047946
C	-0.561023	-1.105746	0.759262
N	-1.013258	-1.973935	1.408113
N	-0.491877	1.280546	0.642152
O	-1.713362	1.388419	0.7553
O	0.339002	2.109258	0.982555
Br	3.399178	0.0	0.0
