14

C	-0.513322	0.028241	-1.435371
C	0.0	0.0	0.0
Br	-0.0772	-1.756411	-2.270248
H	1.091981	0.0	0.0
H	-1.602474	0.047994	-1.460915
N	0.040318	1.147854	-2.078364
H	-0.284445	1.246358	-3.029688
H	1.056094	1.137483	-2.039771
C	-0.535452	-1.102262	0.785712
N	-0.965992	-1.977437	1.439967
N	-0.492735	1.292818	0.620008
O	0.335287	2.147263	0.895818
O	-1.711482	1.388717	0.764564
Br	3.394605	0.0	0.0
