14

C	-0.521432	-0.004973	-1.426326
C	0.0	0.0	0.0
Br	0.209017	1.664217	-2.324338
H	1.090592	0.0	0.0
H	0.016786	-0.791733	-1.95498
N	-1.91597	-0.170696	-1.547953
H	-2.20107	-0.215121	-2.517225
H	-2.40574	0.568798	-1.061676
C	-0.50733	-1.15087	0.730502
N	-0.897012	-2.096904	1.299937
N	-0.451571	1.180135	0.835173
O	-1.610501	1.637185	0.566457
O	0.426607	1.913888	1.29114
Br	3.169383	0.0	0.0
