14

C	-0.301201	-0.064776	-1.487957
C	0.0	0.0	0.0
Br	-2.245332	-0.158763	-1.833262
H	1.095698	0.0	0.0
H	-0.011721	0.890314	-1.929233
N	0.347571	-1.233599	-2.005852
H	0.343102	-1.21087	-3.018032
H	1.317255	-1.224774	-1.684325
C	-0.51705	-1.129662	0.750563
N	-0.916055	-2.054528	1.35404
N	-0.441365	1.296027	0.603296
O	-0.278191	2.299837	-0.083965
O	-0.884459	1.277699	1.747439
Br	3.316121	0.0	0.0
