16

C	0.0	0.0	0.0
C	-0.367728	-0.204775	-1.515598
Br	1.950798	0.0	0.0
H	0.462198	-0.740177	-1.9878
H	-0.345644	0.809933	-1.915157
C	-0.683644	1.147217	0.722835
H	-1.743023	1.151577	0.437503
H	-0.674192	0.976059	1.794928
H	-0.233329	2.124844	0.539699
N	-0.320908	-1.328373	0.720778
O	-0.149838	-2.340145	0.047554
O	-0.689385	-1.321155	1.889917
N	-1.596606	-0.824801	-1.908459
H	-1.649306	-1.757595	-1.508371
H	-2.425664	-0.340043	-1.56882
Cl	-4.021862	0.0	0.0
