16

C	0.0	0.0	0.0
C	-0.399228	-0.084855	-1.49294
Br	1.950962	0.0	0.0
H	-0.039101	0.852589	-1.93388
H	0.182151	-0.893564	-1.939331
C	-0.603418	1.158899	0.744652
H	-0.251845	1.2042	1.773334
H	-0.347079	2.086761	0.228139
H	-1.691516	1.024684	0.740619
N	-0.353659	-1.306268	0.713605
O	-0.489267	-1.262241	1.930974
O	-0.431025	-2.318257	0.023735
N	-1.782346	-0.268919	-1.813807
H	-2.136463	-1.144579	-1.453193
H	-2.403961	0.432735	-1.425916
Cl	-4.385634	0.0	0.0
