16

C	0.0	0.0	0.0
C	-0.558531	0.629881	-1.264111
Br	1.956212	0.0	0.0
H	-0.180086	0.09234	-2.134783
H	-1.640297	0.46094	-1.193762
C	-0.514427	0.642451	1.260336
H	-0.106821	0.152953	2.141706
H	-0.233368	1.695955	1.238153
H	-1.606416	0.553632	1.250896
N	-0.340586	-1.493298	0.004056
O	-0.39859	-2.055951	1.091062
O	-0.480327	-2.04055	-1.086079
N	-0.270223	2.059573	-1.281501
H	0.495518	2.255913	-1.913298
H	-1.090423	2.557243	-1.599306
Cl	-3.832259	0.0	0.0
