16

C	0.0	0.0	0.0
C	-0.567585	-0.162677	-1.398643
Br	1.954644	0.0	0.0
H	-0.371416	0.788284	-1.903669
H	-1.654107	-0.243242	-1.243491
C	-0.531562	1.24586	0.670487
H	-0.149457	1.330218	1.685823
H	-1.625031	1.171827	0.682144
H	-0.224097	2.118992	0.091791
N	-0.36261	-1.206162	0.871115
O	-0.274441	-1.067393	2.085606
O	-0.680692	-2.246085	0.30201
N	0.026571	-1.232129	-2.195327
H	-0.400129	-2.104085	-1.909991
H	-0.225294	-1.071251	-3.163063
Cl	-3.848805	0.0	0.0
