16

C	0.0	0.0	0.0
C	-0.402131	0.259002	-1.4742
Br	1.951762	0.0	0.0
H	-0.11877	1.301566	-1.663677
H	0.238346	-0.364548	-2.099561
C	-0.609088	0.947736	0.995002
H	-0.357802	1.971318	0.709452
H	-1.697585	0.816291	0.962567
H	-0.256532	0.752376	2.005997
N	-0.346458	-1.438921	0.381262
O	-0.367136	-2.266862	-0.524843
O	-0.533141	-1.680078	1.568841
N	-1.765882	0.042215	-1.857667
H	-2.46195	0.500705	-1.274538
H	-1.996288	-0.941145	-1.81213
Cl	-4.364106	0.0	0.0
