16

C	0.0	0.0	0.0
C	-0.400121	-0.284219	-1.47075
Br	1.955971	0.0	0.0
H	-0.128938	0.629072	-2.015018
H	0.249049	-1.080921	-1.836542
C	-0.613577	1.238395	0.588619
H	-0.26162	1.425091	1.600678
H	-0.368741	2.089759	-0.048548
H	-1.701139	1.0968	0.605758
N	-0.340611	-1.2098	0.868819
O	-0.338477	-2.308701	0.322274
O	-0.543589	-1.010452	2.061336
N	-1.76051	-0.638029	-1.751024
H	-2.462276	-0.00607	-1.371832
H	-1.979259	-1.539812	-1.350465
Cl	-4.354349	0.0	0.0
