14

C	-0.506097	-0.069666	-1.428446
C	0.0	0.0	0.0
F	-1.855798	-0.231341	-1.461244
H	1.092949	0.0	0.0
H	-0.01445	-0.873235	-1.973657
N	-0.161863	1.218275	-2.143817
O	1.011337	1.31855	-2.481234
O	-1.062852	2.035331	-2.307301
N	-0.391454	-1.299216	0.665218
O	-0.786214	-1.254413	1.823234
O	-0.236958	-2.310826	-0.012952
C	-0.551715	1.129288	0.729301
N	-0.973523	2.077878	1.278745
Br	3.311207	0.0	0.0
