14

C	-0.507397	-0.046356	-1.425936
C	0.0	0.0	0.0
F	-1.853238	-0.230787	-1.460628
H	1.092895	0.0	0.0
H	-0.002171	-0.824085	-1.993269
N	-0.19605	1.264176	-2.106058
O	-1.065157	2.128479	-2.086976
O	0.911627	1.33409	-2.620883
N	-0.367031	-1.308222	0.655201
O	-0.661292	-1.288983	1.842803
O	-0.275832	-2.305892	-0.052298
C	-0.547808	1.109852	0.760482
N	-0.981242	2.020386	1.362749
Br	3.265809	0.0	0.0
