15

C	-0.417889	-0.003834	-1.471895
C	0.0	0.0	0.0
Br	0.281224	1.611384	-2.38501
H	1.095934	0.0	0.0
C	0.119467	-1.17371	-2.175328
N	0.466276	-2.121709	-2.778126
C	-1.871547	0.012268	-1.636299
N	-3.045565	0.002931	-1.722454
C	-0.39728	-1.294733	0.707411
H	-0.061052	-1.228292	1.745177
H	0.13741	-2.129069	0.24944
H	-1.474357	-1.486704	0.693814
C	-0.533851	1.166329	0.673061
N	-0.938312	2.099707	1.266035
H	2.573761	0.0	0.0
