15

C	-0.434319	0.00608	-1.4658
C	0.0	0.0	0.0
Br	0.443311	-1.501419	-2.446479
H	1.096027	0.0	0.0
C	-1.873629	-0.200647	-1.621668
N	-3.03446	-0.378338	-1.699423
C	-0.034559	1.239592	-2.146749
N	0.270176	2.226179	-2.710078
C	-0.450299	-1.234134	0.7721
H	-0.024735	-2.127308	0.311088
H	-1.538206	-1.328804	0.826482
H	-0.046977	-1.164689	1.785088
C	-0.473099	1.219235	0.627587
N	-0.8677	2.195756	1.154018
H	2.557048	0.0	0.0
