12
Coordinates from ORCA-job run
  C   -0.63349710445826     -0.12617138264595      0.40512308651499
  C   0.59996835414957      0.20098740148452     -0.40798934097559
  Cl  -0.95451587716063      1.09660794293304      1.61142939019916
  H   0.72960691709258     -0.53814311695711     -1.20014978483464
  H   -0.53475152106441     -1.09573859190050      0.88805407346956
  H   0.56889115067216      1.21372946974900     -0.80589259783685
  N   -1.78252689979458     -0.27440464269099     -0.58297016137869
  O   -2.65331968609298      0.57856684966579     -0.63294617530713
  O   -1.68872820850200     -1.28059290174375     -1.27966295936925
  N   1.81281499078353      0.10627395797429      0.46222566709970
  O   2.64625415111436      0.99826514876206      0.35332556892256
  O   1.88880373326065     -0.87938013463037      1.18945323349617
