12
Coordinates from ORCA-job run
  C   -0.64082326985418     -0.54327148681221      0.38487697382564
  C   0.56411974775085      0.30023360661504      0.70693887089375
  Cl  -1.77367928038856     -0.48602757188432      1.73751244976903
  H   0.29723098845711      1.34419882907249      0.85187908086654
  H   -0.40202029198049     -1.58033215410674      0.16840873850912
  H   1.07165097241972     -0.07972053616794      1.59469114373876
  N   -1.34259678656678     -0.01986287365096     -0.84633894817962
  O   -1.23052573083591      1.17732095762286     -1.08577032822178
  O   -1.98518213786118     -0.84319986268330     -1.48354861312886
  N   1.56209514549602      0.25782470357825     -0.40826344103574
  O   2.47656172381489      1.06773461380701     -0.34011816615302
  O   1.40416891954852     -0.59489822539018     -1.27926776088383
