12
Coordinates from ORCA-job run
  C   -0.62199332648782     -0.59827880739358      0.33349566972984
  C   0.56872714005137      0.23398196292105      0.72950907820582
  Cl  -1.73656925415111     -0.71216724230861      1.69772096316335
  H   0.28096892300832      1.24708643994837      0.99912208438576
  H   -0.36307896394809     -1.60054494510578      0.00530666140568
  H   1.10263969950959     -0.23385245424958      1.55802586873732
  N   -1.35174880747939      0.03694383634145     -0.82649171522428
  O   -1.98440415820971     -0.72825331641786     -1.54150863430682
  O   -1.26910268197033      1.25524031230676     -0.93688821720797
  N   1.54395746086886      0.34448750072911     -0.40080867683539
  O   2.41971286362093      1.18940425006989     -0.27398986653939
  O   1.40989110518737     -0.43404753684122     -1.34249321551392
