12
Coordinates from ORCA-job run
  C   -0.71920935157399     -0.52887409381273      0.29022381281974
  C   0.72867198913278     -0.60766197943760     -0.13308808594007
  Cl  -0.89332832272039     -0.26152080546924      2.00997805309674
  H   1.22913942469660     -1.43781582174390      0.36100033638351
  H   -1.21132053315000     -1.46818575844925      0.03283324137414
  H   0.79409185698277     -0.70858830946002     -1.21681959303287
  N   -1.46891783407452      0.51343064913827     -0.53913549154416
  O   -2.14991544301929      1.35278987969822      0.01810916415826
  O   -1.33287542351481      0.34611182202310     -1.74594637275553
  N   1.48489122535475      0.62852551537628      0.23151881279902
  O   0.89425533306976      1.69486748226109      0.09201895997574
  O   2.64451707881634      0.47692141987579      0.59830716266549
