12
Coordinates from ORCA-job run
  C   -0.68543575100264     -0.60158635557609      0.14510137023108
  C   0.62925643588972     -0.12627925629951      0.70423798828778
  Cl  -1.73886847463882     -1.10194875325028      1.47041528793051
  H   1.12444589929456     -0.92853509160494      1.25309124760660
  H   -0.58796062944607     -1.42396851176953     -0.55746034895818
  H   0.50224162350228      0.73950147697588      1.34956938139898
  N   -1.37270938738816      0.50763084303582     -0.61617802296214
  O   -1.11615966680133      1.65813336813161     -0.27898457773252
  O   -2.14910170990912      0.15040293365285     -1.49162572142868
  N   1.56235794184389      0.28235756371066     -0.39273963315342
  O   1.25826006560883     -0.03041044912068     -1.54190910649282
  O   2.57367365304685      0.87570223211420     -0.04351786472721
