12
Coordinates from ORCA-job run
  C   -0.64010129389209     -0.62762702327199      0.27538303103198
  C   0.73160941365452     -0.51303783909742     -0.34714652855750
  Cl  -0.57247547750422     -0.69065981225002      2.02195123644751
  H   0.64023464888577     -0.39945490783363     -1.42778329598538
  H   -1.11608248466649     -1.54022577868048     -0.08667171853272
  H   1.34109098006470     -1.37987137264853     -0.10071234045200
  N   -1.55666566198190      0.48655576543011     -0.23068276332979
  O   -2.18241588504658      1.16169593276183      0.56394606837136
  O   -1.59978720100515      0.54521999316137     -1.45434863325685
  N   1.46864485306537      0.68713393254813      0.15210531719986
  O   0.81600009139669      1.71907773252179      0.27321841504553
  O   2.66894801702939      0.55219337735884      0.36074121201801
