12
Coordinates from ORCA-job run
  C   -0.58751131190507     -0.67565472191514      0.22797289134278
  C   0.64907832976694      0.04432530743796      0.69598116807159
  Cl  -1.54048319904386     -1.17214043631671      1.62897383751139
  H   0.40379979904674      0.94789444746399      1.24872656617873
  H   -0.37927062694625     -1.54850775128473     -0.38367490562818
  H   1.26446238820164     -0.61187997006084      1.31305823644564
  N   -1.43913009756690      0.23104704758468     -0.62932052933610
  O   -2.15790340995627     -0.32902856203705     -1.44569357733952
  O   -1.35712475108735      1.43612619108848     -0.41911884119733
  N   1.49838344788143      0.46169484168697     -0.46423158290670
  O   1.23082928675041     -0.01655087068987     -1.56442240491216
  O   2.41487014485854      1.23067447704226     -0.20825085823013
