18

C	0.0	0.0	0.0
C	-0.490216	0.082265	-1.470922
Cl	1.799289	0.0	0.0
H	-1.581451	0.207586	-1.376679
C	-0.444304	1.234921	0.766344
H	-1.536491	1.277149	0.754459
H	-0.031916	2.141035	0.319877
H	-0.094614	1.14783	1.796078
N	-0.471479	-1.164767	0.700557
H	-1.490653	-1.081737	0.750082
H	-0.245676	-2.005686	0.182788
C	-0.216503	-1.172135	-2.303303
H	-0.53802	-1.011286	-3.334391
H	-0.793173	-2.010229	-1.908937
H	0.846793	-1.422976	-2.303325
C	0.04661	1.259494	-2.150719
N	0.478452	2.186838	-2.729311
Br	-3.827568	0.0	0.0
