18

C	0.0	0.0	0.0
C	-0.505803	-0.214372	-1.438026
Cl	1.846525	0.0	0.0
H	-1.594448	-0.053025	-1.346111
C	-0.466544	1.337988	0.534259
H	-0.079806	1.49353	1.544885
H	-1.561988	1.314208	0.549056
H	-0.113828	2.151434	-0.100405
N	-0.490911	-1.051714	0.811342
H	0.020777	-1.914391	0.691158
H	-0.53182	-0.793688	1.786816
C	-0.275621	-1.626163	-1.974027
H	-0.621602	-1.694487	-3.007459
H	-0.861802	-2.327074	-1.378339
H	0.783192	-1.894717	-1.943592
C	0.043914	0.784583	-2.353381
N	0.464104	1.573229	-3.116044
Br	-3.96319	0.0	0.0
