18

C	0.0	0.0	0.0
C	-0.491819	0.115083	-1.468205
Cl	1.799418	0.0	0.0
H	-1.582719	0.241222	-1.370418
C	-0.444125	1.218017	0.793665
H	-1.536109	1.263224	0.780684
H	-0.029855	2.133258	0.36769
H	-0.096127	1.108397	1.82189
N	-0.470785	-1.180217	0.675023
H	-0.247195	-2.008788	0.136807
H	-1.489402	-1.097351	0.729507
C	-0.22236	-1.122387	-2.326947
H	0.838945	-1.380664	-2.32712
H	-0.536923	-0.936961	-3.355658
H	-0.807135	-1.963995	-1.953808
C	0.047382	1.305626	-2.122447
N	0.481042	2.244709	-2.680411
Br	-3.82909	0.0	0.0
