12

C	0.0	0.0	0.0
C	-0.499856	0.320534	-1.418565
Cl	1.788302	0.0	0.0
H	-1.602696	0.314523	-1.353259
H	-0.163896	-0.475095	-2.089172
C	-0.416158	1.01101	0.978387
N	-0.6012	1.817105	1.813158
C	-0.428375	-1.345319	0.402846
N	-0.565324	-2.47428	0.700894
C	-0.006981	1.606177	-1.891983
N	0.382737	2.633922	-2.305194
Br	-3.473367	0.0	0.0
