12

C	0.0	0.0	0.0
C	-0.499099	-0.252084	-1.433526
Cl	1.788078	0.0	0.0
H	-1.602337	-0.247475	-1.371358
H	-0.161845	0.574671	-2.064275
C	-0.431044	1.324053	0.463563
N	-0.573189	2.438674	0.808388
C	-0.418097	-1.058241	0.926485
N	-0.608182	-1.914213	1.709194
C	-0.006684	-1.5142	-1.967038
N	0.383891	-2.523898	-2.421874
Br	-3.479224	0.0	0.0
