12

C	0.0	0.0	0.0
C	-0.216594	0.194655	-1.544111
Cl	1.791264	0.0	0.0
H	0.369467	-0.605164	-2.006795
H	0.300393	1.130192	-1.77938
C	-0.443907	1.13042	0.813077
N	-0.506717	2.105178	1.468522
C	-0.436745	-1.303341	0.499615
N	-0.50948	-2.409816	0.893237
C	-1.49453	0.22745	-2.25962
N	-2.153658	0.287908	-3.235919
Br	-3.130418	0.0	0.0
