15
Coordinates from ORCA-job run
  C   -0.48004637792008     -0.27265528523632      0.32507211236797
  C   0.89664212160389     -0.65037387269534     -0.26762100937776
  Cl  -0.83664539316648     -1.39356802555482      1.64952849952143
  H   0.86025656212262     -1.70294006554951     -0.56461398821002
  C   -0.57562856390455      1.16010904177091      0.78216988659726
  H   -0.41211627391092      1.83417237120837     -0.06165207769020
  H   -1.56256933851138      1.35117320023588      1.19777665055783
  H   0.17833999481549      1.34592125243250      1.54849968511867
  N   -1.52471367186949     -0.55548349264469     -0.76320322192156
  O   -1.26455822406329     -1.45573821339205     -1.55423260179017
  O   -2.55068300545060      0.10913623805019     -0.72424138597313
  C   1.94584880077930     -0.46331336487302      0.73689738781351
  N   2.78149773574462     -0.30830971123914      1.54695617607450
  C   1.17300999565623      0.16558705837246     -1.45405145422620
  N   1.36936563807464      0.83828286911459     -2.39628465886214
