15
Coordinates from ORCA-job run
  C   -0.38897203494124     -0.25821864729009      0.23766245700862
  C   0.94517049628545      0.05250031381629     -0.47605116923562
  Cl  -0.25749873950447     -1.77443328801522      1.11334953185931
  H   0.80347335613344      0.97336893396525     -1.05133680194087
  C   -0.83668894130780      0.86529133414373      1.15102413182720
  H   -1.80375322547965      0.60931066436963      1.58645320035386
  H   -0.93039413464829      1.79219356170210      0.57967945534553
  H   -0.11406770937603      1.00157014220022      1.95625685914713
  N   -1.46271126346064     -0.38449390644466     -0.85755894731423
  O   -1.31260985025303      0.36592893728497     -1.81770091134815
  O   -2.40201794977151     -1.13503827412478     -0.65507826757630
  C   1.31506655519389     -1.01061206736290     -1.41382159957497
  N   1.60395298171283     -1.85695682366850     -2.17455550498146
  C   2.00224952707605      0.27431751354173      0.51225257200058
  N   2.83780093234103      0.48627160588223      1.30942499442938
