15
Coordinates from ORCA-job run
  C   -0.41499197225266     -0.22524612022485      0.22785522147754
  C   0.94754567943425     -0.02799077881974     -0.47397364642603
  Cl  -0.44664156719594     -1.78023305357841      1.04163262770060
  H   0.90559669999319      0.92614354024556     -1.00960621311710
  C   -0.74447336043451      0.90175130476721      1.18623203553777
  H   -0.74066562876548      1.85531405058668      0.65290976410679
  H   -1.73302830755998      0.73072535029143      1.61494878189231
  H   -0.01238765156122      0.92950355770108      1.99395300028787
  N   -1.48875955902761     -0.19216098397077     -0.87406238389752
  O   -2.48085000466226     -0.88733628356370     -0.73565011925189
  O   -1.27620786140539      0.61915628748021     -1.77106279823251
  C   1.20375831371307     -1.08542504560271     -1.45518264037654
  N   1.40042463566017     -1.92571151830549     -2.25110085996753
  C   2.01777963730583      0.03761233517966      0.52287566647834
  N   2.86390094675854      0.12389735781385      1.33223156378791
