15
Coordinates from ORCA-job run
  C   -0.39221378480061     -0.24897118744127      0.24319455878391
  C   0.94912789552232      0.03404912622873     -0.46971230488860
  Cl  -0.27642299692638     -1.74120035927806      1.16036311762940
  H   0.81786894417137      0.94242342070263     -1.06701312066468
  C   -0.83846988569487      0.90207405627301      1.12237836467893
  H   -1.80874104686398      0.66363661220905      1.56048619725548
  H   -0.11939235741594      1.05707592329647      1.92729809429522
  H   -0.92456890078153      1.81259712797114      0.52480728104731
  N   -1.45643497418880     -0.39670429316741     -0.85868380305780
  O   -2.37923280921991     -1.17089276161724     -0.66996697654456
  O   -1.31459764856311      0.36315674346016     -1.81276858697442
  C   1.31327709234751     -1.05465108686611     -1.38003863661346
  N   1.59511113366907     -1.92117598510803     -2.12033183628114
  C   2.00187994281435      0.26933805963904      0.52009325974200
  N   2.83280939593050      0.48924460369789      1.31989439159241
