15
Coordinates from ORCA-job run
  C   -0.39534726566408     -0.22890509100446      0.42302630548618
  C   1.10210303513136     -0.12849626100319      0.06671922981359
  Cl  -0.56521606999257     -1.39537128052442      1.74211233375830
  H   1.59473925287260      0.20403732564655      0.98980002590163
  C   -0.99593430475338      1.10612695104287      0.80583766459387
  H   -0.44299672789278      1.53304180268079      1.64435487665361
  H   -2.03406360545908      0.95990548840779      1.10027038079520
  H   -0.95645590252443      1.79436179196205     -0.04168175496538
  N   -1.18121409078739     -0.76522714990964     -0.77594564697731
  O   -0.55094836759617     -0.98391150378111     -1.80561926544848
  O   -2.38488948355294     -0.89456642088921     -0.60861594831082
  C   1.34481937578066      0.89218399448801     -0.95689180104522
  N   1.53941714216293      1.75666210951317     -1.72712713481266
  C   1.70102796340258     -1.41393985052158     -0.30324487084047
  N   2.22495904887269     -2.43490190610762     -0.54999439460205
