15
Coordinates from ORCA-job run
  C   -0.50037693350036     -0.30218277405998      0.21378449056751
  C   1.00390340194582     -0.47022291175640     -0.08377870674314
  Cl  -1.17309321273064     -1.90372234715819      0.54741582423137
  H   1.42670630151358     -0.92317857518016      0.82265147752392
  C   -0.76653563633657      0.64275041294674      1.36527933943615
  H   -0.24963473764858      0.28999545549612      2.25950170425316
  H   -1.83726877013399      0.67473585873526      1.56127145297964
  H   -0.41635393213112      1.64742566147967      1.11721757915035
  N   -1.21581773607213      0.25472732105740     -1.01948109945619
  O   -2.42045216880251      0.42559596296454     -0.90415052996064
  O   -0.52354366470647      0.51467831949785     -1.99850789761434
  C   1.66196472158676      0.82497914752048     -0.27927690964503
  N   2.19344683010089      1.86818963005357     -0.36642094993340
  C   1.27964533553110     -1.38661540570924     -1.19385013240195
  N   1.53841020138426     -2.15715575588772     -2.04065564238747
