15
Coordinates from ORCA-job run
  C   -0.48080221665442     -0.27436025228117      0.32275968647500
  C   0.88661883324047     -0.65396282581734     -0.28937239837402
  Cl  -0.83983521101621     -1.42051965634549      1.62481161427123
  H   0.83554960902904     -1.69863081527197     -0.61104633316285
  C   -0.55673213930091      1.14889110864985      0.81209076508003
  H   -1.53770530913005      1.34110006249669      1.24112344907525
  H   0.20637246653837      1.30991069936075      1.57500701045209
  H   -0.39381939313091      1.83953361298985     -0.01833343432140
  N   -1.53722830930663     -0.52075263749197     -0.76325648886598
  O   -1.29624393948852     -1.40876321842530     -1.57381145399342
  O   -2.55556572940246      0.15355856659830     -0.69968660435725
  C   1.94666108212915     -0.50375936741036      0.70981458952830
  N   2.79495412979156     -0.38000576489768      1.51207520805649
  C   1.16418630693407      0.18680629450633     -1.45811329001801
  N   1.36358981976751      0.88095419333951     -2.38406231984543
