15
Coordinates from ORCA-job run
  C   -0.48379242336056     -0.26494588548358      0.32842960113701
  C   0.88866157514537     -0.66137409516434     -0.26182053507138
  Cl  -0.85451669794561     -1.37607599689703      1.65726183786082
  H   0.84025673604824     -1.71589151285556     -0.55029770508775
  C   -0.56374258155366      1.17027768339663      0.77979006595875
  H   -1.54937477898175      1.37502912303672      1.19207801789933
  H   -0.38993935638008      1.83976768271016     -0.06544261682037
  H   0.19011594618280      1.34893402483237      1.54793018732487
  N   -1.52651588172765     -0.54304167937569     -0.76335737812725
  O   -2.51943714674018      0.17110310297694     -0.77194169195131
  O   -1.29593398022259     -1.48644791328757     -1.51180529692375
  C   1.94207634553978     -0.47720523455022      0.73845534766492
  N   2.78330137202425     -0.32403962610054      1.54305215829418
  C   1.17006402831482      0.14144741522006     -1.45611662818287
  N   1.36877684365686      0.80246291154162     -2.40621536397521
