15
Coordinates from ORCA-job run
  C   -0.49286236987726     -0.25203536774992      0.32434402075058
  C   0.88333020961822     -0.67912667709931     -0.23565631688113
  Cl  -0.90323922953104     -1.33362348869938      1.66557043344048
  H   0.82352885866814     -1.73732168304187     -0.50811631871019
  C   -0.55821286462419      1.19211034022819      0.74881765272916
  H   -0.35880160428016      1.84348437072408     -0.10484122754251
  H   0.18437707180961      1.37313594964517      1.52731522784270
  H   -1.54785437190130      1.41931499098515      1.13917412123964
  N   -1.52066972547971     -0.53339887299843     -0.78064421358325
  O   -2.50214014301944      0.19546487275301     -0.81896412657183
  O   -1.29177939621340     -1.49259417945297     -1.50913047749690
  C   1.92219846530848     -0.49621429976975      0.78001578803612
  N   2.75095412003387     -0.34914992819147      1.59870741870526
  C   1.19663624034039      0.10095382826988     -1.43687538171093
  N   1.41653473914777      0.74800014439763     -2.39171660024721
