15
Coordinates from ORCA-job run
  C   -0.43458855273227     -0.16549687729675      0.25622019622036
  C   0.93907844184177     -0.15499767515033     -0.45343839984682
  Cl  -0.58751037684839     -1.60603071981049      1.24375820001056
  H   0.96490931600013      0.73341052453634     -1.09391504865625
  C   -0.67481631678895      1.08838381617404      1.07302539847161
  H   0.04612505855990      1.14258766359720      1.88942992097945
  H   -1.67992363171484      1.05510863230928      1.49681751247005
  H   -0.57973338246452      1.97045563479577      0.43660091932488
  N   -1.48872746313669     -0.17831878264305     -0.86654293706468
  O   -1.27607197032028      0.64106987878377     -1.75626157215891
  O   -2.44922493505753     -0.92237132048879     -0.76997038264060
  C   1.10644719946926     -1.33300063642491     -1.30843511200544
  N   1.22655556022452     -2.26647550371617     -2.01038543841771
  C   2.01590740980812     -0.05730115731174      0.53282956220314
  N   2.87057364315979      0.05297652264586      1.33026718111035
