15
Coordinates from ORCA-job run
  C   -0.42271879351021     -0.21353697010717      0.23955835578837
  C   0.94945455033413     -0.05478805410950     -0.45513755586404
  Cl  -0.47719134068640     -1.72911256696492      1.11921558357979
  H   0.91534595182145      0.87789849383522     -1.02872921359374
  C   -0.75414119481366      0.95795789231216      1.14221057778461
  H   -1.75553922573657      0.82346368243155      1.55457076092789
  H   -0.04125975949815      1.00424837527702      1.96615437016887
  H   -0.72022579822990      1.88796672075574      0.57117106637703
  N   -1.46916050472235     -0.21934568628236     -0.89057497933350
  O   -1.31010914933866      0.67351723178056     -1.71872548840445
  O   -2.37634813239663     -1.03248317962040     -0.85478140928963
  C   1.20299418855094     -1.15256554658222     -1.39188134790462
  N   1.39215672241864     -2.02393180019317     -2.15569539027873
  C   2.01295443360256      0.04467856953586      0.54537432525548
  N   2.85378805220485      0.15603283793167      1.35727034478666
