15
Coordinates from ORCA-job run
  C   -0.43552919283226     -0.15217591156791      0.25513716261784
  C   0.94072727946513     -0.18181600464254     -0.44731270493026
  Cl  -0.61348422951807     -1.56544311147800      1.27931161966497
  H   0.98615538783853      0.68736733560441     -1.11212250769156
  C   -0.66080216222721      1.12568508531696      1.03846686737699
  H   -0.55772156753034      1.98889703136260      0.37708052775582
  H   0.06273102051357      1.19584531253342      1.85135047349284
  H   -1.66542993947059      1.11403733469985      1.46425091469804
  N   -1.49333578274590     -0.17731514854712     -0.86318080013206
  O   -2.51169497989520     -0.82468691602661     -0.69082238405476
  O   -1.23256588291264      0.54669868504692     -1.82023470315403
  C   1.09601576053931     -1.38486572966626     -1.26907113137215
  N   1.20569408556143     -2.33473715919327     -1.95034389720080
  C   2.01282780242438     -0.07507053497834      0.54355619215184
  N   2.86441240078991      0.03757973153591      1.34393437077728
