15
Coordinates from ORCA-job run
  C   -0.51186891005251     -0.24865715006118      0.25325080852279
  C   0.95945103971084     -0.55280187045120     -0.09646743972460
  Cl  -1.28852363147054     -1.76958527645601      0.71443687383912
  H   1.38789519535830     -0.98498490489291      0.81730417034450
  C   -0.65004114582106      0.78047706698474      1.35391179364249
  H   -0.23734906061281      1.73826005543140      1.02857866211675
  H   -0.11870362666206      0.44168858732692      2.24502087885753
  H   -1.70450466714606      0.90810049115985      1.59411689878403
  N   -1.23990036801090      0.29004575243181     -0.98050128946881
  O   -0.57601327724167      0.43864727164153     -2.00155287389518
  O   -2.42155411367586      0.56074323347793     -0.82552262399050
  C   1.70573191017887      0.67212328673115     -0.39877862421657
  N   2.31344146194077      1.66109182771898     -0.57490302313890
  C   1.11163045905754     -1.55020324694082     -1.15950550653657
  N   1.27030873444714     -2.38494512410223     -1.96938870513614
