14

C	-0.584197	-0.035532	-1.401346
C	0.0	0.0	0.0
F	-0.26942	-1.225443	-2.054035
H	1.100078	0.0	0.0
H	-1.675543	0.003007	-1.311099
C	-0.145688	1.094026	-2.231024
N	0.149309	1.977064	-2.94469
N	-0.530233	-1.168157	0.716249
H	0.058737	-1.288102	1.536288
H	-0.351382	-1.986488	0.140562
N	-0.465242	1.238113	0.602682
H	0.294006	1.672781	1.109635
H	-1.223948	1.024992	1.239477
Br	3.57147	0.0	0.0
