14

C	-0.435171	0.020624	-1.457693
C	0.0	0.0	0.0
F	-1.839242	0.146379	-1.507036
H	1.09552	0.0	0.0
H	-0.019968	0.896094	-1.964769
C	-0.080795	-1.194749	-2.203592
N	0.163304	-2.126162	-2.875838
N	-0.488365	-1.222341	0.606624
H	-1.48815	-1.13726	0.769057
H	-0.039144	-1.310122	1.511587
N	-0.4269	1.209641	0.702404
H	0.212296	1.968331	0.495376
H	-1.357681	1.47723	0.404119
Br	3.540762	0.0	0.0
