14

C	-0.518989	0.00814	-1.433881
C	0.0	0.0	0.0
F	-0.099612	-1.11631	-2.125385
H	1.101227	0.0	0.0
H	-1.614941	-0.028398	-1.395195
C	-0.11236	1.2144	-2.174799
N	0.179929	2.172992	-2.786005
N	-0.57738	-1.186355	0.632175
H	-0.306435	-1.127458	1.60809
H	-0.102342	-1.998001	0.250041
N	-0.436091	1.167539	0.734971
H	0.191112	1.940051	0.559038
H	-1.386422	1.431773	0.50437
Br	3.59618	0.0	0.0
