14

C	-0.435386	-0.001043	-1.455421
C	0.0	0.0	0.0
F	-1.805354	0.224958	-1.570469
H	1.101874	0.0	0.0
H	0.083234	0.816194	-1.960471
C	-0.139402	-1.273061	-2.136002
N	0.066102	-2.292106	-2.680626
N	-0.562716	-1.168277	0.697577
H	-0.189406	-1.133379	1.641704
H	-0.162344	-2.0093	0.288475
N	-0.453069	1.245333	0.578926
H	0.130346	1.472444	1.374004
H	-1.412091	1.127774	0.885872
Br	3.548412	0.0	0.0
