14

C	-0.423786	0.017895	-1.469641
C	0.0	0.0	0.0
F	-0.111091	1.236616	-2.056383
H	1.101443	0.0	0.0
H	0.119876	-0.760198	-2.012958
C	-1.876185	-0.198933	-1.616293
N	-3.030702	-0.371953	-1.73585
N	-0.429006	-1.193916	0.692338
H	-1.403805	-1.40743	0.516152
H	0.162028	-1.97835	0.452838
N	-0.617039	1.147943	0.651182
H	-0.199175	1.988618	0.267229
H	-0.338912	1.096425	1.624941
Br	3.618867	0.0	0.0
