14

C	-0.562604	0.013778	-1.415947
C	0.0	0.0	0.0
F	-0.000228	-0.975875	-2.188843
H	1.099739	0.0	0.0
H	-1.638772	-0.179819	-1.348986
C	-0.374378	1.309143	-2.096364
N	-0.243986	2.330697	-2.658264
N	-0.445904	-1.223696	0.633391
H	-1.299361	-1.041886	1.151801
H	0.271748	-1.557517	1.264088
N	-0.546681	1.180961	0.695886
H	-0.09959	2.012245	0.316748
H	-0.210126	1.116862	1.652541
Br	3.611028	0.0	0.0
