14

C	-0.415453	-0.001951	-1.474294
C	0.0	0.0	0.0
F	-1.75637	0.366882	-1.615239
H	1.103163	0.0	0.0
H	0.18464	0.737597	-2.01206
C	-0.249894	-1.316436	-2.112426
N	-0.127801	-2.366654	-2.623205
N	-0.613299	-1.140129	0.677224
H	-0.077408	-1.973608	0.452713
H	-0.478566	-0.967822	1.667355
N	-0.432756	1.206721	0.674712
H	-1.36445	1.462607	0.366538
H	0.214835	1.960136	0.474445
Br	3.603089	0.0	0.0
