12

C	-0.326576	-0.04631	-1.483146
C	0.0	0.0	0.0
Br	-2.269125	-0.389096	-1.784621
H	1.096402	0.0	0.0
H	-0.200398	0.944381	-1.930591
H	-0.336511	-0.921659	0.479899
N	0.440173	-1.099347	-2.075316
H	1.393413	-1.051616	-1.713786
H	0.465224	-1.003347	-3.081959
C	-0.549117	1.160641	0.679508
N	-1.010278	2.095157	1.219774
Br	3.484069	0.0	0.0
