12

C	-0.486343	0.010519	-1.437699
C	0.0	0.0	0.0
Br	-2.522041	-0.590171	-1.382745
H	1.094288	0.0	0.0
H	-0.632597	1.007903	-1.845307
H	-0.312912	-0.929874	0.483623
N	0.296857	-0.776799	-2.256378
H	0.655475	-1.618393	-1.832129
H	-0.040045	-0.906471	-3.19667
C	-0.53425	1.120553	0.756384
N	-0.968309	2.025145	1.364874
Br	3.510717	0.0	0.0
