12

C	-0.522784	-0.025576	-1.428075
C	0.0	0.0	0.0
Br	0.114197	1.671447	-2.313008
H	1.091429	0.0	0.0
H	-0.023034	-0.802766	-2.006509
H	-0.332291	0.911944	0.506547
N	-1.931519	-0.186494	-1.495956
H	-2.254999	-0.195051	-2.454889
H	-2.401645	0.562438	-1.000202
C	-0.488216	-1.162436	0.740146
N	-0.885984	-2.088371	1.341892
Br	3.547094	0.0	0.0
