12

C	-0.308082	-0.043211	-1.496961
C	0.0	0.0	0.0
Br	-2.232711	-0.36405	-1.800615
H	1.095788	0.0	0.0
H	-0.11619	0.933909	-1.941677
H	-0.338972	-0.922295	0.480813
N	0.45707	-1.032483	-2.210152
H	1.440938	-0.787279	-2.083838
H	0.329207	-1.933907	-1.760876
C	-0.555672	1.1535	0.688724
N	-1.002851	2.085651	1.245274
Br	3.48907	0.0	0.0
