12

C	-0.305125	-0.018469	-1.486554
C	0.0	0.0	0.0
Br	-2.26252	-0.049702	-1.845279
H	1.096927	0.0	0.0
H	-0.008997	0.947811	-1.907736
H	-0.359992	0.918543	0.466268
N	0.311023	-1.164141	-2.082464
H	1.261646	-1.235163	-1.720883
H	0.352848	-1.066461	-3.088859
C	-0.513816	-1.159884	0.715371
N	-0.917396	-2.082235	1.318786
Br	3.478192	0.0	0.0
