12

C	-0.471522	0.035528	-1.438628
C	0.0	0.0	0.0
Br	-2.56193	-0.208684	-1.406186
H	1.094264	0.0	0.0
H	-0.404103	1.02634	-1.880026
H	-0.326288	-0.931994	0.472286
N	0.171352	-0.911381	-2.218056
H	0.231753	-1.828122	-1.802202
H	-0.128345	-0.941526	-3.180291
C	-0.508708	1.122426	0.77611
N	-0.913766	2.029193	1.401444
Br	3.545487	0.0	0.0
