18

C	-0.425844	0.037831	-1.467802
C	0.0	0.0	0.0
F	-1.823663	0.230818	-1.522107
H	1.096531	0.0	0.0
C	0.248456	1.158962	-2.225138
H	1.329337	1.012149	-2.187075
H	-0.000691	2.092134	-1.721943
H	-0.09765	1.177901	-3.260486
C	-0.186822	-1.256314	-2.137284
N	-0.02065	-2.290874	-2.666369
C	-0.518212	-1.233886	0.729666
H	-0.208969	-1.183074	1.77641
H	-1.612373	-1.280016	0.687568
H	-0.111239	-2.155021	0.307054
N	-0.425958	1.263927	0.603342
H	0.211966	1.48457	1.357586
H	-1.358374	1.164212	0.988309
Cl	3.465841	0.0	0.0
