18

C	-0.50381	0.018675	-1.446266
C	0.0	0.0	0.0
F	0.076938	-1.041884	-2.141101
H	1.101271	0.0	0.0
C	-2.011586	-0.11772	-1.57307
H	-2.308522	-1.107675	-1.223675
H	-2.312809	-0.01234	-2.617115
H	-2.495284	0.645749	-0.964719
C	-0.075767	1.269879	-2.105953
N	0.193567	2.289068	-2.624228
C	-0.468678	-1.244975	0.734404
H	0.104543	-1.34201	1.659977
H	-0.276298	-2.137892	0.137686
H	-1.533251	-1.192486	0.98393
N	-0.528318	1.207394	0.66299
H	0.110441	1.970552	0.454927
H	-0.449256	1.059898	1.663658
Cl	3.481347	0.0	0.0
