18

C	-0.430841	0.066015	-1.467174
C	0.0	0.0	0.0
F	-1.821096	0.3021	-1.517343
H	1.096552	0.0	0.0
C	0.279249	1.177514	-2.208249
H	-0.063487	1.225181	-3.244329
H	0.057158	2.110035	-1.69141
H	1.356238	0.997817	-2.16922
C	-0.231127	-1.225409	-2.153507
N	-0.117077	-2.256839	-2.702544
C	-0.525704	-1.239249	0.714001
H	-1.620362	-1.275532	0.674206
H	-0.128503	-2.157765	0.276693
H	-0.213179	-1.206051	1.760386
N	-0.413984	1.258615	0.623732
H	0.260858	1.490914	1.341915
H	-1.323729	1.151387	1.05649
Cl	3.438513	0.0	0.0
