18

C	-0.506242	0.009406	-1.445683
C	0.0	0.0	0.0
F	0.071657	-1.056096	-2.13421
H	1.10135	0.0	0.0
C	-2.015199	-0.122248	-1.570064
H	-2.315454	-0.024838	-2.615299
H	-2.31876	-1.106445	-1.21028
H	-2.493694	0.650998	-0.970095
C	-0.085116	1.257116	-2.117609
N	0.167624	2.27277	-2.649798
C	-0.47011	-1.239235	0.743438
H	-1.535799	-1.185535	0.987755
H	0.09926	-1.327193	1.672314
H	-0.27357	-2.136881	0.154933
N	-0.527261	1.212878	0.655125
H	0.108982	1.975123	0.436173
H	-0.440848	1.074868	1.656758
Cl	3.483578	0.0	0.0
