18

C	-0.409639	-0.009251	-1.472402
C	0.0	0.0	0.0
F	0.11709	1.118643	-2.089315
H	1.096306	0.0	0.0
C	0.113218	-1.221253	-2.227911
H	-0.405357	-2.134746	-1.927719
H	1.183494	-1.312052	-2.016619
H	-0.036147	-1.066658	-3.298409
C	-1.885325	0.099181	-1.583512
N	-3.058256	0.148641	-1.637361
C	-0.482712	-1.250889	0.729297
H	-1.575718	-1.342396	0.691385
H	-0.180059	-1.173576	1.776282
H	-0.0354	-2.162486	0.328282
N	-0.4703	1.245089	0.604684
H	0.235175	1.580038	1.24603
H	-1.326193	1.087142	1.121112
Cl	3.449742	0.0	0.0
