18

C	-0.34536	-0.029387	-1.50196
C	0.0	0.0	0.0
F	-0.017089	1.222962	-2.039182
H	1.097533	0.0	0.0
C	0.447077	-1.06979	-2.269757
H	0.125888	-2.079974	-2.011228
H	0.307178	-0.91735	-3.342285
H	1.501367	-0.944606	-2.006866
C	-1.80271	-0.183665	-1.703228
N	-2.962644	-0.327467	-1.823393
C	-0.49601	-1.243369	0.72027
H	-0.15923	-1.182703	1.755611
H	-1.590586	-1.303739	0.714671
H	-0.089817	-2.15828	0.284854
N	-0.48528	1.189927	0.6789
H	-1.478938	1.313602	0.506536
H	0.000227	1.996229	0.306454
Cl	3.494514	0.0	0.0
