18

C	-0.379933	0.058554	-1.488926
C	0.0	0.0	0.0
F	-1.769986	0.311446	-1.596204
H	1.096835	0.0	0.0
C	0.358297	1.157909	-2.225164
H	0.089988	2.118673	-1.783884
H	1.43402	1.001141	-2.110153
H	0.082254	1.164109	-3.281636
C	-0.163449	-1.234417	-2.162673
N	-0.023223	-2.268292	-2.701934
C	-0.557095	-1.230792	0.695188
H	-1.650875	-1.247128	0.640046
H	-0.165816	-2.152962	0.26072
H	-0.263975	-1.188199	1.744349
N	-0.43118	1.207811	0.703257
H	0.267791	1.93204	0.598764
H	-1.313223	1.539578	0.331839
Cl	3.443932	0.0	0.0
