18

C	-0.404987	0.007424	-1.482364
C	0.0	0.0	0.0
F	-1.797957	0.253576	-1.569651
H	1.094024	0.0	0.0
C	0.312222	1.083601	-2.270743
H	1.39089	0.937981	-2.17113
H	0.044807	2.057465	-1.858626
H	0.015711	1.050301	-3.321254
C	-0.20133	-1.305111	-2.120942
N	-0.07218	-2.335194	-2.669078
C	-0.545751	-1.209206	0.742149
H	-0.241638	-1.129899	1.785969
H	-0.153108	-2.143423	0.334952
H	-1.639782	-1.233532	0.69872
N	-0.426029	1.228688	0.670255
H	-1.317263	1.542779	0.304878
H	0.266683	1.952768	0.529488
Cl	3.439893	0.0	0.0
