18

C	-0.393466	-0.017759	-1.473304
C	0.0	0.0	0.0
F	-0.082788	1.23843	-2.016078
H	1.103466	0.0	0.0
C	0.384924	-1.049368	-2.268446
H	0.200093	-0.897819	-3.333947
H	0.083488	-2.062747	-1.999278
H	1.446684	-0.914232	-2.046907
C	-1.852228	-0.189216	-1.644454
N	-2.999008	-0.383778	-1.805309
C	-0.487665	-1.238477	0.733854
H	-0.142884	-1.192445	1.770609
H	-1.580229	-1.292355	0.734139
H	-0.071639	-2.151116	0.30375
N	-0.589546	1.192694	0.615834
H	-0.290752	1.204475	1.585907
H	-0.153216	2.000405	0.184371
Cl	3.506274	0.0	0.0
