18

C	-0.394012	0.080928	-1.471037
C	0.0	0.0	0.0
F	-0.07765	1.368039	-1.929099
H	1.097952	0.0	0.0
C	0.379261	-0.89962	-2.332773
H	0.071375	-1.92707	-2.134447
H	1.441964	-0.786641	-2.100846
H	0.197534	-0.67417	-3.385315
C	-1.854441	-0.071552	-1.651974
N	-3.002866	-0.251335	-1.818891
C	-0.488721	-1.283188	0.650876
H	-1.581195	-1.337473	0.646051
H	-0.144974	-1.305236	1.68837
H	-0.072129	-2.165468	0.162596
N	-0.587139	1.150893	0.692864
H	-0.288102	1.102185	1.662036
H	-0.150306	1.984319	0.313824
Cl	3.505149	0.0	0.0
