18

C	-0.344997	-0.039356	-1.501593
C	0.0	0.0	0.0
F	-0.014589	1.208212	-2.04805
H	1.098937	0.0	0.0
C	0.445101	-1.087068	-2.261954
H	0.121874	-2.094409	-1.995783
H	1.499635	-0.962154	-2.000549
H	0.305068	-0.94234	-3.335486
C	-1.802753	-0.193038	-1.702533
N	-2.962648	-0.335056	-1.824497
C	-0.49727	-1.237845	0.728788
H	-1.591907	-1.296362	0.724322
H	-0.092863	-2.156362	0.299391
H	-0.159917	-1.170732	1.763509
N	-0.483849	1.195583	0.670605
H	-1.474307	1.326415	0.487299
H	0.011683	1.996867	0.300898
Cl	3.495667	0.0	0.0
