18

C	-0.445387	0.022563	-1.474011
C	0.0	0.0	0.0
F	0.170021	-1.026436	-2.154373
H	1.096214	0.0	0.0
C	-1.944141	-0.147962	-1.690997
H	-2.251077	-1.124313	-1.315263
H	-2.514371	0.630321	-1.180286
H	-2.168023	-0.096039	-2.758193
C	-0.021045	1.28775	-2.10985
N	0.219775	2.31444	-2.626593
C	-0.48997	-1.254967	0.705602
H	-1.561968	-1.206599	0.926859
H	-0.282355	-2.147573	0.111315
H	0.047782	-1.336442	1.65055
N	-0.410723	1.18913	0.739513
H	-1.360219	1.47089	0.527375
H	0.215512	1.955569	0.527254
Cl	3.461148	0.0	0.0
