14

C	-0.40936	-0.094363	-1.462702
C	0.0	0.0	0.0
F	-1.802548	-0.256365	-1.513576
H	1.092519	0.0	0.0
H	-0.382799	0.925477	0.448649
C	-0.118589	1.163266	-2.18559
N	0.072348	2.167367	-2.761889
N	0.183319	-1.204075	-2.153503
H	0.114498	-1.979629	-1.496947
H	1.176866	-1.004693	-2.251725
N	-0.437166	-1.228317	0.659838
H	0.220258	-1.453684	1.393869
H	-1.356548	-1.11624	1.063387
Cl	3.427051	0.0	0.0
