14

C	-0.412871	-0.051917	-1.461895
C	0.0	0.0	0.0
F	-0.348126	-1.406832	-1.869013
H	1.098469	0.0	0.0
H	-0.323464	0.971036	0.388778
C	-1.831374	0.327619	-1.656641
N	-2.946395	0.64355	-1.841535
N	0.428452	0.737791	-2.262197
H	0.017495	1.479912	-2.797033
H	1.339508	0.916137	-1.861808
N	-0.638807	-1.064833	0.768141
H	-0.353204	-0.956971	1.735246
H	-0.238117	-1.938864	0.449981
Cl	3.486007	0.0	0.0
