14

C	-0.546141	-0.028076	-1.417058
C	0.0	0.0	0.0
F	-0.106428	1.15375	-2.043102
H	1.098506	0.0	0.0
H	-0.332446	0.961378	0.410316
C	-0.001217	-1.142135	-2.226677
N	0.384412	-2.05591	-2.855649
N	-1.963188	-0.130735	-1.436095
H	-2.364839	0.414819	-0.685932
H	-2.328401	0.161079	-2.333602
N	-0.584627	-1.080818	0.808737
H	-0.082509	-1.070114	1.690801
H	-0.327516	-1.962737	0.375277
Cl	3.500712	0.0	0.0
