14

C	-0.342341	0.027431	-1.479084
C	0.0	0.0	0.0
F	-0.141145	-1.288199	-1.981032
H	1.102407	0.0	0.0
H	-0.346899	0.935929	0.444366
C	-1.771994	0.305221	-1.752107
N	-2.900369	0.536354	-1.978566
N	0.479146	0.976146	-2.120956
H	1.445861	0.852154	-1.82194
H	0.405036	0.912519	-3.127494
N	-0.64498	-1.131414	0.658417
H	-0.439	-1.066122	1.648331
H	-0.183843	-1.971316	0.328468
Cl	3.484908	0.0	0.0
