14

C	-0.600678	0.032025	-1.396644
C	0.0	0.0	0.0
F	-2.023217	0.19586	-1.211752
H	1.091344	0.0	0.0
H	-0.343197	0.903716	0.516753
C	-0.210542	1.225296	-2.172079
N	0.07345	2.16772	-2.810506
N	-0.311272	-1.142937	-2.105205
H	-0.882528	-1.2355	-2.933873
H	-0.431966	-1.922295	-1.467846
N	-0.440354	-1.241348	0.64383
H	-1.261154	-1.086522	1.212125
H	0.310272	-1.574031	1.234564
Cl	3.46497	0.0	0.0
