14

C	-0.592593	0.080442	-1.402356
C	0.0	0.0	0.0
F	-0.05711	1.210673	-2.011629
H	1.096838	0.0	0.0
H	-0.355758	-0.931951	0.451287
C	-0.225095	-1.094855	-2.218293
N	0.027123	-2.055497	-2.842075
N	-2.025893	0.221887	-1.41714
H	-2.263252	0.706521	-0.554927
H	-2.473218	-0.684229	-1.433989
N	-0.553851	1.13434	0.761508
H	-0.368553	0.963926	1.742388
H	0.00172	1.946227	0.514161
Cl	3.493248	0.0	0.0
