15

C	-0.301768	0.164979	-1.491722
C	0.0	0.0	0.0
Br	-0.269587	-1.682347	-2.430269
H	1.097029	0.0	0.0
H	-1.328754	0.456637	-1.721658
N	0.640558	1.061157	-2.006584
H	0.60609	1.148819	-3.011999
H	1.581112	0.824078	-1.665659
C	-0.561525	-1.184807	0.621617
N	-0.982679	-2.125902	1.18854
C	-0.43255	1.259467	0.761994
H	0.054168	2.124262	0.312005
H	-0.104083	1.182507	1.801682
H	-1.519291	1.4	0.741481
H	2.782412	0.0	0.0
