15

C	-0.350026	0.028627	-1.448625
C	0.0	0.0	0.0
Br	-2.451081	0.656601	-1.703891
H	1.097419	0.0	0.0
H	0.097287	0.886658	-1.946133
N	-0.121811	-1.144711	-2.127088
H	-0.323513	-1.105933	-3.113712
H	-0.516247	-1.965718	-1.686831
C	-0.471009	-1.219824	0.625561
N	-0.825744	-2.237004	1.100037
C	-0.372384	1.248496	0.786912
H	0.149586	1.221806	1.746651
H	-1.447255	1.343574	0.944333
H	-0.011662	2.125693	0.243284
H	2.619263	0.0	0.0
