15

C	-0.605688	-0.039463	-1.39578
C	0.0	0.0	0.0
Br	0.155916	-1.517878	-2.457434
H	1.094819	0.0	0.0
H	-1.663618	-0.328177	-1.332846
N	-0.376881	1.185654	-2.128104
H	-0.809746	1.110349	-3.040036
H	-0.811254	1.953355	-1.627176
C	-0.482497	-1.149046	0.754297
N	-0.893511	-2.066113	1.365637
C	-0.363326	1.294843	0.737842
H	0.17918	2.122808	0.274687
H	-0.008089	1.223236	1.766801
H	-1.440233	1.502448	0.753372
H	2.749093	0.0	0.0
