15

C	-0.351818	0.032723	-1.449133
C	0.0	0.0	0.0
Br	-2.4351	0.694441	-1.703963
H	1.09746	0.0	0.0
H	0.114095	0.881113	-1.946872
N	-0.143152	-1.148047	-2.126242
H	-0.348967	-1.104856	-3.111824
H	-0.554339	-1.958612	-1.683532
C	-0.475909	-1.218225	0.624735
N	-0.838895	-2.231817	1.100646
C	-0.367117	1.247821	0.791354
H	-1.440617	1.341619	0.958975
H	0.163799	1.220628	1.746069
H	-0.012891	2.126482	0.24551
H	2.623073	0.0	0.0
