13

C	0.0	0.0	0.0
C	-0.591682	0.163944	-1.390509
Cl	1.757001	0.0	0.0
H	0.145083	0.643939	-2.037653
H	-0.3629	-0.894297	0.497019
H	-1.46824	0.807059	-1.299136
N	-0.370944	1.151996	0.903783
O	-0.386618	2.27083	0.401431
O	-0.549397	0.88857	2.087401
N	-0.920214	-1.17232	-1.887702
H	-1.040593	-1.120168	-2.892907
H	-1.842512	-1.371162	-1.498432
Br	-3.663547	0.0	0.0
