13

C	0.0	0.0	0.0
C	-0.586063	0.358911	-1.342387
Cl	1.766025	0.0	0.0
H	-1.654899	0.512094	-1.162485
H	-0.344376	-0.972368	0.340658
H	-0.142238	1.294106	-1.688546
N	-0.397489	0.987311	1.065088
O	-0.517601	2.159042	0.723324
O	-0.515834	0.55251	2.2055
N	-0.377766	-0.769111	-2.248379
H	0.280771	-0.530708	-2.976888
H	-1.260848	-1.019863	-2.672865
Br	-3.833213	0.0	0.0
