13

C	0.0	0.0	0.0
C	-0.60724	0.330675	-1.347189
Cl	1.761979	0.0	0.0
H	-1.534402	0.873959	-1.156083
H	-0.354473	-0.948349	0.394126
H	0.083011	0.968072	-1.902986
N	-0.355567	1.036786	1.043763
O	-0.467486	0.635794	2.195776
O	-0.430297	2.202273	0.673108
N	-0.837262	-0.932164	-2.049192
H	-0.846253	-0.757444	-3.046236
H	-1.779531	-1.220479	-1.788989
Br	-3.724383	0.0	0.0
