13

C	0.0	0.0	0.0
C	-0.478071	0.300456	-1.427527
Cl	1.763972	0.0	0.0
H	0.096341	1.166184	-1.766199
H	-0.366877	-0.935908	0.415561
H	-0.147839	-0.555338	-2.027604
N	-0.424989	1.070102	0.971741
O	-0.631322	0.711433	2.125993
O	-0.481826	2.220124	0.548884
N	-1.870774	0.549805	-1.649479
H	-2.172532	1.406569	-1.206847
H	-2.507447	-0.161361	-1.30126
Br	-4.720858	0.0	0.0
