13
Coordinates from ORCA-job run
  C   1.04106982319996      0.56647889864284      0.30157450042359
  C   -0.48894272175920      0.48497274933844      0.11619015535377
  Br  1.86048231054745      1.53316732992669     -1.18355675660313
  H   -0.84447810163103      1.50894620654635     -0.04316676055344
  H   1.27851708722360      1.15168144170242      1.19221754247146
  C   1.64062110622218     -0.75617855304467      0.41638713167753
  N   2.09469985622172     -1.83588785714572      0.51013204753482
  C   -1.06241076024452      0.00190810614417      1.37666143938531
  N   -1.51216756043569     -0.39362127363330      2.38705339028116
  C   -0.91867124767385     -0.40296660594506     -1.05228384879529
  H   -2.00623058062763     -0.39903763967873     -1.13854387894501
  H   -0.49470449187502     -0.02980548219178     -1.98480591749384
  H   -0.58878471916796     -1.43165732066163     -0.89685904473692
