13
Coordinates from ORCA-job run
  C   1.04041644943717      0.26496192323675      0.43481313381895
  C   -0.42621932575052      0.40989772294296     -0.01352691763751
  Br  1.73031154431468      1.94608826599057      1.14029833805858
  H   -0.47363800216799      1.22081269905740     -0.74848630924238
  H   1.11206975963884     -0.45672080126695      1.25242027123005
  C   1.88031738630918     -0.16919788023267     -0.67347908607086
  N   2.52757927813371     -0.53099239191131     -1.58503579594321
  C   -1.24918752501303      0.78916753130002      1.13691403388302
  N   -1.93170098641757      1.04840570139428      2.05650166252517
  C   -0.95046079781864     -0.89063019100846     -0.63500744367689
  H   -0.88242206891201     -1.71489953708314      0.07840783638821
  H   -0.37767261792226     -1.14507829392277     -1.52784713370614
  H   -1.99739309383156     -0.76981474849669     -0.91697258962699
