13
Coordinates from ORCA-job run
  C   1.12188061253839      0.04522893030566     -0.10904073016437
  C   -0.37752187644800      0.27394531754633      0.15761765547016
  Br  1.49251755345282     -1.77424082150658     -0.70247347539329
  H   -0.45737855706847      1.30712539924759      0.52101311505589
  H   1.43599677642608      0.69486032079135     -0.92998252706623
  C   1.92371953667067      0.34176081925236      1.07070745999468
  N   2.55007614936464      0.61559678206784      2.02648633145707
  C   -0.85342841999412     -0.60243338237281      1.22963747140623
  N   -1.26469819225725     -1.30539454588385      2.07532142443815
  C   -1.23201163997667      0.12425219717199     -1.10254231345574
  H   -0.86163804610980      0.78824988231159     -1.88721675859851
  H   -1.21130836981131     -0.90197304034304     -1.46798595490730
  H   -2.26620552678698      0.39302214141158     -0.88254169823674
