13
Coordinates from ORCA-job run
  C   1.06264430056782      0.50792031854789      0.32996079629625
  C   -0.46754763590712      0.50225770719930      0.12954433635909
  Br  1.93864989474334      1.48676037567835     -1.11448173474496
  H   -0.77533846011645      1.54626652146629      0.00449728184947
  H   1.31802005045302      1.05086214425207      1.24218717135244
  C   1.60111383318503     -0.84369693203155      0.40377723458877
  N   2.00610122548426     -1.94511116053513      0.46401769877744
  C   -1.07423884198107      0.00031711190741      1.36686418651860
  N   -1.55060665470519     -0.41064736100847      2.35869561817390
  C   -0.92555747711264     -0.32279681033863     -1.07384919663297
  H   -2.01189683188354     -0.27473837244972     -1.16181877424344
  H   -0.48482197378624      0.06992289217628     -1.99057065841082
  H   -0.63452142894122     -1.36831643486409     -0.95782395988375
