18

C	-0.426557	0.025053	-1.467969
C	0.0	0.0	0.0
F	-1.829989	0.180873	-1.522457
H	1.096531	0.0	0.0
C	0.214835	1.164641	-2.22829
H	1.300898	1.051519	-2.187738
H	-0.065167	2.092045	-1.730936
H	-0.129068	1.168328	-3.265047
C	-0.146688	-1.263008	-2.13271
N	0.046541	-2.295391	-2.658239
C	-0.507026	-1.235932	0.734863
H	-0.194093	-1.180075	1.780381
H	-1.600718	-1.291095	0.697026
H	-0.093714	-2.15492	0.313403
N	-0.433792	1.262267	0.599955
H	0.195283	1.482515	1.363837
H	-1.371689	1.159449	0.973969
Br	3.586063	0.0	0.0
