18

C	-0.427766	0.042025	-1.46875
C	0.0	0.0	0.0
F	-1.822055	0.256267	-1.523846
H	1.096552	0.0	0.0
C	0.266045	1.152191	-2.225688
H	-0.07919	1.179618	-3.261851
H	0.031648	2.088944	-1.72223
H	1.345851	0.98794	-2.187847
C	-0.206287	-1.255937	-2.1347
N	-0.067518	-2.293241	-2.667415
C	-0.519306	-1.232478	0.730158
H	-1.613524	-1.276284	0.689213
H	-0.115199	-2.154405	0.306464
H	-0.208759	-1.182638	1.776511
N	-0.418733	1.265315	0.605978
H	0.241587	1.497758	1.33814
H	-1.339129	1.164125	1.018706
Br	3.578669	0.0	0.0
