18

C	-0.400105	0.0513	-1.470687
C	0.0	0.0	0.0
F	-0.086442	1.32901	-1.955132
H	1.096306	0.0	0.0
C	0.365419	-0.949752	-2.316733
H	0.056711	-1.97145	-2.091002
H	1.429662	-0.833432	-2.097174
H	0.176075	-0.749186	-3.373426
C	-1.860494	-0.10755	-1.640066
N	-3.003533	-0.307283	-1.822055
C	-0.489406	-1.267909	0.680375
H	-1.582302	-1.308759	0.696315
H	-0.126664	-1.276514	1.71211
H	-0.092803	-2.163702	0.199534
N	-0.581346	1.165676	0.673618
H	-0.114738	1.989072	0.306513
H	-0.307666	1.109217	1.649711
Br	3.638343	0.0	0.0
