18

C	-0.376584	0.066782	-1.490268
C	0.0	0.0	0.0
F	-1.755447	0.374382	-1.598166
H	1.096709	0.0	0.0
C	0.406823	1.131836	-2.229253
H	0.192804	2.102904	-1.779882
H	1.475457	0.924123	-2.125995
H	0.120181	1.156383	-3.282616
C	-0.214747	-1.236131	-2.16041
N	-0.119825	-2.2682	-2.712707
C	-0.565905	-1.22637	0.694446
H	-1.659294	-1.237137	0.631585
H	-0.176448	-2.151567	0.264646
H	-0.28065	-1.182332	1.74564
N	-0.418558	1.213385	0.702908
H	0.300528	1.920201	0.618403
H	-1.283669	1.570034	0.315298
Br	3.588972	0.0	0.0
