18

C	-0.439847	0.001931	-1.475825
C	0.0	0.0	0.0
F	0.173013	-1.061409	-2.135863
H	1.096229	0.0	0.0
C	-1.938302	-0.164125	-1.695323
H	-2.250995	-1.133255	-1.305887
H	-2.15875	-0.127479	-2.763805
H	-2.505839	0.624477	-1.197834
C	-0.003492	1.254072	-2.128386
N	0.245715	2.271576	-2.658421
C	-0.489357	-1.245052	0.723285
H	-0.281197	-2.145744	0.141641
H	0.048526	-1.312604	1.669177
H	-1.56122	-1.193942	0.943673
N	-0.40835	1.200077	0.721443
H	0.219988	1.96207	0.498781
H	-1.35739	1.481842	0.50515
Br	3.599792	0.0	0.0
