18

C	-0.374933	0.052807	-1.490545
C	0.0	0.0	0.0
F	-1.757462	0.342138	-1.602444
H	1.096591	0.0	0.0
C	0.395984	1.121991	-2.237216
H	1.467041	0.929295	-2.130373
H	0.16773	2.093782	-1.797467
H	0.111535	1.133134	-3.29146
C	-0.19505	-1.252623	-2.15182
N	-0.090708	-2.281516	-2.708454
C	-0.564995	-1.221556	0.703659
H	-0.278851	-1.170308	1.754346
H	-0.175551	-2.149677	0.279954
H	-1.658433	-1.23308	0.64173
N	-0.420467	1.218591	0.692924
H	-1.285495	1.571477	0.301444
H	0.298536	1.924756	0.603442
Br	3.587706	0.0	0.0
