18

C	-0.434821	0.052012	-1.465715
C	0.0	0.0	0.0
F	-1.829927	0.264535	-1.511331
H	1.097147	0.0	0.0
C	0.252567	1.170142	-2.217433
H	-0.0981	1.204917	-3.251365
H	1.332993	1.008358	-2.186382
H	0.017811	2.102217	-1.705069
C	-0.21563	-1.240255	-2.144749
N	-0.081779	-2.269446	-2.694361
C	-0.519944	-1.23464	0.725169
H	-1.614834	-1.270004	0.695421
H	-0.127849	-2.155889	0.288932
H	-0.197382	-1.196211	1.768316
N	-0.412348	1.262327	0.61825
H	0.277112	1.510597	1.316479
H	-1.31024	1.151543	1.073911
Br	3.576401	0.0	0.0
