18

C	-0.501425	0.096871	-1.444924
C	0.0	0.0	0.0
F	0.079775	-0.926737	-2.192506
H	1.101123	0.0	0.0
C	-2.009364	-0.028096	-1.579674
H	-2.488362	0.705689	-0.933195
H	-2.31118	-1.032833	-1.282645
H	-2.308531	0.134785	-2.617308
C	-0.076452	1.3829	-2.036207
N	0.174087	2.433715	-2.494711
C	-0.469525	-1.282029	0.667525
H	-1.534851	-1.243155	0.913355
H	0.099032	-1.424514	1.58943
H	-0.272316	-2.143096	0.027604
N	-0.526359	1.171673	0.725345
H	0.109393	1.947458	0.553039
H	-0.442697	0.97381	1.718068
Br	3.6247	0.0	0.0
