18

C	-0.395262	-0.012505	-1.473154
C	0.0	0.0	0.0
F	-0.084498	1.245711	-2.010503
H	1.103416	0.0	0.0
C	0.379706	-1.041417	-2.275182
H	0.188375	-0.887891	-3.339205
H	0.081453	-2.055641	-2.006373
H	1.442884	-0.906082	-2.06122
C	-1.854515	-0.182979	-1.639463
N	-3.004118	-0.379046	-1.775963
C	-0.484133	-1.240726	0.732046
H	-0.13362	-1.198328	1.76699
H	-1.576529	-1.294323	0.737642
H	-0.07047	-2.15185	0.296543
N	-0.586884	1.190948	0.620793
H	-0.290108	1.197856	1.591521
H	-0.14975	2.000168	0.193067
Br	3.647273	0.0	0.0
