18

C	-0.446645	-0.000423	-1.474122
C	0.0	0.0	0.0
F	0.174706	-1.056006	-2.138542
H	1.096454	0.0	0.0
C	-1.944121	-0.18405	-1.685708
H	-2.243434	-1.158185	-1.298702
H	-2.5181	0.595519	-1.181696
H	-2.171849	-0.145739	-2.752472
C	-0.026133	1.258031	-2.1241
N	0.256755	2.291361	-2.60471
C	-0.484259	-1.246911	0.724005
H	-1.554496	-1.196956	0.951995
H	-0.279256	-2.146572	0.139698
H	0.060473	-1.315768	1.665874
N	-0.409789	1.197466	0.725235
H	-1.362434	1.471524	0.516176
H	0.211187	1.963429	0.496022
Br	3.600757	0.0	0.0
