17

C	-0.467619	-0.064152	-1.475482
C	0.0	0.0	0.0
Br	0.466685	1.220504	-2.57539
H	1.094491	0.0	0.0
C	-0.287979	-1.387428	-2.056894
N	-0.151232	-2.440951	-2.559203
N	-1.973348	0.244698	-1.494546
O	-2.331361	1.40463	-1.644231
O	-2.706171	-0.705682	-1.234855
N	-0.436224	-1.216471	0.661451
H	-1.219803	-1.056611	1.279741
H	0.337783	-1.606697	1.181903
C	-0.464288	1.27541	0.691706
H	0.056917	1.336236	1.648903
H	-0.22231	2.169806	0.116664
H	-1.544149	1.264213	0.879647
Cl	3.331522	0.0	0.0
