17

C	-0.357335	-0.000767	-1.477331
C	0.0	0.0	0.0
Br	-0.082715	1.726903	-2.379693
H	1.095736	0.0	0.0
C	0.416074	-1.005658	-2.201853
N	1.061483	-1.807861	-2.774091
N	-1.837478	-0.373144	-1.707393
O	-2.643402	0.022063	-0.872484
O	-2.112717	-1.013801	-2.712959
N	-0.449583	-1.310184	0.474095
H	0.283405	-1.719685	1.04136
H	-1.300385	-1.225159	1.018956
C	-0.460893	1.182176	0.835272
H	-0.06792	1.030622	1.844412
H	-1.549077	1.266193	0.880561
H	-0.041574	2.119002	0.466074
Cl	3.116556	0.0	0.0
