17

C	-0.363236	0.003097	-1.477023
C	0.0	0.0	0.0
Br	-2.317142	0.040141	-1.767028
H	1.094216	0.0	0.0
C	0.199261	1.14118	-2.196435
N	0.66443	2.076917	-2.737319
N	0.219056	-1.270431	-2.160063
O	-0.542375	-2.173312	-2.503674
O	1.434114	-1.318836	-2.117522
N	-0.443482	-1.262935	0.554908
H	-1.346688	-1.185422	1.008537
H	0.241616	-1.596318	1.223147
C	-0.492649	1.243388	0.713286
H	-1.588658	1.277421	0.759535
H	-0.133272	2.159284	0.235768
H	-0.101044	1.229705	1.734722
Cl	2.871359	0.0	0.0
