17

C	-0.111999	-0.099537	-1.539728
C	0.0	0.0	0.0
Br	-1.862754	-1.09477	-2.093999
H	1.094264	0.0	0.0
C	-0.372612	1.216866	-2.140547
N	-0.484473	2.256969	-2.68065
N	1.026768	-0.731253	-2.045407
H	1.836863	-0.590387	-1.389329
H	1.222502	-0.501116	-3.00903
N	-0.438008	-1.273131	0.623562
O	-1.347588	-1.231194	1.457845
O	0.144586	-2.2987	0.2832
C	-0.653814	1.199144	0.630278
H	-0.538025	1.1494	1.713188
H	-0.152653	2.101148	0.276297
H	-1.720595	1.259708	0.400954
F	2.633024	0.0	0.0
