17

C	-0.114847	0.086253	-1.536731
C	0.0	0.0	0.0
Br	-0.030362	-1.875597	-2.314827
H	1.092231	0.0	0.0
C	-1.385246	0.557524	-2.086039
N	-2.384866	1.018687	-2.500048
N	0.974814	0.85132	-1.931081
H	1.836329	0.580979	-1.381928
H	1.09508	0.927026	-2.930393
N	-0.655717	-1.189549	0.575599
O	0.010249	-1.938678	1.285934
O	-1.862653	-1.318817	0.351882
C	-0.561624	1.236013	0.677335
H	-1.640479	1.329801	0.530527
H	-0.05392	2.110969	0.272189
H	-0.346408	1.18209	1.74785
F	2.660209	0.0	0.0
