17

C	-0.485867	-0.012287	-1.445914
C	0.0	0.0	0.0
Br	0.247976	1.706879	-2.318424
H	1.093091	0.0	0.0
C	0.121275	-1.040826	-2.295983
N	0.566019	-1.787983	-3.08685
N	-1.897623	-0.072166	-1.553825
H	-2.320292	0.69242	-1.043264
H	-2.204302	-0.047982	-2.518681
N	-0.412196	-1.274956	0.631811
O	-0.715395	-1.261062	1.829005
O	-0.372582	-2.303217	-0.046309
C	-0.483628	1.165865	0.836772
H	0.039007	1.128492	1.791062
H	-1.559344	1.144342	1.045881
H	-0.216446	2.100302	0.346641
F	2.500268	0.0	0.0
