14

C	-0.573	-0.16947	-1.377786
C	0.0	0.0	0.0
F	-0.141782	-1.339631	-1.941061
H	1.087535	0.0	0.0
H	-0.350624	-0.837996	0.610377
H	-0.361559	0.933238	0.434793
C	-2.08651	-0.142158	-1.475827
H	-2.486974	-0.965642	-0.882081
H	-2.475374	0.802195	-1.097213
H	-2.392095	-0.27611	-2.516707
N	-0.078338	0.955784	-2.285356
O	-0.348949	2.092568	-1.903632
O	0.476428	0.665049	-3.335739
H	3.027601	0.0	0.0
