12

C	-0.42138	-0.006211	-1.444241
C	0.0	0.0	0.0
Cl	-2.236487	0.056023	-1.667334
H	1.10069	0.0	0.0
H	-0.045974	0.901753	-1.916547
H	-0.383633	-0.898676	0.501334
C	0.060844	-1.177001	-2.173689
N	0.423415	-2.122074	-2.769155
N	-0.411746	1.260897	0.617765
H	-1.216569	1.140867	1.21661
H	0.369619	1.570408	1.18348
F	2.634044	0.0	0.0
