12

C	-0.586553	-0.036666	-1.400595
C	0.0	0.0	0.0
Cl	0.148704	-1.353082	-2.384523
H	1.098616	0.0	0.0
H	-1.65099	-0.281265	-1.351844
H	-0.381604	0.913859	0.473258
C	-0.434936	1.229698	-2.114788
N	-0.378582	2.265148	-2.666017
N	-0.506105	-1.189221	0.724629
H	0.273818	-1.840411	0.729689
H	-0.633611	-0.926423	1.694998
F	2.667657	0.0	0.0
