12

C	-0.588961	0.058138	-1.403541
C	0.0	0.0	0.0
Cl	-0.325711	-1.478819	-2.3022
H	1.098738	0.0	0.0
H	-1.672696	0.197398	-1.356638
H	-0.394613	-0.901526	0.482058
C	-0.044043	1.16736	-2.185258
N	0.363444	2.066808	-2.821091
N	-0.450699	1.232713	0.67802
H	0.398567	1.728313	0.92741
H	-0.928023	1.008825	1.542825
F	2.664012	0.0	0.0
