12

C	-0.586812	0.090136	-1.398898
C	0.0	0.0	0.0
Cl	-0.242522	-1.398694	-2.355161
H	1.096582	0.0	0.0
H	-1.674896	0.171386	-1.35519
H	-0.396132	-0.910315	0.459563
C	-0.096203	1.253122	-2.138694
N	0.233139	2.209908	-2.735859
N	-0.467253	1.20785	0.717739
H	-0.815286	0.949696	1.633042
H	0.373087	1.747487	0.881001
F	2.660551	0.0	0.0
