12

C	-0.502998	-0.033394	-1.441562
C	0.0	0.0	0.0
Cl	0.216385	-1.401746	-2.367076
H	1.092594	0.0	0.0
H	-1.584983	-0.208649	-1.487522
H	-0.390601	0.926494	0.442455
C	-0.238778	1.215203	-2.154254
N	-0.068862	2.244652	-2.693138
N	-0.425936	-1.161226	0.775321
H	-1.285862	-1.57205	0.429396
H	0.309391	-1.851567	0.693363
F	2.649201	0.0	0.0
