12

C	-0.30259	0.022587	-1.506199
C	0.0	0.0	0.0
Cl	-0.006473	1.653325	-2.201232
H	1.095397	0.0	0.0
H	0.408387	-0.649133	-1.99393
H	-0.461089	0.86803	0.47878
C	-1.672405	-0.370289	-1.839882
N	-2.782935	-0.707338	-2.031533
N	-0.407681	-1.244995	0.634122
H	-1.285525	-1.61607	0.29184
H	0.33068	-1.923008	0.496161
F	2.6511	0.0	0.0
