15

C	0.0	0.0	0.0
C	-0.417595	-0.003748	-1.478077
F	1.347019	0.0	0.0
H	0.397557	0.491783	-2.020663
C	-0.927724	0.902104	0.75379
N	-0.905129	1.829347	1.510692
N	-0.258046	-1.373285	0.713154
O	-1.133848	-2.119892	0.299141
O	0.444983	-1.563705	1.699878
C	-1.700614	0.668375	-1.717724
N	-2.387198	1.398373	-2.356424
N	-0.434874	-1.392668	-2.095031
O	0.600278	-2.035303	-1.941396
O	-1.417903	-1.748976	-2.728906
H	-2.075504	0.0	0.0
