16
Coordinates from ORCA-job run
  C   0.81345120109445      0.30104537022201      0.59851868162737
  C   -0.63833629731820     -0.08333403458368      0.35016710733726
  F   1.06789429379338      0.19041445719823      1.96364593437703
  H   -0.78407173548433     -1.05140999770895      0.84423159198247
  H   0.95327722534248      1.35971323094347      0.34118721983304
  C   1.83011748924978     -0.55698400377146     -0.12433920095045
  H   2.82920123374534     -0.30973376582314      0.23799545285247
  H   1.80574374222665     -0.39104436546401     -1.20220646322347
  H   1.64593379664939     -1.61540582682290      0.07651348567891
  C   -0.94346199357823     -0.22526720943524     -1.14232233569282
  H   -0.69005762304680      0.69748258514141     -1.67608779965703
  H   -0.40017573332177     -1.04981994003580     -1.60866544282457
  H   -2.01186542869335     -0.40629167454496     -1.28290386620497
  N   -1.49821785179825      0.88011388895880      1.03726127556815
  H   -1.53694441159802      1.74021129641849      0.49988532132208
  H   -2.44348790726251      0.51930998930773      1.08811903797453
