16
Coordinates from ORCA-job run
  C   0.79960265927187     -0.40524811407462     -0.13462217944763
  C   -0.67350826520706     -0.10250325664677      0.14343107755460
  F   1.12522403087913      0.16404941330504     -1.37697690789864
  H   -0.91050960710642     -0.54287644022198      1.12038563583582
  H   0.93649411159389     -1.48705531795089     -0.24821973957148
  C   1.76597689958730      0.14078614686847      0.89074885490018
  H   1.69284215611804      1.22816563903763      0.94196335273299
  H   2.79085356506035     -0.11544836403282      0.61762324721070
  H   1.55517076299390     -0.27683720815522      1.87857874629981
  C   -1.56169274036092     -0.74684235558466     -0.91336804078352
  H   -2.60881196682042     -0.54874155490233     -0.68336991432427
  H   -1.40442672162293     -1.82763573349239     -0.96092015141314
  H   -1.33860464101493     -0.32908906435273     -1.89762869307349
  N   -0.98920525349093      1.32142088184806      0.21914831789103
  H   -0.63969184426255      1.77972015865652     -0.61512398294998
  H   -0.53871314561830      1.75113516969868      1.01735037703702
