16
Coordinates from ORCA-job run
  C   0.72346732056055      0.33559267649582      0.50931649356088
  C   -0.69638182365199     -0.14682367882766      0.23818509307299
  F   0.87480077693512      0.41115784139177      1.90470183640737
  H   -0.78048748647151     -1.14283217843303      0.69142657536330
  H   0.83276753849210      1.36299270738133      0.13819063794461
  C   1.82199667544368     -0.55429842417556     -0.02551729773619
  H   2.78666259126029     -0.22082452623036      0.36078224359119
  H   1.86012281920473     -0.52271062813578     -1.11549949054513
  H   1.66176812133829     -1.58709373473108      0.29336347531161
  C   -0.98235501838224     -0.24899766154395     -1.25235894863288
  H   -0.37070058450131     -1.01009929465951     -1.73876654764139
  H   -2.03319728645643     -0.50344725280239     -1.39629586795592
  H   -0.79452003036563      0.70888930372134     -1.75015315357576
  N   -1.71549841452256      0.68999937749242      0.86716052368193
  H   -1.71104558407662      1.60779133943831      0.43319770339954
  H   -1.47639961480648      0.82070413361833      1.84326672375384
