15
Coordinates from ORCA-job run
  C   -0.46293100529363     -0.29289851854213      0.33188034553633
  C   1.07689806095755     -0.20975183711420      0.28032759366989
  F   -0.77273437810051     -1.47029280865170      0.94861596836614
  H   1.42915666738753     -0.33545995282640      1.31058177486545
  N   -0.90211825270417      0.80433019509159      1.30644064157916
  O   -1.74223075071584      1.61045378182086      0.92497967174866
  O   -0.36959772925740      0.76228121530533      2.41107947447884
  C   -1.16417872639118     -0.18316451978978     -0.98705804884381
  H   -0.93432039164422      0.76235879178003     -1.47703681475868
  H   -2.24022164487588     -0.24402009839805     -0.82977388990973
  H   -0.84637583597537     -1.01339255882378     -1.61988410372249
  C   1.49944041643197      1.10107198227740     -0.21634504797299
  N   1.80569030971871      2.16334597320256     -0.61185914704581
  C   1.60840619181068     -1.29039604066381     -0.55183205986737
  N   2.01611706865176     -2.16446560466792     -1.22111635812357
