15
Coordinates from ORCA-job run
  C   -0.52262976640017     -0.36335833291133      0.00601624888107
  C   0.99618089505619     -0.44620656495977     -0.26053873508681
  F   -0.97641757241981     -1.64193767181898      0.06446023613384
  H   1.09367976199361     -1.12565363186270     -1.11752827117963
  N   -0.74584320881286      0.25789631763273      1.37793363645978
  O   -1.53326007343485     -0.29763852809556      2.12766352730799
  O   -0.12540122347653      1.29706352012982      1.57649543035184
  C   -1.29619175438111      0.42972117557581     -1.01265275794359
  H   -2.35779837996305      0.36496857419618     -0.76720994455317
  H   -0.98247488620982      1.47319501051046     -1.01139933335036
  H   -1.13814563867059      0.00105895922148     -2.00424061736923
  C   1.69036316750155     -1.05680501272262      0.87708794170891
  N   2.22629464125714     -1.56612685073632      1.78892109296569
  C   1.59393224035449      0.83579772342173     -0.63644480706979
  N   2.07871179760581      1.83802531241905     -1.00856364725653
