15
Coordinates from ORCA-job run
  C   -0.35345204271683     -0.23946668342364      0.28611141943626
  C   0.98981680151212      0.24976917158872     -0.29265202189337
  F   -0.13483284806320     -1.35861744375781      1.01319960763552
  H   0.81046952844499      1.20941072839333     -0.78892177667320
  N   -0.82236666445602      0.85231800176844      1.24511592920856
  O   -0.89326050032695      1.97305149708888      0.74925518770739
  O   -1.10734545452712      0.52334587707514      2.38511687835713
  C   -1.43048882686215     -0.47450594711266     -0.73954788888555
  H   -1.12450641315999     -1.28156748791908     -1.40649515025724
  H   -1.62072852118593      0.43135777348919     -1.31478757425527
  H   -2.34432238317620     -0.77456346838349     -0.22326858910122
  C   1.48728916200929     -0.71633174458939     -1.27462670084664
  N   1.85365925838411     -1.48768372159366     -2.08009196638834
  C   1.96348316290218      0.45544787035840      0.78414737813951
  N   2.72658574122168      0.63703557701765      1.65744526781647
