15
Coordinates from ORCA-job run
  C   -0.38619295129945     -0.21460918087759      0.26082993972639
  C   1.02057656233950      0.21632909218291     -0.20133280426879
  F   -0.26895310723021     -1.28608571408008      1.07757527105658
  H   0.91554440602939      1.14239675656911     -0.77639436392426
  N   -0.93154066153239      0.94430584882940      1.09180761642329
  O   -0.92764858070018      2.03040360962307      0.51953703941407
  O   -1.34164205616211      0.69573677824309      2.21391256095508
  C   -1.35367182143309     -0.50185804864680     -0.85681489453691
  H   -2.32260410645836     -0.75491126507564     -0.42238164468448
  H   -0.99560932275804     -1.35483476615909     -1.43476912222393
  H   -1.46371516413486      0.36704895630636     -1.50533938848366
  C   1.59896076520905     -0.82180034671460     -1.05744661594114
  N   2.03198422403054     -1.65325194751926     -1.76400259311828
  C   1.87836018385247      0.48073879016003      0.95809340979127
  N   2.54515163024775      0.70939143715913      1.89672558981472
