15
Coordinates from ORCA-job run
  C   -0.38248345040862     -0.21170941701805      0.26809143778758
  C   1.01773334291243      0.22909487694043     -0.20435230549852
  F   -0.24826504392536     -1.24736348077193      1.12729047310852
  H   0.89701828182987      1.12966227024613     -0.81565616435035
  N   -0.95590953063780      0.96789953002935      1.04988149173907
  O   -0.96980557113426      2.03081485473095      0.43574144129629
  O   -1.37276064500616      0.75380298334649      2.17663205566874
  C   -1.33810694548761     -0.56233394868194     -0.84160779579763
  H   -0.96125363317755     -1.43153632391807     -1.38225775306026
  H   -1.46025149436446      0.27699755904948     -1.52598006300475
  H   -2.30485093820776     -0.81514688226517     -0.40217216356938
  C   1.62141473067047     -0.82933579662873     -1.01694258958998
  N   2.07090074589635     -1.67449861495797     -1.69644003053611
  C   1.86379625834637      0.55538806938070      0.94794242346948
  N   2.52382389269406      0.82726432051834      1.87982954233731
