15
Coordinates from ORCA-job run
  C   -0.39826243311389     -0.31139530716657      0.39303805107918
  C   1.11340967573770     -0.07227609874463      0.19653486684745
  F   -0.52390730951106     -1.45979856129056      1.11942100671140
  H   1.56120574994610     -0.07641837799970      1.19693425966583
  N   -0.87535824407939      0.81043358096161      1.32094688397230
  O   -1.83157444539798      1.48709398168893      0.96195414949248
  O   -0.24996715538165      0.91747672232096      2.37123144790535
  C   -1.21300839071182     -0.38408086183060     -0.86162706127583
  H   -1.13305991059165      0.53808179046676     -1.43628064997973
  H   -2.25866860987592     -0.54683145528256     -0.60364490048833
  H   -0.85625729635340     -1.22404179208201     -1.45994461865043
  C   1.34426832031507      1.23089261544195     -0.42952721012719
  N   1.48815681883498      2.28253859050783     -0.93152141130983
  C   1.69175751960375     -1.15550463273541     -0.60026920309830
  N   2.13826571057920     -2.03617019425602     -1.23524561074436
