15
Coordinates from ORCA-job run
  C   -0.40237063471353     -0.31622029633438      0.02755595858727
  C   1.03496989398540      0.24279801093505      0.00738192796279
  F   -0.35682650977056     -1.64869951754219     -0.19839900359384
  H   0.98757853975862      1.29862863868283      0.29415730293283
  N   -0.91785462480434     -0.10435057739323      1.44917169151611
  O   -0.85200876440774      1.05418826930011      1.84989703505532
  O   -1.36929582498695     -1.07184646253892      2.04018010701332
  C   -1.34990444338647      0.35321517754018     -0.93241081628684
  H   -2.34208195539309     -0.08368474066741     -0.80458756452679
  H   -1.01659501362410      0.17145732850644     -1.95498883481483
  H   -1.39960203567017      1.42516177354713     -0.74229190115669
  C   1.58932524478991      0.13243722006251     -1.34379218576439
  N   2.00113089639073      0.05863782662810     -2.44062996860826
  C   1.87121293094265     -0.46979376901144      0.97842880847157
  N   2.52232230088964     -1.04292888171477      1.76932744321242
