15
Coordinates from ORCA-job run
  C   -0.43268553901612     -0.27314333776208      0.03230464834500
  C   1.05455777074297      0.13035480598027     -0.02881599444100
  F   -0.53958336554193     -1.59254065991105     -0.24432871908574
  H   1.13277565063025      1.17248391918518      0.29836748968517
  N   -0.86813515121682     -0.06652729927333      1.48120595124966
  O   -1.40498560850580     -1.00219158559638      2.05183463706092
  O   -0.65460521535119      1.05812576014123      1.92475539219475
  C   -1.33905907538131      0.53211443198001     -0.86080541304171
  H   -1.06462598542664      0.36233004960684     -1.90275375071031
  H   -1.26873612795896      1.59404264225748     -0.62595736056363
  H   -2.36621379159913      0.19484666294070     -0.70963409467032
  C   1.54138975238027      0.01697780436087     -1.40549876275197
  N   1.90486788141063     -0.05333447660040     -2.51947611215808
  C   1.84596526199274     -0.70545751537917      0.87954612621046
  N   2.46107354284112     -1.36808120193014      1.62825596267680
