15
Coordinates from ORCA-job run
  C   -0.39239974196567     -0.21030881367615      0.25453017098697
  C   1.02450340018724      0.21443168737622     -0.18197622277316
  F   -0.29412846426170     -1.27338135511592      1.08455441721493
  H   0.93228647180122      1.13399991485588     -0.76945128928590
  N   -0.95432771410355      0.95766879486695      1.06171833559609
  O   -0.93280934138759      2.03884125805213      0.48053500979217
  O   -1.39054008082710      0.72039546416094      2.17640678625964
  C   -1.33587189028795     -0.50789960655765     -0.88076694010027
  H   -1.43035806282702      0.35434890985112     -1.54055538819029
  H   -2.31458590023527     -0.75495459473506     -0.46519205138412
  H   -0.96684498376212     -1.36747904326250     -1.44182721732734
  C   1.62018229717314     -0.83386970712512     -1.01340840212916
  N   2.06591841442298     -1.67605060800215     -1.69907141647601
  C   1.85795652881032      0.49026445475973      0.99241879266979
  N   2.51101906726309      0.71299324455163      1.94208541514663
