15
Coordinates from ORCA-job run
  C   -0.37183521865060     -0.20673455973067      0.28661718664575
  C   1.00801229743241      0.22519185320090     -0.25001194410695
  F   -0.20221873914097     -1.22708737906997      1.15773399391299
  H   0.86292958429396      1.11498069863635     -0.87168318536038
  N   -0.91377885347698      0.98649224420606      1.06998338644406
  O   -0.95147957212146      2.03880926232370      0.43884751548016
  O   -1.28200983974882      0.79303941489599      2.21721969261505
  C   -1.37106273307106     -0.57689862225954     -0.77739552085929
  H   -1.52094488456694      0.24998535723041     -1.47133354745941
  H   -1.01571210735005     -1.45577109372407     -1.31695577815751
  H   -2.31943873942749     -0.82144944141119     -0.29532030885828
  C   1.57819242410144     -0.84832109112500     -1.06717216659214
  N   2.00411326600622     -1.71003934348389     -1.74104132406195
  C   1.90047419493311      0.57153887816569      0.86063205614523
  N   2.59675892078725      0.86526382214520      1.75887994421269
