15
Coordinates from ORCA-job run
  C   -0.42046188649842     -0.29225426973847      0.03446026408401
  C   1.04731161249080      0.17896378764689     -0.01419148462979
  F   -0.46004577962237     -1.62367371179813     -0.19926115295386
  H   1.07054634389696      1.23466372298479      0.27586971257851
  N   -0.89238103039307     -0.05886944278175      1.46758077387244
  O   -0.74413037216802      1.08990071659490      1.87440061530381
  O   -1.39269961345370     -1.00012449891778      2.06159364412594
  C   -1.34573914532338      0.43936194482480     -0.90155568702571
  H   -1.32784071157972      1.51081947841011     -0.70305759108113
  H   -2.35935010415556      0.06097960840147     -0.75653088874485
  H   -1.04420277013643      0.24661100686205     -1.93195540714755
  C   1.56563772757555      0.04042922794407     -1.37702335761166
  N   1.94957502680463     -0.04268091867439     -2.48326054827764
  C   1.85910535452861     -0.58602233846004      0.93765958542506
  N   2.49267534803411     -1.19710431329853      1.71427152208246
