12

C	-0.494773	-0.007175	-1.437817
C	0.0	0.0	0.0
Cl	-0.053752	1.54742	-2.199478
H	1.091235	0.0	0.0
H	0.015576	-0.794242	-1.991551
H	-0.39381	0.835428	0.575332
C	-1.941557	-0.195988	-1.541816
N	-3.103316	-0.349174	-1.620949
N	-0.427053	-1.24808	0.680441
O	-0.583971	-1.201996	1.89737
O	-0.549676	-2.257362	-0.016412
Br	3.41973	0.0	0.0
