12

C	-0.479073	0.017332	-1.433072
C	0.0	0.0	0.0
Cl	-2.277736	0.094126	-1.528107
H	1.09265	0.0	0.0
H	-0.104715	0.915185	-1.925342
H	-0.398864	-0.837026	0.568757
C	-0.032092	-1.172816	-2.14995
N	0.290004	-2.126295	-2.755274
N	-0.428788	1.242171	0.689186
O	-0.763209	1.144404	1.867226
O	-0.383167	2.29034	0.048447
Br	3.39972	0.0	0.0
