12

C	-0.499035	0.057975	-1.434706
C	0.0	0.0	0.0
Cl	-0.000555	1.619419	-2.146438
H	1.088947	0.0	0.0
H	-0.025299	-0.730549	-2.017872
H	-0.388697	0.814395	0.608139
C	-1.9548	-0.061583	-1.526575
N	-3.126398	-0.127017	-1.577457
N	-0.436269	-1.269148	0.633598
O	-0.549424	-2.254902	-0.096297
O	-0.612093	-1.263528	1.847288
Br	3.417526	0.0	0.0
