12

C	-0.471556	0.143036	-1.429711
C	0.0	0.0	0.0
Cl	-2.266911	0.264916	-1.528663
H	1.091772	0.0	0.0
H	-0.074688	1.068807	-1.846182
H	-0.403557	-0.881986	0.492075
C	-0.045892	-0.998426	-2.23295
N	0.242784	-1.927268	-2.889859
N	-0.428864	1.179749	0.791035
O	-0.362929	2.279679	0.245965
O	-0.784682	0.981257	1.950665
Br	3.398271	0.0	0.0
