14

C	0.0	0.0	0.0
C	-0.506451	-0.233745	-1.416078
Cl	1.785649	0.0	0.0
H	-1.601066	-0.226857	-1.308937
H	-0.286936	-0.883986	0.576395
N	-0.497842	1.256162	0.481932
H	-0.259647	1.352229	1.462548
H	-1.519058	1.18563	0.426553
N	-0.096638	-1.544366	-1.905352
H	0.86236	-1.506073	-2.229776
H	-0.685473	-1.800525	-2.687731
C	-0.114208	0.868052	-2.313198
N	0.175819	1.666152	-3.125196
Cl	-3.571687	0.0	0.0
