14

C	0.0	0.0	0.0
C	-0.329904	-0.056699	-1.528218
Cl	1.822828	0.0	0.0
H	0.394633	0.619646	-1.994018
H	-0.280434	-0.932005	0.502624
N	-0.545411	1.198887	0.561327
H	-0.329091	1.229439	1.551321
H	-1.562768	1.104306	0.486995
N	-1.637427	0.335051	-1.987145
H	-2.396335	-0.098894	-1.458934
H	-1.740743	1.333688	-1.856164
C	-0.01218	-1.412263	-2.013806
N	0.236691	-2.500222	-2.375216
Cl	-4.024322	0.0	0.0
