14

C	0.0	0.0	0.0
C	-0.365847	0.054524	-1.533161
Cl	1.787616	0.0	0.0
H	0.46913	0.537734	-2.04902
H	-0.307719	-0.955317	0.423653
N	-0.542598	1.056725	0.783855
H	-1.498246	0.791904	1.022932
H	-0.630318	1.883185	0.203384
N	-1.538367	0.867051	-1.77244
H	-1.757013	0.864076	-2.762111
H	-2.360512	0.507768	-1.269861
C	-0.408964	-1.327718	-2.058549
N	-0.468055	-2.412149	-2.510031
Cl	-3.997908	0.0	0.0
