15

C	0.0	0.0	0.0
C	-0.491539	-0.038517	-1.435675
F	1.381166	0.0	0.0
H	-1.604793	-0.140605	-1.238226
H	-0.36803	-0.873346	0.528019
C	-0.451052	1.211877	0.709449
N	-0.596953	2.194861	1.336211
N	0.026076	-1.294211	-2.044532
O	0.424472	-1.268849	-3.215045
O	-0.012751	-2.322898	-1.363183
C	-0.084582	1.171979	-2.243837
H	-0.5506	2.052681	-1.79805
H	-0.424461	1.08423	-3.274857
H	1.000111	1.305997	-2.249608
F	-2.55628	0.0	0.0
