15

C	0.0	0.0	0.0
C	-0.515086	-0.037401	-1.426748
F	1.380941	0.0	0.0
H	-1.630546	-0.139409	-1.199623
H	-0.362993	-0.873368	0.532817
C	-0.440934	1.217198	0.699974
N	-0.602709	2.183476	1.346765
N	-0.010225	-1.28972	-2.04801
O	-0.03204	-2.317996	-1.368269
O	0.359529	-1.262294	-3.225317
C	-0.135894	1.176963	-2.240974
H	0.946953	1.327014	-2.262782
H	-0.609507	2.051247	-1.790981
H	-0.489685	1.081109	-3.266375
F	-2.586629	0.0	0.0
