15

C	0.0	0.0	0.0
C	-0.221247	-0.280493	-1.508916
F	1.383228	0.0	0.0
H	0.453181	0.41621	-2.015612
H	-0.370315	-0.802665	0.624453
C	-0.480841	1.294324	0.479216
N	-0.553533	2.379687	0.928894
N	-1.545922	0.039451	-2.134014
O	-2.244352	-0.885103	-2.538967
O	-1.742067	1.227114	-2.365424
C	0.180421	-1.705872	-1.835653
H	1.191712	-1.882922	-1.465672
H	0.167885	-1.87389	-2.914114
H	-0.516994	-2.403508	-1.373261
F	-2.267941	0.0	0.0
