15

C	0.0	0.0	0.0
C	-0.505074	-0.034717	-1.430993
F	1.380795	0.0	0.0
H	-1.619421	-0.140682	-1.216479
H	-0.36573	-0.875685	0.526727
C	-0.442756	1.207687	0.708758
N	-0.586019	2.178319	1.352788
N	0.00525	-1.287615	-2.050219
O	-0.002974	-2.313178	-1.368249
O	0.363033	-1.26075	-3.232919
C	-0.122077	1.180275	-2.240133
H	0.961198	1.330046	-2.25929
H	-0.473812	1.089632	-3.267086
H	-0.595061	2.054638	-1.787911
F	-2.571622	0.0	0.0
