15

C	0.0	0.0	0.0
C	-0.243174	-0.060058	-1.536799
F	1.383114	0.0	0.0
H	0.277199	0.81424	-1.936066
H	-0.369211	-0.887387	0.500665
C	-0.486668	1.209794	0.656258
N	-0.553939	2.227886	1.2433
N	-1.628192	0.089272	-2.103354
O	-1.946609	1.229174	-2.435894
O	-2.246168	-0.931121	-2.401982
C	0.373383	-1.323103	-2.123207
H	1.438246	-1.352156	-1.894305
H	-0.118129	-2.208386	-1.720062
H	0.244107	-1.333277	-3.20713
F	-2.281854	0.0	0.0
