15

C	0.0	0.0	0.0
C	-0.508445	-0.074816	-1.427843
F	1.380889	0.0	0.0
H	-1.622791	-0.173071	-1.207296
H	-0.362439	-0.864811	0.546787
C	-0.443417	1.225808	0.677
N	-0.56913	2.23761	1.259345
N	-0.001898	-1.345021	-2.013812
O	0.004394	-2.348729	-1.298178
O	0.33592	-1.356622	-3.201713
C	-0.128832	1.115906	-2.275598
H	-0.5983	2.003071	-1.846765
H	0.954385	1.263408	-2.306329
H	-0.487522	0.993508	-3.296514
F	-2.57445	0.0	0.0
