15

C	0.0	0.0	0.0
C	-0.563143	0.035817	-1.401393
F	1.380733	0.0	0.0
H	-1.697356	-0.041823	-1.096518
H	-0.354939	-0.898298	0.496873
C	-0.427938	1.176754	0.773656
N	-0.57961	2.11581	1.462597
N	-0.157764	-1.198874	-2.101002
O	-0.006741	-1.1577	-3.326948
O	-0.051491	-2.238669	-1.443226
C	-0.20218	1.271457	-2.190397
H	-0.592924	2.143698	-1.662611
H	-0.652897	1.239535	-3.181129
H	0.879927	1.382443	-2.307952
F	-2.63816	0.0	0.0
