15

C	0.0	0.0	0.0
C	-0.393283	-0.301645	-1.457392
F	1.382669	0.0	0.0
H	0.522734	-0.149509	-2.043549
H	-0.345502	-0.806339	0.639134
C	-0.443302	1.264274	0.595768
N	-0.516053	2.261266	1.214293
N	-1.329498	0.690024	-2.075686
O	-1.045365	1.872949	-1.914037
O	-2.193683	0.280504	-2.842009
C	-0.902004	-1.717629	-1.616863
H	-0.155487	-2.407971	-1.209423
H	-1.072151	-1.964138	-2.665087
H	-1.83079	-1.760925	-1.05006
F	-2.332909	0.0	0.0
