15

C	0.0	0.0	0.0
C	-0.50265	-0.036166	-1.431264
F	1.380838	0.0	0.0
H	-1.615947	-0.143639	-1.221001
H	-0.364187	-0.877384	0.52552
C	-0.452528	1.203451	0.712692
N	-0.596752	2.193253	1.327952
N	0.015702	-1.287988	-2.048283
O	-0.008381	-2.316668	-1.370098
O	0.399077	-1.257187	-3.221818
C	-0.116687	1.179799	-2.240385
H	-0.462445	1.086923	-3.268996
H	-0.593191	2.052976	-1.790988
H	0.966446	1.329515	-2.253565
F	-2.568126	0.0	0.0
