12
Coordinates from ORCA-job run
  C   0.51862686113077     -0.73732597279543     -0.12778365000883
  C   -0.66474420111620     -0.12643365946582      0.60911677265461
  H   0.99537941955172     -1.46132685345214      0.55003863780619
  H   -1.39955604003486     -0.92731459792702      0.78104082460675
  H   0.14728981462942     -1.30581529215796     -0.98926644648778
  H   -0.33161032806294      0.21614305807332      1.59647900661709
  N   1.41953262018267      0.30141715065102     -0.62446127381184
  H   2.33849449107751     -0.08335351055467     -0.79937795885150
  H   1.50809917717399      1.03890318911645      0.06274033179103
  N   -1.19461882481362      1.02720973561733     -0.11588399274087
  H   -1.19012796025131      0.84149411071879     -1.11060347822873
  H   -2.14676502946716      1.21540264217614      0.16896122665387
