12
Coordinates from ORCA-job run
  C   -0.47967866264834      0.42830704831933      0.22628966101178
  C   0.56386627420336     -0.48756459496676     -0.40790486686225
  H   -0.18323190570668      1.46794994075488      0.05119433568519
  H   0.57421966217646     -0.30472790507233     -1.48499410562054
  H   -0.47092797560283      0.27143937773901      1.31818008326897
  H   0.26120966613658     -1.53171527726479     -0.26990951562734
  N   -1.78457085977255      0.21688578306206     -0.39868149871303
  H   -2.45271655110961      0.89431541288369     -0.05312993166658
  H   -2.13475604566919     -0.69985889519411     -0.14711414357617
  N   1.92325416233210     -0.34559451057172      0.10583978301374
  H   1.93471815817295     -0.51013125103490      1.10529785468110
  H   2.24861407748775      0.60169487134562     -0.04506765559488
