17

C	0.0	0.0	0.0
C	-0.495734	-0.079278	-1.485427
Br	1.970232	0.0	0.0
H	0.372281	-0.338797	-2.102414
H	-0.220291	-0.970021	0.449707
C	-0.602521	1.071117	0.875372
H	-0.26563	0.960147	1.910133
H	-0.348386	2.075435	0.530045
H	-1.690166	0.890833	0.799534
C	-1.080452	1.243554	-1.966365
H	-2.020128	1.387005	-1.42777
H	-0.404221	2.089405	-1.807338
H	-1.296924	1.159691	-3.034106
N	-1.514922	-1.098747	-1.683169
H	-1.148092	-1.990568	-1.362922
H	-2.30764	-0.821187	-1.053925
F	-3.191356	0.0	0.0
