17

C	0.0	0.0	0.0
C	-0.27625	-0.182088	-1.522149
Br	1.973296	0.0	0.0
H	0.423169	0.50175	-2.030837
H	-0.290414	-0.917755	0.510223
C	-0.64641	1.208531	0.618676
H	-0.390975	2.123151	0.075179
H	-1.733697	0.9936	0.545476
H	-0.353714	1.327317	1.665423
C	-1.673401	0.170164	-2.000811
H	-2.475274	-0.275094	-1.382284
H	-1.732158	-0.084345	-3.070176
H	-1.8367	1.246929	-1.912886
N	0.019481	-1.584147	-1.864045
H	-0.400038	-1.785501	-2.7626
H	1.020987	-1.708171	-1.95334
F	-3.392095	0.0	0.0
