17

C	-0.379101	-0.197131	-1.490456
C	0.0	0.0	0.0
Br	-2.341475	-0.485599	-1.667719
H	1.095755	0.0	0.0
C	-0.122093	1.074762	-2.165341
N	0.082636	2.086092	-2.729573
C	0.371602	-1.320691	-2.193314
H	1.439906	-1.171692	-2.001814
H	0.168475	-1.289909	-3.2651
H	0.075566	-2.286231	-1.788662
N	-0.470598	-1.210047	0.770028
O	0.110305	-2.270742	0.545476
O	-1.413617	-1.069229	1.54273
N	-0.461824	1.180594	0.631489
H	-1.398965	1.447607	0.364508
H	0.198267	1.929946	0.484066
Br	3.415305	0.0	0.0
