17

C	-0.450381	-0.020204	-1.46899
C	0.0	0.0	0.0
Br	-2.412934	-0.365674	-1.55323
H	1.094536	0.0	0.0
C	-0.273179	1.327681	-2.008912
N	-0.12518	2.364019	-2.543516
C	0.282813	-1.019187	-2.356153
H	1.356438	-0.86538	-2.203891
H	0.018798	-0.844451	-3.400587
H	0.032582	-2.039112	-2.076435
N	-0.399785	-1.316691	0.666365
O	0.070106	-2.352783	0.207047
O	-1.161263	-1.257489	1.631301
N	-0.483635	1.133604	0.695016
H	-1.420557	0.980828	1.04438
H	0.134403	1.344596	1.466867
Br	3.403064	0.0	0.0
