17

C	-0.577114	-0.098909	-1.425045
C	0.0	0.0	0.0
Br	-0.074809	1.58765	-2.328261
H	1.096546	0.0	0.0
C	0.013787	-1.156392	-2.241605
N	0.373844	-1.987185	-2.991936
C	-2.099181	-0.198766	-1.436301
H	-2.398856	-1.169029	-1.033849
H	-2.475436	-0.111788	-2.456307
H	-2.501952	0.603623	-0.818519
N	-0.389153	-1.230144	0.777087
O	-0.510761	-1.120487	1.996116
O	-0.505415	-2.284418	0.157217
N	-0.538534	1.158066	0.693879
H	-0.483897	0.945105	1.68593
H	0.116672	1.916103	0.526686
Br	3.386592	0.0	0.0
