17

C	-0.560735	0.0161	-1.435195
C	0.0	0.0	0.0
Br	0.124352	-1.418992	-2.586026
H	1.109141	0.0	0.0
C	-2.018676	-0.085941	-1.366307
N	-3.187072	-0.06694	-1.228118
C	-0.15057	1.329436	-2.107747
H	-0.459422	1.318068	-3.153924
H	0.936129	1.418134	-2.043433
H	-0.611539	2.164618	-1.583834
N	-0.42932	-1.245571	0.778306
O	-0.514739	-2.317727	0.189234
O	-0.629302	-1.091337	1.98306
N	-0.422743	1.18556	0.678843
H	0.240768	1.392053	1.414234
H	-1.336766	1.061752	1.097901
Br	3.425147	0.0	0.0
