17

C	-0.418279	-0.032514	-1.489705
C	0.0	0.0	0.0
Br	-2.372997	0.167109	-1.739764
H	1.1082	0.0	0.0
C	0.198617	1.216709	-2.169488
N	-0.080593	2.347777	-1.974098
C	-0.005516	-1.330388	-2.170234
H	-0.24809	-1.289415	-3.241808
H	-0.536522	-2.178144	-1.724997
H	1.07812	-1.468884	-2.050816
N	-0.474632	-1.194615	0.777702
O	-1.755461	-1.261423	0.959176
O	0.262871	-1.412713	1.825166
N	-0.433395	1.194474	0.688068
H	-0.038417	1.202125	1.635815
H	-1.453381	1.237327	0.767085
Br	2.68987	0.0	0.0
