17

C	-0.378609	-0.009062	-1.504839
C	0.0	0.0	0.0
Br	-2.337117	-0.294021	-1.721593
H	1.093377	0.0	0.0
C	-0.138024	1.341955	-2.010873
N	0.049964	2.429412	-2.417558
C	0.383369	-1.025683	-2.344116
H	0.099446	-2.037618	-2.063926
H	1.44975	-0.889557	-2.135144
H	0.178103	-0.862965	-3.403543
N	-0.469887	-1.29909	0.609165
O	-1.418702	-1.260539	1.386918
O	0.117123	-2.320675	0.255756
N	-0.464821	1.089668	0.776247
H	-1.404244	1.383551	0.547069
H	0.190856	1.854964	0.721107
Br	3.417085	0.0	0.0
