17

C	-0.483093	0.081586	-1.463001
C	0.0	0.0	0.0
Br	-0.225224	-1.630482	-2.390129
H	1.090974	0.0	0.0
C	-1.90973	0.392625	-1.538384
N	-3.043934	0.695722	-1.599935
C	0.349501	1.145146	-2.175166
H	1.405306	0.880165	-2.08425
H	0.061026	1.213043	-3.225249
H	0.180686	2.101242	-1.678676
N	-0.510995	-1.271698	0.646936
O	-1.702258	-1.264278	0.976273
O	0.26307	-2.207844	0.803394
N	-0.454458	1.163409	0.6939
H	0.169867	1.361194	1.465369
H	-1.404373	1.041563	1.023386
Br	3.479619	0.0	0.0
