17

C	-0.489777	0.050854	-1.461853
C	0.0	0.0	0.0
Br	-0.224425	-1.675293	-2.361326
H	1.09103	0.0	0.0
C	-1.919824	0.349171	-1.534784
N	-3.056171	0.639355	-1.6193
C	0.330522	1.108053	-2.197753
H	0.155062	2.072557	-1.719474
H	1.389118	0.853403	-2.106143
H	0.036937	1.15257	-3.247734
N	-0.508672	-1.257994	0.675227
O	-1.692077	-1.236009	1.031791
O	0.259805	-2.199939	0.823617
N	-0.452821	1.178024	0.670389
H	0.177349	1.394888	1.432155
H	-1.399311	1.059116	1.011443
Br	3.478901	0.0	0.0
