18

C	0.0	0.0	0.0
C	-0.5124	0.099352	-1.443991
F	1.383451	0.0	0.0
H	-1.581394	0.316505	-1.340393
N	-0.274097	1.370284	0.74265
O	-0.290431	1.300663	1.967633
O	-0.375047	2.41027	0.102046
N	-0.590024	-1.055826	0.645768
H	-0.310651	-1.077205	1.620561
H	-1.642725	-0.816978	0.514088
N	-0.436941	-1.278578	-2.040857
O	-1.449628	-1.707656	-2.593377
O	0.649054	-1.858219	-2.026502
C	0.273685	0.986851	-2.393114
H	0.182501	2.027487	-2.096527
H	1.325257	0.696768	-2.402955
H	-0.133456	0.869083	-3.401301
F	-2.783412	0.0	0.0
