18

C	0.0	0.0	0.0
C	-0.557749	-0.044611	-1.428575
F	1.349719	0.0	0.0
H	-1.651386	-0.041596	-1.273452
N	-0.275375	1.429788	0.642828
O	0.057128	2.429062	0.008321
O	-0.679371	1.441541	1.798421
N	-0.574329	-1.007044	0.749843
H	-1.61648	-0.82556	0.601675
H	-0.343667	-0.877681	1.728006
N	-0.190546	-1.404474	-1.955096
O	-1.084198	-2.240068	-2.069962
O	0.984336	-1.592198	-2.280954
C	-0.047898	0.979346	-2.423986
H	-0.330067	0.659059	-3.430808
H	1.0363	1.081933	-2.380879
H	-0.506936	1.94471	-2.227904
F	-2.819046	0.0	0.0
