18

C	0.0	0.0	0.0
C	-0.525205	-0.0348	-1.442854
F	1.349665	0.0	0.0
H	-1.618769	0.010004	-1.326887
N	-0.278956	1.431735	0.652545
O	-0.590575	1.427202	1.840053
O	-0.049694	2.444102	-0.007994
N	-0.58225	-1.005328	0.738437
H	-1.628137	-0.80733	0.582307
H	-0.340044	-0.886106	1.715187
N	-0.201583	-1.414598	-1.941889
O	-1.121126	-2.222969	-2.043294
O	0.969211	-1.646844	-2.25662
C	0.070108	0.95609	-2.430762
H	-0.148036	0.616865	-3.44705
H	1.149846	1.033419	-2.315993
H	-0.378302	1.935073	-2.288597
F	-2.79674	0.0	0.0
