18

C	0.0	0.0	0.0
C	-0.5379	0.123973	-1.456114
F	1.357364	0.0	0.0
H	-1.452503	-0.468066	-1.427976
N	-0.318807	1.278774	0.814272
O	0.208059	2.307907	0.388234
O	-0.957519	1.189168	1.846924
N	-0.491174	-1.095396	0.728685
H	-1.525097	-0.910601	0.669891
H	-0.276836	-1.918388	0.173469
N	0.461436	-0.598655	-2.30889
O	1.130475	0.036332	-3.122181
O	0.564513	-1.816012	-2.132602
C	-0.892346	1.477705	-2.019894
H	-1.744252	1.805401	-1.423366
H	-0.082691	2.203098	-1.979351
H	-1.218093	1.354457	-3.054968
F	-2.699967	0.0	0.0
