18

C	0.0	0.0	0.0
C	-0.518034	0.205189	-1.427517
F	1.372494	0.0	0.0
H	-1.601635	0.340096	-1.296796
N	-0.292898	1.28583	0.864236
O	-0.232522	1.110213	2.078114
O	-0.490103	2.36968	0.327867
N	-0.566392	-1.122707	0.567772
H	-1.611683	-0.907722	0.443631
H	-0.32454	-1.153865	1.551756
N	-0.339512	-1.118486	-2.119281
O	-1.343571	-1.769281	-2.392203
O	0.809342	-1.453596	-2.413671
C	0.204032	1.239727	-2.271208
H	-0.115389	1.138547	-3.312559
H	1.283049	1.094446	-2.228045
H	-0.047863	2.237884	-1.924829
F	-2.781694	0.0	0.0
