15

C	-0.521864	-0.045843	-1.428427
C	0.0	0.0	0.0
Cl	0.061779	1.350988	-2.341228
H	1.09005	0.0	0.0
H	-0.315823	-0.913755	0.510563
N	0.016664	-1.336625	-2.067881
O	-0.230233	-2.354124	-1.424614
O	0.552523	-1.300013	-3.16406
C	-2.034148	-0.127533	-1.553548
H	-2.39567	-0.999742	-1.006016
H	-2.475757	0.775294	-1.130819
H	-2.323567	-0.206411	-2.604717
C	-0.53541	1.149327	0.70257
N	-0.965077	2.078279	1.281741
H	2.711207	0.0	0.0
