15

C	-0.513728	0.045793	-1.431564
C	0.0	0.0	0.0
Cl	0.088958	1.492271	-2.25374
H	1.093424	0.0	0.0
H	-0.31739	-0.945112	0.449132
N	0.02553	-1.209042	-2.138686
O	-0.289189	-2.262729	-1.590663
O	0.633965	-1.109572	-3.191675
C	-2.025377	-0.014811	-1.572241
H	-2.401665	-0.909055	-1.0731
H	-2.306807	-0.036406	-2.628219
H	-2.45974	0.871319	-1.108256
C	-0.536035	1.102771	0.773089
N	-0.970865	1.994439	1.404581
H	2.706562	0.0	0.0
