15

C	-0.511377	-0.005008	-1.430545
C	0.0	0.0	0.0
Cl	0.125811	1.394439	-2.307954
H	1.093155	0.0	0.0
H	-0.325404	-0.915057	0.499411
N	-0.018832	-1.28996	-2.112971
O	-0.025042	-2.296175	-1.409657
O	0.221141	-1.262095	-3.312939
C	-2.024182	-0.033929	-1.57211
H	-2.441336	0.863299	-1.114157
H	-2.303817	-0.060681	-2.627857
H	-2.417919	-0.916142	-1.061267
C	-0.51635	1.151632	0.715304
N	-0.927818	2.084643	1.300803
H	2.734536	0.0	0.0
