15

C	-0.588466	0.011135	-1.396775
C	0.0	0.0	0.0
Cl	0.081179	1.411647	-2.277791
H	1.090093	0.0	0.0
H	-0.279098	0.953573	0.463404
N	-0.162906	-1.240567	-2.170764
O	-0.578529	-1.332285	-3.324075
O	0.520929	-2.069564	-1.585336
C	-2.102143	0.068189	-1.459427
H	-2.436845	0.126426	-2.494566
H	-2.521639	-0.823684	-0.986832
H	-2.444568	0.949921	-0.915327
C	-0.55282	-1.074338	0.806957
N	-1.002686	-1.943012	1.459308
H	2.721445	0.0	0.0
