15

C	-0.596153	-0.112387	-1.393396
C	0.0	0.0	0.0
Cl	0.15886	1.065019	-2.480101
H	1.090108	0.0	0.0
H	-0.319505	-0.859385	0.593999
N	-0.327145	-1.521684	-1.94971
O	-0.400449	-1.671736	-3.163627
O	-0.1837	-2.422777	-1.12994
C	-2.107476	0.035798	-1.467449
H	-2.442251	-0.075769	-2.501211
H	-2.392659	1.020238	-1.098778
H	-2.577297	-0.728825	-0.841217
C	-0.476069	1.217801	0.637045
N	-0.858181	2.203608	1.1514
H	2.725519	0.0	0.0
