18

C	0.0	0.0	0.0
C	-0.458123	-0.109696	-1.451588
Cl	1.900111	0.0	0.0
H	-1.55045	-0.147928	-1.354318
N	-0.470228	1.194478	0.526379
H	-0.257438	1.355038	1.496508
H	-0.328675	1.982983	-0.085815
C	-0.423297	-1.183591	0.837211
H	-0.095945	-1.042625	1.871213
H	-0.000522	-2.105865	0.446425
H	-1.516576	-1.21723	0.805027
N	0.0011	-1.355393	-2.041161
H	0.997847	-1.300936	-2.220294
H	-0.478539	-1.50459	-2.920261
N	-0.120043	1.131492	-2.15331
H	-0.730246	1.238662	-2.953972
H	0.839516	1.081249	-2.478183
Cl	-4.048548	0.0	0.0
