18

C	0.0	0.0	0.0
C	-0.300881	-0.002228	-1.537743
Cl	1.808249	0.0	0.0
H	0.273321	0.858811	-1.928724
N	-0.476386	1.175748	0.670584
H	-0.361741	1.98901	0.074132
H	-1.470771	1.049132	0.848397
C	-0.517531	-1.231778	0.705532
H	-0.272498	-1.169645	1.768255
H	-1.606824	-1.263403	0.596951
H	-0.090586	-2.132737	0.271824
N	-1.666153	0.203918	-1.941734
H	-1.965057	1.146769	-1.730255
H	-2.321574	-0.385938	-1.43384
N	0.116171	-1.271885	-2.127407
H	-0.244463	-1.273963	-3.073218
H	1.12531	-1.33697	-2.155646
Cl	-4.172912	0.0	0.0
