14

C	-0.401643	0.049249	-1.455187
C	0.0	0.0	0.0
Cl	-2.210296	-0.099494	-1.6087
H	1.095369	0.0	0.0
H	-0.173544	1.044341	-1.838166
H	-0.330807	-0.959705	0.425379
C	0.270759	-1.032246	-2.272533
H	0.00566	-0.95778	-3.328889
H	-0.019544	-2.021759	-1.911493
H	1.352668	-0.924117	-2.155311
N	-0.477085	1.169898	0.732206
H	-1.390489	0.987033	1.12852
H	0.16618	1.355643	1.491364
Br	3.682382	0.0	0.0
