14

C	-0.536235	0.001606	-1.423519
C	0.0	0.0	0.0
Cl	-0.092871	1.548861	-2.238452
H	1.092414	0.0	0.0
H	-0.032948	-0.787074	-1.986101
H	-0.344293	0.910164	0.509604
C	-2.041917	-0.164759	-1.493266
H	-2.313141	-1.114952	-1.02774
H	-2.538154	0.653253	-0.961395
H	-2.391925	-0.159824	-2.527778
N	-0.437237	-1.236853	0.668201
H	-1.194777	-1.048472	1.309475
H	0.338943	-1.596856	1.206815
Br	3.726509	0.0	0.0
