14

C	-0.543563	-0.052527	-1.415471
C	0.0	0.0	0.0
Cl	-0.116506	1.466383	-2.298691
H	1.099482	0.0	0.0
H	-0.021975	-0.845202	-1.955662
H	-0.31976	-0.935253	0.479557
C	-2.048918	-0.239189	-1.477419
H	-2.406265	-0.249307	-2.508746
H	-2.539441	0.56364	-0.928997
H	-2.312966	-1.192654	-1.00722
N	-0.588319	1.118038	0.753227
H	-0.286883	1.017689	1.716285
H	-0.136222	1.964583	0.420147
Br	3.773863	0.0	0.0
