14

C	-0.413303	0.016208	-1.458582
C	0.0	0.0	0.0
Cl	-2.213608	0.21275	-1.597397
H	1.099115	0.0	0.0
H	0.005168	0.906072	-1.934308
H	-0.334851	0.927187	0.477558
C	0.013584	-1.234421	-2.191204
H	1.100645	-1.315978	-2.112829
H	-0.2715	-1.196469	-3.244465
H	-0.443861	-2.103626	-1.71976
N	-0.49518	-1.19194	0.696057
H	-1.113117	-0.930743	1.452781
H	0.297122	-1.678382	1.099591
Br	3.715785	0.0	0.0
