16

C	0.0	0.0	0.0
C	-0.433754	0.100905	-1.451159
Br	2.093314	0.0	0.0
H	-1.526554	0.014084	-1.401805
H	-0.022762	-0.749125	-2.009879
N	-0.45443	1.102606	0.689321
H	-0.231098	1.140463	1.669827
H	-0.324092	1.965931	0.182529
C	-0.41509	-1.30137	0.642527
H	-1.510871	-1.312341	0.630972
H	-0.013359	-2.154201	0.092565
H	-0.058733	-1.356781	1.673998
N	-0.084867	1.406215	-2.005972
H	0.838553	1.374101	-2.417003
H	-0.753944	1.66161	-2.718805
Cl	-3.947593	0.0	0.0
