16

C	0.0	0.0	0.0
C	-0.294362	-0.205424	-1.511663
Br	1.984339	0.0	0.0
H	0.144206	-1.170009	-1.791406
H	0.269028	0.567634	-2.041388
N	-0.488878	1.291022	0.417879
H	-1.501397	1.263068	0.278471
H	-0.3417	1.395158	1.417028
C	-0.479416	-1.154563	0.862532
H	-0.160677	-1.018008	1.89973
H	-1.574579	-1.15326	0.834497
H	-0.099181	-2.114269	0.503677
N	-1.660763	-0.156327	-1.968979
H	-2.054737	0.76692	-1.846
H	-2.280375	-0.758108	-1.439184
Cl	-4.14383	0.0	0.0
