16

C	0.0	0.0	0.0
C	-0.431433	0.146441	-1.451772
Br	2.077626	0.0	0.0
H	-1.525311	0.078958	-1.406456
H	-0.169576	1.160413	-1.788874
N	-0.459458	1.077111	0.745089
H	-0.223923	1.988095	0.387512
H	-0.352855	0.99604	1.742059
C	-0.412787	-1.320989	0.607031
H	-0.028601	-2.143245	0.006343
H	-0.036735	-1.410537	1.630386
H	-1.509029	-1.33133	0.612584
N	0.092286	-0.914733	-2.298737
H	-0.499985	-1.017878	-3.113871
H	1.030281	-0.686042	-2.5998
Cl	-4.049687	0.0	0.0
