16

C	0.0	0.0	0.0
C	-0.431382	-0.155544	-1.457148
Br	1.992223	0.0	0.0
H	-1.526005	-0.165211	-1.409451
H	-0.123132	0.75617	-1.996576
N	-0.467447	1.224312	0.589433
H	-0.355858	1.979555	-0.080139
H	-1.473242	1.094964	0.728126
C	-0.44206	-1.174817	0.847656
H	-0.103003	-1.033272	1.874904
H	-1.535531	-1.202327	0.824377
H	-0.047498	-2.10444	0.441837
N	0.036644	-1.392912	-2.073046
H	-0.558761	-1.614885	-2.860885
H	0.980987	-1.268289	-2.414123
Cl	-3.77169	0.0	0.0
