16

C	0.0	0.0	0.0
C	-0.326959	0.324782	-1.473379
Br	2.042139	0.0	0.0
H	0.185694	-0.408713	-2.102817
H	0.129814	1.297676	-1.69636
N	-0.493381	1.011681	0.836166
H	-0.110691	1.924539	0.63698
H	-0.450418	0.798035	1.821643
C	-0.501228	-1.353017	0.446965
H	-0.149822	-2.137844	-0.224844
H	-1.595292	-1.312058	0.442591
H	-0.156872	-1.583856	1.458411
N	-1.725579	0.362365	-1.819057
H	-2.272414	0.887476	-1.142921
H	-2.144173	-0.558699	-1.796438
Cl	-4.458878	0.0	0.0
