16

C	0.0	0.0	0.0
C	-0.396742	-0.139173	-1.489584
Cl	1.783067	0.0	0.0
H	-0.06135	-1.144927	-1.769533
H	0.218276	0.566512	-2.049586
N	-0.3561	1.401353	0.50499
O	-0.443747	2.292563	-0.334218
O	-0.471355	1.549746	1.716407
C	-0.610165	-1.026344	0.910995
H	-0.247245	-0.920056	1.932054
H	-0.364416	-2.022276	0.536189
H	-1.697845	-0.89105	0.899293
N	-1.767053	0.036909	-1.864638
H	-2.423179	-0.557866	-1.367312
H	-2.079597	0.980201	-1.67744
Br	-4.515275	0.0	0.0
