12
Coordinates from ORCA-job run
  C   1.00570168921809      0.01998720552972      0.43843513749881
  C   -0.47453262746637     -0.29437399912341      0.12770482839648
  Cl  1.22831024003077      1.69339500733908      0.98065738745649
  H   -0.51088750726848     -1.37781571565880     -0.07436773685953
  H   1.34988200160053     -0.63192004094113      1.24545251433293
  C   1.79453982185500     -0.24392953084397     -0.76221279553639
  N   2.37586239577261     -0.49063801395236     -1.75233014439904
  N   -0.94205211465153      0.53168899197014     -0.96962723510701
  H   -0.63300262901565      0.14537402938799     -1.85344996997653
  H   -1.95149282916088      0.59031674071281     -0.97768622123913
  C   -1.28492209444482     -0.05743687361913      1.32593727353440
  N   -1.95840634646925      0.11435219919908      2.27148696189851
