12
Coordinates from ORCA-job run
  C   1.05646750123001      0.16384381045009      0.24279031408703
  C   -0.43918517016272     -0.21872480084093      0.29564191570185
  Cl  1.28746585512366      1.91601223879368      0.09827058995549
  H   -0.46135734839124     -1.30030239203291      0.50942986863280
  H   1.54194883661184     -0.15270075402137      1.16952074598422
  C   1.67075174439363     -0.53318397767549     -0.88430717356487
  N   2.10898422037797     -1.13380718996002     -1.79333829972365
  N   -1.09562095151666      0.15623908334651     -0.94301927162334
  H   -2.09716773114387      0.22158217394481     -0.81909916186021
  H   -0.90298923710090     -0.53144088117938     -1.66134380140370
  C   -1.07309255694658      0.45241935893743      1.43422984436512
  N   -1.59820516247515      0.96106333023757      2.35222442944926
