12
Coordinates from ORCA-job run
  C   1.00484423893178      0.06170426561684      0.37933445345360
  C   -0.46693012607008     -0.31081914816529      0.13673978890080
  Cl  1.21107235374191      1.83380380742359      0.38142509718729
  H   -0.50883679663494     -1.40609404116844      0.12988490053584
  H   1.31637440514925     -0.28801752240098      1.36656816435330
  C   1.84973838047527     -0.55082970305518     -0.64081794506111
  N   2.53571043839817     -1.08185978777428     -1.43156198642069
  N   -0.89357445678643      0.16048267836294     -1.16188210309326
  H   -1.76857396999748     -0.27191275024188     -1.42812253543841
  H   -1.02047571227390      1.16498861496525     -1.15554322794779
  C   -1.28515896688774      0.15531990710154      1.27605176864953
  N   -1.97518978804580      0.53223367933589      2.14892362488089
