12
Coordinates from ORCA-job run
  C   1.02589092021575     -0.04629701785175      0.32047079390262
  C   -0.49533371933633     -0.22761783246720      0.19434833796318
  Cl  1.47059652619687      1.67054246046706      0.12450995940366
  H   -0.68717269657018     -1.30055427348421      0.31027152945227
  H   1.35113561288295     -0.33874646189044      1.32180149414630
  C   1.71283255299920     -0.86687432773460     -0.67184289167204
  N   2.27541925529618     -1.55420617571952     -1.43920869807755
  N   -0.93718756651581      0.16502826035118     -1.12521952176111
  H   -1.87893056249758     -0.16200776884736     -1.29751851057655
  H   -0.92415340914635      1.17271283888421     -1.22341813626258
  C   -1.16712145044645      0.46436549339483      1.31456431419344
  N   -1.74497546307824      1.02165480489780      2.17224132928836
