12
Coordinates from ORCA-job run
  C   0.91585572279292     -0.49671977854362      0.21564844100382
  C   -0.61499374298472     -0.29009430847658      0.33657430574670
  Cl  1.67392976885285     -0.60209118875190      1.82222536192885
  H   -0.99486600971543     -1.11813466786155      0.94466665887440
  H   1.08949235445439     -1.45477117847644     -0.28140390433710
  C   1.51227359476442      0.56916065935762     -0.58193075163226
  N   1.93840998439616      1.43043295841971     -1.25750285593625
  N   -1.31532825871992     -0.28206400688184     -0.92801754434159
  H   -1.00493695139329      0.47624353834205     -1.52337405566226
  H   -1.21088113456179     -1.16298865516170     -1.41467314376492
  C   -0.88858344011089      0.95976620083403      1.05729269492751
  N   -1.10037188777469      1.97226042720022      1.61149479319311
