12
Coordinates from ORCA-job run
  C   1.04965113312709      0.15511725986767      0.16943186199680
  C   -0.44625552273596     -0.16090682102024      0.33069125174620
  Cl  1.27570720157038      1.66749709277875     -0.74948833529012
  H   -0.50240553988480     -1.10562627730779      0.88365596374465
  H   1.50024840589073      0.31853037146578      1.15140747126985
  C   1.72696786756953     -0.95353888092456     -0.49525411488626
  N   2.28646896210952     -1.86188866155716     -0.98503487777274
  N   -1.05589789758569     -0.36446585103488     -0.96452384758182
  H   -1.16635300107894      0.51633999794986     -1.45157662902362
  H   -1.96712985235891     -0.79294056471026     -0.86603519298512
  C   -1.07858997277664      0.87975926247492      1.16859290033398
  N   -1.62141178384629      1.70212307201790      1.80813354844821
