12
Coordinates from ORCA-job run
  C   0.97511866054160     -0.03796620656619      0.30882964610468
  C   -0.57604411601513     -0.14860471397023      0.29954273020769
  Cl  1.49106037860508      1.61732791156331     -0.09760553910780
  H   -0.80565377913189     -1.18563204102539      0.57431724541513
  H   1.36124760400123     -0.25806739977889      1.30739294632715
  C   1.51915611572820     -0.98898293322380     -0.65458546327868
  N   1.88972306288355     -1.77738959604051     -1.44230287145123
  N   -1.23560980533990      0.13729308707937     -0.94957027319489
  H   -0.97575191045220     -0.53797808252889     -1.65781019278717
  H   -1.01436680157142      1.06968521298193     -1.27541503563106
  C   -1.10969809001715      0.71245469819815      1.36370955173761
  N   -1.51818131923195      1.39886006331112      2.22349725565858
