12
Coordinates from ORCA-job run
  C   0.90459000786637     -0.26223453301041     -0.19584497337175
  C   -0.54405164640770     -0.00572374340065      0.30897018194449
  Cl  1.37901516927541     -1.93844611826368      0.18797170278945
  H   -0.52996416469907     -0.12794358838072      1.39742642112232
  H   0.92973282900833     -0.16401122266552     -1.28415576182053
  C   1.85143293469542      0.66963913774234      0.40450246653095
  N   2.58925970664767      1.43256847534077      0.90807462107316
  N   -1.56640763935407     -0.87002236199421     -0.23062252907242
  H   -1.61833708642034     -0.79745114364380     -1.23935226658238
  H   -1.39364606435237     -1.83285191841534      0.02710230591087
  C   -0.87708424091325      1.39255893925291      0.00335683664504
  N   -1.12453980534637      2.50291807743830     -0.28642900516919
