12
Coordinates from ORCA-job run
  C   0.89565186799020     -0.19354513569014     -0.29876066507630
  C   -0.52218511711429     -0.08327886005951      0.33088032503494
  Cl  1.41051293752956     -1.90186647184522     -0.30434568543010
  H   -0.44023780827074     -0.43323085765866      1.36559543696971
  H   0.85379627172721      0.13089357668937     -1.34180211675415
  C   1.86669780226689      0.61353524027404      0.42986715072774
  N   2.62527704914672      1.27105325464948      1.04007556968536
  N   -1.56637155766143     -0.83693269833464     -0.32086459608718
  H   -1.36814567851160     -1.82823666395728     -0.28520709207006
  H   -1.68172438347093     -0.55246087420122     -1.28583435226402
  C   -0.88975758127930      1.33931653392814      0.35075592751100
  N   -1.18251380235229      2.47575295620564      0.31964009775306
