12
Coordinates from ORCA-job run
  C   1.01778359273358     -0.50074602243097      0.16546957027017
  C   -0.50835211749380     -0.37474301471546      0.29676290675696
  Cl  1.78376894889763     -0.59902867444462      1.76719232627521
  H   -0.84695031963611     -1.24852132612161      0.86137628550507
  H   1.22003971833944     -1.43355786387804     -0.36330124237629
  C   1.55682125878383      0.61530866302036     -0.60485002687960
  N   1.94596956537599      1.51027512346306     -1.25837051377206
  N   -1.07675885881266     -0.43630508421150     -1.03814820139765
  H   -0.95676141105655      0.44938988684703     -1.51744023513006
  H   -2.06900700561856     -0.63167570350776     -0.98916168768074
  C   -0.86767791650058      0.83355011611152      1.06377779885582
  N   -1.19787545501221      1.81605389986799      1.61669301957318
