12
Coordinates from ORCA-job run
  C   1.04978143384496      0.09579802699101      0.30270877895152
  C   -0.45722406254676     -0.23907053177781      0.24442205186435
  Cl  1.33765062006142      1.84249944948389      0.39834029733480
  H   -0.51863759298524     -1.33821415992812      0.30893296863591
  H   1.48365136744264     -0.35495700066088      1.19894512905951
  C   1.69258121757729     -0.47170077291397     -0.87970894276360
  N   2.15307550822220     -0.97110579297261     -1.83773956406320
  N   -1.04871973186166      0.32001199357615     -0.95651277887925
  H   -2.05140440562483      0.40959600921745     -0.86200352731846
  H   -0.84996747629075     -0.27384829592019     -1.75253949175401
  C   -1.12064697011285      0.29281584161758      1.43858206668035
  N   -1.67113990772642      0.68817523328753      2.39657301225208
