12
Coordinates from ORCA-job run
  C   0.96394521033866     -0.29083440061449     -0.22186804713574
  C   -0.48463199617484     -0.01599616743707      0.22160656114853
  Cl  1.39693083438531     -1.97495661274069      0.18625346249387
  H   -0.52861921977544     -0.15552900267091      1.31242542219116
  H   1.01088299931435     -0.20180439386654     -1.30909882054320
  C   1.90346819330892      0.62539389474766      0.41434843528187
  N   2.64451517691439      1.37199658668656      0.93667592421208
  N   -1.38128961826986     -0.87259734229193     -0.54143918515475
  H   -1.32203432981673     -1.82201422764023     -0.19367541214659
  H   -2.33761977115670     -0.55712809437348     -0.43546583624898
  C   -0.79884894878015      1.38784099368210     -0.06756718614558
  N   -1.06669853028791      2.50662876651900     -0.30119531795268
