12
Coordinates from ORCA-job run
  C   1.01050570412578     -0.30726994153215     -0.12847254288689
  C   -0.47062110732797     -0.10791850208721      0.25902381079692
  Cl  1.57049327931728     -1.90479527977533      0.41115509070920
  H   -0.54569040812682     -0.27219801533698      1.33836960618144
  H   1.10182496793901     -0.28374219556457     -1.21761494662261
  C   1.85132450543024      0.73466214206139      0.45291983405749
  N   2.51232969982517      1.57889092787178      0.93257974434798
  N   -1.29398948483666     -1.08655896123150     -0.42039226319677
  H   -2.16372681733961     -1.22832889001614      0.07530833220879
  H   -1.51138838467457     -0.78534855428511     -1.36252950364014
  C   -0.85442938617243      1.28930467140893     -0.02694407471510
  N   -1.20563256815943      2.37330259848688     -0.31440308724032
