12
Coordinates from ORCA-job run
  C   0.99456318544374     -0.26384417822239      0.30320419804884
  C   -0.51609343623170     -0.25838623815898      0.01752521934656
  Cl  1.49566732308836      1.27444688023453      1.05510076529365
  H   -0.74243653630719     -1.21993586988059     -0.45750419826959
  H   1.23168422975442     -1.05217485217666      1.02177482685899
  C   1.73706425639201     -0.49569043126444     -0.93153421042889
  N   2.33950861041121     -0.73163644899103     -1.91107329952163
  N   -0.84236939040325      0.79137189780442     -0.92173233625655
  H   -0.79736178782512      1.69935854503405     -0.47602089231122
  H   -1.77476507533007      0.66135098055447     -1.29221352013742
  C   -1.25458781744205     -0.21635233976841      1.29712917348723
  N   -1.86987356155035     -0.18850794516498      2.29734427389003
