12
Coordinates from ORCA-job run
  C   0.92692170815513     -0.49793895687643      0.15806811258736
  C   -0.59717763117746     -0.30186461219741      0.35685091273513
  Cl  1.76043603579796     -0.64384003837968      1.72368504366327
  H   -0.94485711360825     -1.14757066790943      0.95988261723289
  H   1.08010943601589     -1.44115482715325     -0.37294761137204
  C   1.48165581213781      0.59250881944189     -0.63639739223451
  N   1.87422318757470      1.47513701777440     -1.30460636847207
  N   -1.35669852711497     -0.26369034032388     -0.87249677235744
  H   -1.07747550932747      0.51133196320254     -1.46173713160952
  H   -1.27295851376354     -1.13114167822629     -1.38657232268107
  C   -0.84073783671817      0.92707446241821      1.12288074875878
  N   -1.03144104797164      1.92314885822933      1.71339016374920
