12
Coordinates from ORCA-job run
  C   0.90732963287373     -0.25405619854035     -0.19923216334052
  C   -0.54986172879130     -0.02413791451500      0.29411794441220
  Cl  1.35809397632180     -1.96083459788066      0.06090830045436
  H   -0.55930897035638     -0.23245501046493      1.36945211332050
  H   0.95755526189777     -0.07089025231001     -1.27566866814113
  C   1.84778462434892      0.61644061164036      0.49557795409861
  N   2.57842293046161      1.32640205145905      1.08065266758081
  N   -1.56773185398520     -0.83312471057406     -0.33272431735913
  H   -1.40684163828994     -1.81517549757449     -0.15060289726785
  H   -1.60012505202318     -0.67854712174501     -1.33297115561115
  C   -0.86603794880774      1.39686202011285      0.09495269919636
  N   -1.10027923365008      2.52951662039225     -0.10546247734308
