12
Coordinates from ORCA-job run
  C   0.98112774308438     -0.18497629276186     -0.25915718772264
  C   -0.48047689095432     -0.08426649529703      0.21450695241694
  Cl  1.53298077175160     -1.87745261750362     -0.11587629417291
  H   -0.50776665938006     -0.39215117863381      1.27081237459945
  H   1.01527339663855      0.07528108628657     -1.31909131935095
  C   1.85805722067037      0.68515966273186      0.51589354864093
  N   2.54799653589891      1.39040471053567      1.15306132042599
  N   -1.31917149735981     -0.87533178642763     -0.67490751549108
  H   -1.19974290562911     -1.85957332227089     -0.46898280843340
  H   -2.29397000147862     -0.63995568080477     -0.53574476428366
  C   -0.89449513317442      1.32147264872457      0.14183823077469
  N   -1.24081258006748      2.44138926542095      0.07864746259665
