12
Coordinates from ORCA-job run
  C   0.90376642817589     -0.24226153918306     -0.22421971387073
  C   -0.54465697670946     -0.03922935887454      0.30505492160117
  Cl  1.36766772644964     -1.95493132874568     -0.03898771382111
  H   -0.53390821190524     -0.29269331264377      1.37066101446734
  H   0.93153132744956     -0.01725372246333     -1.29353711946615
  C   1.85415359945980      0.60651760086711      0.48372540709348
  N   2.59678057355310      1.29787958522216      1.07573642182644
  N   -1.57052553962400     -0.82594916137675     -0.33710181170855
  H   -1.40418946450006     -1.81382248074968     -0.19688603502827
  H   -1.61943103651783     -0.63127403197572     -1.32970263294913
  C   -0.86963848927307      1.38742769161268      0.17047172911077
  N   -1.11154993655833      2.52559005831058      0.01478553274473
