12
Coordinates from ORCA-job run
  C   1.01557295109190     -0.50881692883465      0.15998742750729
  C   -0.51053931756951     -0.37782931921734      0.28669562269678
  Cl  1.77413700718125     -0.63852021291087      1.76291602241754
  H   -0.85626963157942     -1.26064327950744      0.83265043145863
  H   1.21608382634739     -1.43308705215542     -0.38414370439025
  C   1.56246875172023      0.61810933404903     -0.58882365218305
  N   1.95240323295481      1.52809898572853     -1.22068023570480
  N   -1.07294438074793     -0.41023588424650     -1.05161963428212
  H   -2.06596269130062     -0.60299277340045     -1.01117286827479
  H   -0.94769269047093      0.48443129131464     -1.51238058980318
  C   -0.86783457037675      0.81661630025506      1.07636824968145
  N   -1.20142248725041      1.78586953892541      1.65020293087650
