12
Coordinates from ORCA-job run
  C   0.99781007444266     -0.29260348040149      0.34765715200614
  C   -0.51489425381436     -0.24915901407890      0.03717158565588
  Cl  1.48194479687571      0.99290163019124      1.46895332954727
  H   -0.72116536792512     -1.15448240295466     -0.55773190147901
  H   1.23987810833569     -1.24673221798969      0.82274891906570
  C   1.72940770948492     -0.18245381557481     -0.91173249264257
  N   2.25762895332476     -0.10723221248487     -1.95797890720889
  N   -0.85306846431806      0.99321720791584     -0.63170995284761
  H   -1.84307394810889      1.18679407632579     -0.56089777137066
  H   -0.60338309257241      0.94031665409403     -1.61197926302977
  C   -1.27169731647583     -0.37923687946446      1.28575068749320
  N   -1.89938719924905     -0.50132954557803      2.26974861481033
