12
Coordinates from ORCA-job run
  C   1.04159588938643      0.07766104211706      0.25091387093660
  C   -0.46029376253460     -0.25058319044178      0.24569273605026
  Cl  1.30881826279948      1.79888045845082     -0.13538889591105
  H   -0.54127726657116     -1.32026870391978      0.47097409374105
  H   1.45077889798749     -0.08268304359079      1.25128984172389
  C   1.74439290252793     -0.77492824769960     -0.70232947241990
  N   2.32310231723530     -1.48919893200377     -1.43233763137353
  N   -1.01552073891394     -0.02810728201005     -1.07060516721278
  H   -1.10232983137015      0.96248918215197     -1.26098072178171
  H   -1.93135893160271     -0.45108914290912     -1.14755434770543
  C   -1.12526048232583      0.48363217647448      1.34289338092321
  N   -1.69264725661822      1.07219568338056      2.18643231302940
