12
Coordinates from ORCA-job run
  C   0.97414901126278     -0.19687909746217     -0.27452272225176
  C   -0.47355878896970     -0.07198364990902      0.23436456866646
  Cl  1.54637305285430     -1.86995193158007     -0.02144274333104
  H   -0.46699503457805     -0.30403302356461      1.31023586934272
  H   0.97411823521618     -0.01718913648783     -1.35153986426645
  C   1.86571852854569      0.73516450693335      0.40581574577122
  N   2.56777613689679      1.49327557442427      0.96416935196592
  N   -1.33131940064285     -0.92938838260621     -0.57131857000333
  H   -1.18933456053990     -1.89680261459686     -0.30757516143849
  H   -2.30393377802131     -0.69815017475284     -0.41085967192052
  C   -0.90212744522241      1.32231190158785      0.07555397077051
  N   -1.26086595680154      2.43262602801416     -0.05288077330523
