12
Coordinates from ORCA-job run
  C   0.97185585955706      0.09136940293493      0.30501047293752
  C   -0.52023497528047     -0.34216280433652      0.23710698433561
  Cl  1.11054319406501      1.86573458599554      0.36284408742805
  H   -0.51445494189491     -1.43906786851484      0.21895561694547
  H   1.43403458957253     -0.29611782796015      1.21655185909953
  C   1.66689091537011     -0.43401765809462     -0.86519389893904
  N   2.16485321813728     -0.89339735891489     -1.82465774956454
  N   -1.27449044242110      0.11763934934129     -0.90159641339056
  H   -0.90688261254115     -0.27380316633464     -1.75992637425526
  H   -1.26751943026321      1.12796698933750     -0.96162620799001
  C   -1.17986270558323      0.07025358259129      1.48352138138057
  N   -1.68473266871793      0.40360277395510      2.48901024201266
