12
Coordinates from ORCA-job run
  C   0.92651643559388     -0.51111205612265      0.11378110827421
  C   -0.58358697289624     -0.29513293190145      0.38547010965009
  Cl  1.83210826800160     -0.66836149651242      1.63787709990757
  H   -0.91317326653648     -1.13668635026659      1.00418711349552
  H   1.04192187618441     -1.45614993359806     -0.42355342041585
  C   1.45665820346868      0.57239496118328     -0.70652773400513
  N   1.82687048637320      1.45072931588811     -1.39309364105216
  N   -1.40060205776787     -0.24531947489321     -0.80599279210423
  H   -1.35075365097366     -1.11160028025164     -1.32624435100150
  H   -1.14198324852386      0.52893073716395     -1.40536402442428
  C   -0.77327645730640      0.93670004555065      1.16197669718595
  N   -0.91969961561726      1.93660746376003      1.75848383448983
