12
Coordinates from ORCA-job run
  C   1.04005532457474     -0.07692994853848      0.25901770526683
  C   -0.47568567802354     -0.30128716927863      0.13243363357135
  Cl  1.39578423037084      1.64509931710514      0.56077175393220
  H   -0.61204926626507     -1.36986588838341     -0.06983390190464
  H   1.42431060945015     -0.62864133842698      1.12040694091067
  C   1.71699736154300     -0.53475730595507     -0.94999397222631
  N   2.27273861836749     -0.94691437155092     -1.89827079226117
  N   -0.99689072526748      0.43704736656015     -0.99626672786062
  H   -1.03930032892914      1.42731047228024     -0.78923070016213
  H   -1.92763632836159      0.11801390046287     -1.23176308085589
  C   -1.12303777255173     -0.01013747392572      1.42887522480502
  N   -1.67528604490767      0.24106243965078      2.43485391678468
