12
Coordinates from ORCA-job run
  C   0.98240441974138     -0.12340209515250      0.25631770206490
  C   -0.56516409750004     -0.27380680157154      0.22268464362750
  Cl  1.44459698909349      1.57453902637771      0.52958388137802
  H   -0.76067633348874     -1.34209337252339      0.06728537580648
  H   1.39813686967702     -0.70571649819425      1.08258694979866
  C   1.52799626759650     -0.59991898742508     -1.01008215470355
  N   1.89929486284995     -1.00506942796125     -2.04819986277633
  N   -1.26259042171879      0.46006159749378     -0.80294921365886
  H   -1.07459091109081      1.45228576674775     -0.73518078566078
  H   -1.00188109723567      0.12964522387145     -1.72381274511285
  C   -1.09378625710052      0.07800811249849      1.54765173999229
  N   -1.49374029082378      0.35646745583883      2.61511446924451
