15

C	0.0	0.0	0.0
C	-0.486494	0.239231	-1.447837
F	1.37079	0.0	0.0
H	-1.590634	0.225271	-1.398936
N	-0.42702	1.123972	0.785663
H	-1.44865	1.103165	0.792683
H	-0.106185	0.987283	1.73863
N	-0.413676	-1.325598	0.37589
H	-1.434326	-1.315286	0.416546
H	-0.060075	-1.51743	1.307981
C	-0.019665	-0.820522	-2.344126
N	0.342059	-1.638604	-3.104328
C	-0.033497	1.538179	-1.951845
N	0.315119	2.562296	-2.40755
Cl	-3.480673	0.0	0.0
