15

C	0.0	0.0	0.0
C	-0.227731	0.270557	-1.529472
F	1.411138	0.0	0.0
H	0.55226	-0.359542	-1.970468
N	-0.447506	1.089612	0.798277
H	-0.243961	0.878953	1.770065
H	-1.467902	1.10032	0.697219
N	-0.419248	-1.340268	0.283414
H	-0.118474	-1.571894	1.226108
H	-1.443794	-1.313849	0.282987
C	0.118437	1.657322	-1.86318
N	0.412778	2.743315	-2.196479
C	-1.446141	-0.123732	-2.248462
N	-2.188856	-0.45206	-3.098311
Cl	-3.417748	0.0	0.0
