15

C	0.0	0.0	0.0
C	-0.392738	-0.102041	-1.519104
F	1.400857	0.0	0.0
H	0.584792	-0.195929	-2.00907
N	-0.391791	1.276195	0.51338
H	-1.414337	1.289441	0.487825
H	-0.100755	1.329109	1.484536
N	-0.392061	-1.204085	0.666112
H	-1.415456	-1.20712	0.663389
H	-0.079756	-1.14749	1.63064
C	-1.003889	1.10053	-2.089034
N	-1.410158	2.057493	-2.634338
C	-1.12923	-1.307794	-1.911981
N	-1.585757	-2.292834	-2.358399
Cl	-3.328596	0.0	0.0
