15

C	0.0	0.0	0.0
C	-0.291457	0.30124	-1.514005
F	1.400751	0.0	0.0
H	0.595737	0.880573	-1.792715
N	-0.404025	1.146273	0.761391
H	-0.065519	1.028243	1.711863
H	-1.42762	1.12023	0.783461
N	-0.440558	-1.304744	0.361142
H	-0.232061	-1.452359	1.343412
H	-1.461313	-1.288816	0.26411
C	-1.409828	1.170401	-1.902384
N	-2.091416	1.973151	-2.424741
C	-0.259655	-0.911308	-2.338992
N	-0.164523	-1.832174	-3.060502
Cl	-3.402505	0.0	0.0
