15

C	0.0	0.0	0.0
C	-0.222908	0.31913	-1.521567
F	1.382938	0.0	0.0
H	0.452489	1.172374	-1.656577
N	-0.442876	1.138117	0.756934
H	-1.467302	1.108739	0.704181
H	-0.195338	0.98148	1.730804
N	-0.447703	-1.311107	0.336206
H	-1.46971	-1.284617	0.283991
H	-0.192543	-1.494946	1.301755
C	-1.49271	0.762925	-2.116504
N	-2.275039	1.217203	-2.8685
C	0.326311	-0.77832	-2.330306
N	0.814979	-1.59402	-3.01906
Cl	-3.432262	0.0	0.0
