14
Coordinates from ORCA-job run
  C   0.66288248754335      0.70096493875373      0.26728211203018
  C   -0.52453916262495      0.17063724171104     -0.05498804302291
  H   0.66951608764708      1.75935401812978      0.51248863891725
  C   1.97407204016778     -0.01358389186910      0.31688403027150
  H   2.41124527310835      0.07637376678561      1.31554945679024
  H   2.68000173820000      0.45155179046263     -0.37749208216815
  H   1.90114857371973     -1.07203904820120      0.07159379651923
  N   -1.69528565243909      1.08584651202856     -0.01984321087057
  O   -2.79812044628340      0.56037036990612     -0.18064278846824
  O   -1.51468450028120      2.28571136435144      0.16331293431579
  C   -0.86897933986493     -1.23216753775312     -0.43034133825513
  H   -1.55688071601810     -1.66883931520540      0.29531007435022
  H   0.02884572196600     -1.84590030280009     -0.48066730389362
  H   -1.36822210484063     -1.25827990630001     -1.40044627651578
