14
Coordinates from ORCA-job run
  C   0.85738930420106     -0.31597542318654      0.26406000334849
  C   -0.43909443274737     -0.23283687982380     -0.06958777613007
  H   1.21674115866140     -1.32617158426797      0.45098625081193
  C   1.85951658158418      0.78811464517659      0.40906932493081
  H   1.83755233542501      1.19175788457549      1.42508418179062
  H   1.66424139301932      1.62125208035537     -0.26491160678605
  H   2.86347466916218      0.40464578710599      0.21996644618791
  N   -1.03527310557982      1.07892413712056     -0.36271295730832
  O   -0.66357359421615      2.05198520601179      0.29356714879712
  O   -1.88476970290590      1.10985073524851     -1.25416816763292
  C   -1.38551793104028     -1.37582662864454     -0.24547141906398
  H   -0.90532079606419     -2.30503108564072      0.06283794891134
  H   -2.28557162097371     -1.22818608796839      0.35662910550002
  H   -1.69979425852574     -1.46150278606234     -1.28634848335691
