14
Coordinates from ORCA-job run
  C   0.67532719694639      0.71089549499737      0.20265567507775
  C   -0.52680717472021      0.16847378408676     -0.03337121661446
  H   0.69514347064065      1.78161871626433      0.38548943007985
  C   1.98486619629000     -0.00728545151161      0.24225347444265
  H   2.45754439477740      0.12975706060273      1.21921842743622
  H   1.89975702210802     -1.07599776303948      0.05148766938921
  H   2.66722783943311      0.41917542862196     -0.49883080750365
  N   -1.69095718159609      1.09401268784888     -0.02399690210415
  O   -2.78738112249236      0.58746076169353     -0.26736809602136
  O   -1.51127843513652      2.28327954802879      0.21900836516216
  C   -0.88998553951905     -1.25068531582265     -0.31882601079047
  H   -0.00375863343028     -1.88282686962739     -0.30419022876120
  H   -1.60111388770232     -1.62226410403888      0.42067623997771
  H   -1.36958414559874     -1.33661397810432     -1.29520601977024
