14
Coordinates from ORCA-job run
  C   0.90211070981173     -0.19870219921013     -0.22788132120737
  C   -0.42340243505992     -0.26718234363420     -0.03475233875233
  H   1.33803815546420     -1.06898708125448     -0.71488975942409
  C   1.84471542817648      0.90846603966039      0.13281771021111
  H   2.20913859221323      0.78090914090756      1.15586041969472
  H   2.70619132828481      0.89466904985980     -0.53676885431210
  H   1.37405361327817      1.88977364788040      0.08680029006819
  N   -1.12816487503807      0.85742314004574      0.59889927470313
  O   -2.25991527939382      1.10340337332422      0.17949026387171
  O   -0.56014462524416      1.47168355841149      1.50203485445796
  C   -1.32622573947932     -1.38051348488269     -0.45730804108938
  H   -1.91994128713669     -1.73815216317111      0.38768840783440
  H   -0.73481095082762     -2.20958707151256     -0.84709509490287
  H   -2.02264263504903     -1.04320360642444     -1.22589581115310
