14
Coordinates from ORCA-job run
  C   0.63957920347346      0.66398239842493      0.38927993161320
  C   -0.52874744376499      0.16354707935129     -0.03452979336084
  H   0.61848860373487      1.67859153081315      0.77731011720583
  C   1.96107009305598     -0.03295826957453      0.38810982104559
  H   1.92055663935563     -1.03993877919315     -0.02446540111379
  H   2.35161280542362     -0.09569903031793      1.40812367006567
  H   2.68748395304257      0.54458671556975     -0.19090571385075
  N   -1.71003093937164      1.06128800303484      0.05416671044915
  O   -1.60542279564024      2.13577997939039      0.63765676621010
  O   -2.74176673764231      0.65282909351331     -0.48139380220949
  C   -0.83363013130898     -1.17567853460331     -0.61836038711811
  H   -1.61891789825739     -1.67343024262648     -0.04670566342586
  H   0.05477691900441     -1.80498273919260     -0.61584441344849
  H   -1.19705227110498     -1.07791720458967     -1.64244184206221
