14
Coordinates from ORCA-job run
  C   0.69626514603940      0.71480768013276      0.08163376544605
  C   -0.51907842539475      0.17530606799076     -0.08246481936910
  H   0.75038175615959      1.79974860745646      0.06493862650772
  C   1.98008061299849     -0.02403114766061      0.27718513448240
  H   2.44627673461504      0.27870730773062      1.21932736842344
  H   2.68483788404756      0.23464035085531     -0.51855718806124
  H   1.86079140672693     -1.10634186761342      0.28902613831147
  N   -1.65244781043303      1.12270570448904     -0.25196607644527
  O   -2.77618202901623      0.61948673872165     -0.29926975716885
  O   -1.42330874455948      2.32546057410806     -0.33337844283957
  C   -0.92695875591231     -1.26005749659114     -0.10599881516964
  H   -0.05667400167248     -1.90650120472159     -0.00629095114179
  H   -1.43869052002002     -1.49888425616433     -1.03984214276143
  H   -1.62429325357869     -1.47704705873357      0.70465715978581
