14
Coordinates from ORCA-job run
  C   0.74875739254101     -0.14833627054519      0.07568273912736
  C   -0.45466126333417     -0.05251391440532      0.99993101290640
  Cl  2.18134210835596     -0.65814902188345      0.93221772687682
  H   -0.24805250899438      0.74514623253666      1.72298488251282
  H   -0.48401099611666     -1.00098415594053      1.53907743607485
  N   1.04687465147124      1.17180407355484     -0.62583404699965
  O   0.23266603948441      2.07432846382646     -0.45351041934884
  O   2.05957811645679      1.21701508655449     -1.30529158301375
  N   0.40201826676848     -1.15103407849761     -1.02718896044358
  O   0.28056371944952     -2.30310564914332     -0.64414854058009
  O   0.21250115812607     -0.70861186175856     -2.14814955252579
  N   -1.66160574068503      0.09537578658141      0.21939416661133
  H   -2.44670614689580     -0.34891386514543      0.67118898446944
  H   -1.87026479662745      1.06697917426555      0.04464615433267
