14
Coordinates from ORCA-job run
  C   0.74656513618298     -0.15993182708733      0.07333656937739
  C   -0.45500077763603     -0.05831983410176      0.99937578044107
  Cl  2.22073605094626     -0.45668897358314      0.95912304592754
  H   -0.58939919738254     -1.04000432128377      1.46840667840089
  H   -0.16537925464115      0.65248241586936      1.77527154829064
  N   0.84445750873537      1.15808898292328     -0.69815573802379
  O   1.13030576663882      2.12605944189063     -0.01254572815421
  O   0.56469947011979      1.13521421498836     -1.88534288006450
  N   0.58029977316207     -1.25585223684575     -0.97312332337591
  O   1.54072052291857     -1.48014527051052     -1.69184327399403
  O   -0.51374779923473     -1.81173341993683     -1.00823344857428
  N   -1.59169617254765      0.45876155400115      0.27248167441705
  H   -2.18383550848812      1.01780629562653      0.86807848125734
  H   -2.12972551877364     -0.28473702195021     -0.14682938592521
