14
Coordinates from ORCA-job run
  C   0.62916822572841     -0.01355977126555      0.07044259712139
  C   -0.73964290618925      0.51807479337581      0.47495048716645
  Cl  1.57688609320617     -0.51463576895680      1.43887226120791
  H   -0.58252845417024      1.29468670359921      1.22490750478790
  H   -1.18141010959013      0.98503357692264     -0.40605780501433
  N   1.43142004802156      1.02111061021448     -0.70478543852775
  O   1.18719338733552      2.19187786337820     -0.43880580029243
  O   2.26913993956048      0.59646739533378     -1.48808954930016
  N   0.41631564107893     -1.16077892056094     -0.91646327031269
  O   -0.27835637987353     -0.83413345214741     -1.87252460550126
  O   0.91693854374649     -2.24690636646300     -0.69744984704862
  N   -1.52534872346250     -0.60537003168861      0.94757775575565
  H   -2.38864399178740     -0.69476255349481      0.43393489298247
  H   -1.73013131360451     -0.53810407824699      1.93249081697547
