14
Coordinates from ORCA-job run
  C   0.22501500108637     -0.32996563795250     -0.46654232049192
  C   -0.63977678602232     -0.18677513429969      0.77275630020080
  Cl  -0.65031341921334     -1.00787234957068     -1.81041642378558
  H   0.01849335001355      0.11598434071065      1.58727175030684
  H   -1.05094827301395     -1.17166850232192      1.01363492753173
  N   1.45178144004237     -1.19561794968813     -0.21706834984172
  O   2.34884122128224     -1.10684973368892     -1.04289170723798
  O   1.41879512345570     -1.91809242819902      0.77171204963073
  N   0.79422140635818      1.04929363883758     -0.80376285003348
  O   0.50912599301692      1.57479253621901     -1.86164775613955
  O   1.49824045786043      1.49516373129492      0.09407721543650
  N   -1.61038717295274      0.85951998649605      0.51126151960028
  H   -2.44836298757352      0.48840416192475      0.08569819847771
  H   -1.86472535433989      1.33268334023790      1.36591744634564
