14
Coordinates from ORCA-job run
  C   0.74766944324591     -0.15244945381533      0.07677357845436
  C   -0.45653697202870     -0.04927003824145      0.99897742366417
  Cl  2.17559520070750     -0.67130864724153      0.93586494448508
  H   -0.24631825020916      0.74691739301504      1.72255553488682
  H   -0.49252750294762     -0.99749449533243      1.53814494857385
  N   1.05551980243345      1.16590707448576     -0.62453006500965
  O   2.06954412081402      1.20378150891286     -1.30242539683406
  O   0.24800378317869      2.07421910547919     -0.45203171522105
  N   0.39639317893137     -1.15318650575420     -1.02646502653791
  O   0.26495864952345     -2.30410309096532     -0.64304360791954
  O   0.21348853491473     -0.70994051533677     -2.14824437256503
  N   -1.66109778326503      0.10622297919829      0.21613265881743
  H   -1.86586507192320      1.07911144968850      0.04437461935324
  H   -2.44882713337541     -0.33740676409261      0.66391647585229
