14
Coordinates from ORCA-job run
  C   0.62022646572703     -0.09039716044651      0.11911801861887
  C   -0.74390805702390      0.52894854612591      0.40362512535097
  Cl  1.42076641073943     -0.65854344974530      1.54439326671268
  H   -0.55064918677536      1.36630845452891      1.07922467918211
  H   -1.11641286485520      0.92920684087195     -0.54554623937716
  N   1.45875063464427      0.97668090042892     -0.59545180560601
  O   2.12473964766309      1.72447778287546      0.10160935318593
  O   1.29425162884401      1.03530325506250     -1.80846347163913
  N   0.51433505095791     -1.22645218575034     -0.89536474818416
  O   1.53962216609049     -1.85106621730301     -1.11840632614215
  O   -0.57821794824005     -1.38551712000987     -1.42793062219044
  N   -1.60833586728407     -0.44164515951527      1.03084787336407
  H   -2.16497870370283     -0.02530895191421      1.76111502749861
  H   -2.20918937678484     -0.88299553520912      0.35122986922580
