14
Coordinates from ORCA-job run
  C   0.59167264234964      0.63864475051398     -0.13599863210718
  C   -0.73681131765753     -0.04132606377445     -0.48722006471856
  Cl  1.14708945118770      1.47402679916715     -1.61133760749039
  H   -0.59968451249930     -0.73846021818331     -1.31592781245518
  H   0.39928487896622      1.41005481025425      0.61121384227420
  C   1.63465674444931     -0.35007466311847      0.34667483966022
  H   1.33695238779018     -0.78231325860798      1.30447710878299
  H   1.77801441935179     -1.15383518029828     -0.37822352412414
  H   2.58631464671784      0.16248857071631      0.48917812419789
  C   -1.79748991090386      0.91369958748739     -0.78571808014239
  N   -2.64876985926720      1.68371011797253     -1.03226439454109
  N   -1.15001590966855     -0.87329302928424      0.70394652839247
  O   -1.44192137484042     -0.25366922174679      1.72084021782285
  O   -1.09929228597583     -2.09065300109808      0.56835945444831
