14
Coordinates from ORCA-job run
  C   0.68444172030959     -0.33521989946989     -0.29027627027385
  C   -0.75900116196393      0.14508868871680     -0.15034810518531
  Cl  0.90382010573579     -1.80768800836145      0.68928578973355
  H   -0.91036131566471      0.98939637559739     -0.83143814783890
  H   0.82169188251262     -0.63038733920348     -1.33154061336112
  C   1.67409452032650      0.73682227930361      0.12111645744432
  H   1.53052818871958      1.63572923546937     -0.48515601730165
  H   2.69189142632735      0.37687176438907     -0.03174035868096
  H   1.55498751150761      0.99515737782056      1.17453495659086
  C   -1.10029783612588      0.53664566370728      1.20999170507447
  N   -1.32488897924278      0.91169040471416      2.29973313657275
  N   -1.70297672283658     -0.92895171670619     -0.65765604810654
  O   -1.51672870722182     -1.25450346459116     -1.82410779494052
  O   -2.54820063238336     -1.37165136138606      0.10660131027288
