14
Coordinates from ORCA-job run
  C   0.69417232759403      0.06996870593908     -0.67595853627965
  C   -0.83532600626970      0.04551027738075     -0.52863894455841
  Cl  1.19964172641774     -1.40953207122966     -1.53584387474750
  H   -1.29656211326789     -0.12511382524689     -1.50295411770809
  H   0.90855537365610      0.90106585807487     -1.35281789550359
  C   1.46895335907258      0.23242067679582      0.61697430071734
  H   2.52935973415191      0.33628460921948      0.38418176729602
  H   1.33886570315901     -0.62906756791545      1.26984708840153
  H   1.13840602375560      1.12781092873562      1.14816638385614
  C   -1.31204442560982      1.29371344906724      0.05617184187563
  N   -1.66385823634752      2.32552338229106      0.49273267531126
  N   -1.28724877587917     -1.10831431103229      0.33591771860753
  O   -1.78250612100330     -2.06300796959300     -0.25120531081600
  O   -1.10040856942958     -0.99926214248662      1.54342690354781
