14
Coordinates from ORCA-job run
  C   0.42712670991498     -0.01913255244590      0.33492276706556
  C   -0.79095726704832     -0.21970914374964     -0.56042973529144
  Cl  0.40220215819609     -1.27776932441960      1.61288182368880
  H   -0.72808537586199     -1.18434375742376     -1.06064357047881
  H   -0.85870310427809      0.59379027419664     -1.28690839880352
  C   0.44977044406035      1.29799187886130      0.97280747397372
  N   0.57462038200331      2.37113827190397      1.43421345122076
  C   1.69513086174655     -0.19293469195126     -0.49969905076194
  H   1.70996613104646     -1.18819130376308     -0.94702062123949
  H   1.72822012403115      0.56326566193985     -1.28795000047588
  H   2.57437759088999     -0.07811371606236      0.13411231339359
  N   -2.07546650339826     -0.22344586669053      0.20076857903969
  O   -2.81589044886681     -1.18755979680482      0.03109187622137
  O   -2.29331170243542      0.74601406640918      0.91985309244759
