14
Coordinates from ORCA-job run
  C   0.52327102275835     -0.20399008945816      0.50441998039176
  C   -0.90617513767674     -0.69806533604255      0.25516364323923
  Cl  1.30680236583837     -1.50336380011243      1.47011198989789
  H   -1.44253433610732     -0.81865006254476      1.19481722529593
  H   -0.87555787585135     -1.62784967176527     -0.31081805993715
  C   0.51877378855378      1.01615439975007      1.31228438495863
  N   0.53723954136256      2.01216161172631      1.93533318189365
  C   1.31565915766122      0.00701873769655     -0.77909830521162
  H   0.88066150514499      0.81779460933266     -1.36538595347834
  H   1.30278777867083     -0.90711665942007     -1.37453167168151
  H   2.34740340415381      0.26081267677840     -0.53466022158513
  N   -1.65806331176397      0.29581146636168     -0.56497937025333
  O   -2.24848746537585      1.18512953120362      0.04409419403708
  O   -1.60278043736869      0.16315258649394     -1.78675101756709
