14
Coordinates from ORCA-job run
  C   0.41670275176993     -0.01162687258016      0.34800705363989
  C   -0.79834582327215     -0.22123755746312     -0.54928249452864
  Cl  0.23960899129175     -1.05967682235515      1.79311067745912
  H   -0.76968105615835      0.47908597800952     -1.38763015023603
  H   -0.82508372518482     -1.25062685872355     -0.90187980177125
  C   0.56186825462440      1.37626264332520      0.78943541037801
  N   0.78590573750549      2.48770926281203      1.09706416743266
  C   1.67589027533664     -0.43033182954230     -0.40973744362088
  H   1.59798849628314     -1.47763671762212     -0.70623482870574
  H   1.79986533111398      0.19367325254766     -1.29829594752897
  H   2.55027680543196     -0.30885114529475      0.22953599472770
  N   -2.09072147070102      0.01406564569982      0.16108992436530
  O   -2.92160641832834     -0.88790260836902      0.11035454176074
  O   -2.22266814971263      1.09709362955595      0.72146289662808
