14
Coordinates from ORCA-job run
  C   0.42842781210497      0.04889678195731      0.52222338469324
  C   -1.04686733890365      0.28939243557729      0.17516032387561
  Cl  0.55222058878260     -1.41574462302509      1.55077197275457
  H   -1.64561654135157      0.34950608757491      1.08188284581347
  H   -1.13687449248940      1.19805209163456     -0.42213674872395
  C   0.84721976651529      1.20235419221397      1.32300019787172
  N   1.17167810334226      2.15431346060093      1.93062665188899
  C   1.34788823891250     -0.10739265969092     -0.68383441279509
  H   1.25783002494695      0.76470108862577     -1.33515750660176
  H   1.08300857002374     -0.99790072009649     -1.25060245695731
  H   2.37893251954954     -0.19454372208752     -0.34046376321983
  N   -1.60753164913165     -0.82234678324767     -0.64451919429562
  O   -2.34312103042295     -1.62483838871316     -0.07702239639890
  O   -1.28619457187862     -0.84544924132387     -1.83192889790515
