14
Coordinates from ORCA-job run
  C   0.52104321721521     -0.19810606801967      0.50942991274719
  C   -0.89428059368163     -0.71888178589670      0.23495908404306
  Cl  1.31812314483446     -1.49175342863070      1.47200029943700
  H   -0.83621042461427     -1.64196878679904     -0.33976946747507
  H   -1.44095454021261     -0.86035352913556      1.16569184105976
  C   0.47924542778826      1.01232756089266      1.33060733831395
  N   0.46379556624636      2.00077529363723      1.96557598093766
  C   1.32638193322094      0.04311259514704     -0.76058445325074
  H   2.34962212275271      0.31391986201478     -0.49930952833783
  H   0.88369164461251      0.85195946934016     -1.34376010800956
  H   1.33933948490083     -0.86416012026781     -1.36632597002667
  N   -1.65534106814856      0.26750712105251     -0.58562489246689
  O   -2.27427869048023      1.13692041723814      0.02396634330907
  O   -1.58017722443398      0.14870139942695     -1.80785638028095
