14
Coordinates from ORCA-job run
  C   0.44831562075705     -0.02981005193626      0.50668968019263
  C   -1.03765047040231      0.26120447887472      0.25809593042758
  Cl  0.60199280555201     -1.63124492024583      1.30070768319791
  H   -1.14435265249423      1.24894756816251     -0.19306220262290
  H   -1.60036566583382      0.18593025033360      1.18650303919125
  C   0.90663274406632      0.99126136587176      1.45249997655515
  N   1.26472044522630      1.84132847737440      2.18043206679404
  C   1.31885800051579     -0.00621151953858     -0.74469823340291
  H   2.36202537352728     -0.14340912371858     -0.45920685220904
  H   1.20849276874755      0.95237802736414     -1.25634302280665
  H   1.02669453102256     -0.80329973019976     -1.42568398180707
  N   -1.63749398747514     -0.71496717481577     -0.69554073333153
  O   -1.36336500500562     -0.56027624910020     -1.88491936936225
  O   -2.35550450820374     -1.59283139842614     -0.22547398081621
