15

C	-0.401318	0.181586	-1.454793
C	0.0	0.0	0.0
F	-0.167175	1.484381	-1.840262
H	1.091777	0.0	0.0
H	-0.296876	-1.025323	0.289121
N	0.431562	-0.623571	-2.337522
H	1.4021	-0.396447	-2.107715
H	0.316478	-1.590452	-2.054076
N	-1.811181	-0.062701	-1.671769
H	-2.053962	-0.95088	-1.252916
H	-1.945035	-0.145178	-2.676452
N	-0.509952	1.029381	0.895503
H	-1.340144	0.713965	1.380708
H	0.209211	1.222479	1.579897
H	3.048383	0.0	0.0
