15

C	-0.390184	-0.085519	-1.468557
C	0.0	0.0	0.0
F	-0.204301	-1.377174	-1.920711
H	1.094637	0.0	0.0
H	-0.292929	1.006369	0.350998
N	-1.784838	0.226756	-1.689842
H	-1.906746	0.343151	-2.691529
H	-1.990502	1.114257	-1.247764
N	0.487627	0.729137	-2.297672
H	0.391722	1.69056	-1.985585
H	1.446021	0.466041	-2.049705
N	-0.520725	-1.080609	0.825097
H	-1.342186	-0.788393	1.335179
H	0.199174	-1.331873	1.491238
H	3.045558	0.0	0.0
