15

C	-0.423547	0.206922	-1.440747
C	0.0	0.0	0.0
F	0.015054	1.499796	-1.79966
H	1.093364	0.0	0.0
H	-0.370118	0.825944	0.628753
N	0.215155	-0.70251	-2.354368
H	-0.002135	-1.623321	-1.984734
H	1.216818	-0.576934	-2.201374
N	-1.84093	0.112986	-1.624543
H	-2.281918	0.868803	-1.113876
H	-2.021567	0.241921	-2.614047
N	-0.407158	-1.336991	0.437651
H	-1.309624	-1.320147	0.893992
H	0.288996	-1.67466	1.091256
H	3.054807	0.0	0.0
