15

C	-0.629445	0.0301	-1.372465
C	0.0	0.0	0.0
F	-2.088537	0.081316	-1.107901
H	1.090617	0.0	0.0
H	-0.331798	-0.928354	0.490283
N	-0.289725	1.195681	-2.10284
H	-0.148615	1.927328	-1.41381
H	-1.077584	1.452885	-2.684331
N	-0.381998	-1.149748	-2.120548
H	-0.686834	-1.026411	-3.07773
H	-0.878781	-1.925925	-1.703558
N	-0.392621	1.213725	0.726374
H	0.340213	1.417427	1.394947
H	-1.267003	1.083351	1.216411
H	3.075514	0.0	0.0
