15

C	-0.628397	-0.010836	-1.372829
C	0.0	0.0	0.0
F	-2.086535	-0.086687	-1.112504
H	1.090592	0.0	0.0
H	-0.334804	0.919175	0.50449
N	-0.396451	1.184782	-2.099557
H	-0.68512	1.06637	-3.062776
H	-0.914904	1.944095	-1.677337
N	-0.269657	-1.157099	-2.124373
H	-1.053313	-1.420185	-2.709299
H	-0.110672	-1.896998	-1.450189
N	-0.38769	-1.226832	0.706215
H	0.345125	-1.433522	1.375271
H	-1.266256	-1.109567	1.19276
H	3.078962	0.0	0.0
