15

C	-0.454691	-0.058182	-1.445849
C	0.0	0.0	0.0
F	-0.18207	1.208024	-2.012199
H	1.101432	0.0	0.0
H	-0.388849	0.91398	0.457474
N	0.262055	-1.09032	-2.093417
H	0.0334	-1.095392	-3.079407
H	1.259075	-0.951421	-1.943409
N	-1.872286	-0.249577	-1.666562
H	-2.152692	-0.9533	-0.990531
H	-2.321316	0.613216	-1.3825
N	-0.552246	-1.174228	0.709365
H	-0.209151	-1.126388	1.664135
H	-0.083948	-1.974382	0.296981
H	3.126909	0.0	0.0
