14

C	-0.48139	0.009693	-1.458795
C	0.0	0.0	0.0
Br	0.23313	1.570468	-2.426115
H	1.093508	0.0	0.0
H	-0.333484	-0.957253	0.419263
C	-0.039316	-1.187593	-2.176061
N	0.250232	-2.17714	-2.739132
C	-1.94358	0.085761	-1.543433
N	-3.117996	0.116011	-1.589614
C	-0.532128	1.161878	0.824065
H	-0.145355	1.069651	1.841116
H	-0.176443	2.113775	0.427269
H	-1.625405	1.181479	0.86966
Br	3.547802	0.0	0.0
