14

C	-0.484367	-0.010908	-1.456097
C	0.0	0.0	0.0
Br	0.25331	-1.554546	-2.435455
H	1.093506	0.0	0.0
H	-0.333639	0.955975	0.422128
C	-1.944871	-0.119783	-1.537102
N	-3.118472	-0.178008	-1.581029
C	-0.074052	1.200447	-2.168732
N	0.195405	2.198681	-2.728201
C	-0.52352	-1.163846	0.827455
H	-0.122955	-1.074812	1.839559
H	-0.173574	-2.114904	0.423333
H	-1.616026	-1.182927	0.887353
Br	3.548431	0.0	0.0
