14

C	-0.485144	-0.023541	-1.455185
C	0.0	0.0	0.0
Br	0.250895	1.497369	-2.471293
H	1.093471	0.0	0.0
H	-0.333212	-0.945666	0.444941
C	-0.072602	-1.250277	-2.139299
N	0.201851	-2.260686	-2.673499
C	-1.945958	0.081893	-1.535681
N	-3.119209	0.15911	-1.549559
C	-0.523265	1.183156	0.79967
H	-0.12002	1.119217	1.812505
H	-0.175674	2.124578	0.371548
H	-1.615639	1.202091	0.861683
Br	3.549256	0.0	0.0
