14

C	-0.489715	0.021383	-1.452159
C	0.0	0.0	0.0
Br	0.242756	-1.52315	-2.425829
H	1.093392	0.0	0.0
H	-0.33842	-0.945214	0.435875
C	-1.950701	-0.086581	-1.518335
N	-3.123417	-0.169863	-1.519138
C	-0.078289	1.235615	-2.160053
N	0.243106	2.213453	-2.726734
C	-0.522005	1.194256	0.790368
H	-0.13621	1.129396	1.809756
H	-0.154407	2.131257	0.3656
H	-1.614994	1.227655	0.834951
Br	3.553904	0.0	0.0
