17

C	0.0	0.0	0.0
C	-0.564997	0.209033	-1.41011
Br	1.960258	0.0	0.0
H	-1.627768	0.404921	-1.21028
N	-0.391745	1.138078	0.954726
O	-0.579337	2.237023	0.451479
O	-0.415255	0.871342	2.146268
C	-0.401787	-1.260717	0.613272
N	-0.568213	-2.331824	1.068352
C	-0.454985	-1.073621	-2.218572
H	-0.882017	-0.897288	-3.210314
H	-1.03175	-1.873726	-1.755334
H	0.587743	-1.37955	-2.339543
N	0.128766	1.290009	-2.108369
H	-0.165894	1.255037	-3.077514
H	-0.191182	2.17169	-1.726593
Cl	-3.509478	0.0	0.0
