15

C	-0.459964	-0.081971	-1.437681
C	0.0	0.0	0.0
F	-1.800064	-0.348995	-1.529703
H	1.09432	0.0	0.0
H	0.101714	-0.844695	-1.978528
N	-0.216861	1.207484	-2.182957
O	-1.0838	2.071936	-2.100518
O	0.836067	1.278748	-2.805266
C	-0.409731	-1.278815	0.744093
H	0.011978	-2.145182	0.228577
H	0.015638	-1.253416	1.748033
H	-1.493783	-1.383288	0.810024
C	-0.523646	1.176061	0.68705
N	-0.961284	2.081626	1.294307
Br	3.423961	0.0	0.0
