15

C	-0.53212	-0.012368	-1.423918
C	0.0	0.0	0.0
F	-0.051666	1.03602	-2.135061
H	1.095907	0.0	0.0
H	-1.624563	-0.001441	-1.465654
N	-0.139183	-1.285419	-2.138849
O	0.849073	-1.270982	-2.852358
O	-0.883861	-2.243416	-1.932616
C	-0.452493	-1.203736	0.833228
H	-0.111889	-1.059408	1.859416
H	-1.538606	-1.327922	0.828569
H	0.01144	-2.113344	0.45357
C	-0.478671	1.241144	0.607199
N	-0.907462	2.210883	1.113055
Br	3.442048	0.0	0.0
