15

C	-0.455596	-0.073137	-1.441235
C	0.0	0.0	0.0
F	-1.802132	-0.283522	-1.53955
H	1.094355	0.0	0.0
H	0.075566	-0.863235	-1.973639
N	-0.137817	1.201964	-2.183988
O	1.002903	1.280316	-2.6232
O	-1.024482	2.045062	-2.27262
C	-0.433606	-1.265898	0.747676
H	-0.014557	-2.141108	0.24578
H	-1.519501	-1.357399	0.797497
H	-0.024839	-1.237168	1.75811
C	-0.514589	1.193995	0.663985
N	-0.940128	2.123717	1.242015
Br	3.448791	0.0	0.0
