15

C	-0.460771	-0.085179	-1.437474
C	0.0	0.0	0.0
F	-1.798161	-0.359205	-1.529592
H	1.094325	0.0	0.0
H	0.103869	-0.843841	-1.979264
N	-0.225364	1.204505	-2.181284
O	0.833567	1.287008	-2.793641
O	-1.103346	2.057398	-2.108795
C	-0.410432	-1.278276	0.743762
H	0.016413	-1.252632	1.746809
H	-1.494054	-1.381721	0.810711
H	0.009518	-2.14498	0.227718
C	-0.523069	1.17755	0.684639
N	-0.959772	2.08544	1.288032
Br	3.421978	0.0	0.0
