15

C	-0.367207	0.089009	-1.471286
C	0.0	0.0	0.0
F	0.055204	-1.019064	-2.126949
H	1.096476	0.0	0.0
H	0.040609	0.980625	-1.94815
N	-1.867489	0.167891	-1.651925
O	-2.491667	-0.886507	-1.730591
O	-2.347178	1.299609	-1.668876
C	-0.486482	-1.285528	0.668926
H	-1.574982	-1.328701	0.746548
H	-0.051338	-1.341803	1.667725
H	-0.133312	-2.143058	0.097123
C	-0.463536	1.187528	0.708518
N	-0.833021	2.138448	1.290841
Br	3.420941	0.0	0.0
