15

C	-0.380639	0.011156	-1.470051
C	0.0	0.0	0.0
F	0.168386	-1.052471	-2.101687
H	1.096584	0.0	0.0
H	-0.093083	0.934534	-1.974985
N	-1.883698	-0.103322	-1.627266
O	-2.512033	0.945275	-1.490048
O	-2.360907	-1.215347	-1.831821
C	-0.467884	-1.266517	0.719109
H	-0.127119	-2.140348	0.163428
H	-0.009779	-1.294938	1.708607
H	-1.554436	-1.308688	0.826451
C	-0.469828	1.207164	0.668777
N	-0.830015	2.17177	1.234106
Br	3.430329	0.0	0.0
