15

C	-0.382024	-0.005315	-1.470795
C	0.0	0.0	0.0
F	0.16201	-1.077853	-2.090395
H	1.096584	0.0	0.0
H	-0.088788	0.911061	-1.984694
N	-1.885754	-0.109858	-1.624981
O	-2.369023	-1.219505	-1.830427
O	-2.507919	0.941852	-1.484067
C	-0.472336	-1.256555	0.733775
H	-0.013751	-1.276186	1.722971
H	-1.558578	-1.291884	0.842326
H	-0.136235	-2.137812	0.187417
C	-0.466812	1.216415	0.655197
N	-0.823938	2.186869	1.21225
Br	3.430603	0.0	0.0
