15

C	-0.51931	0.003562	-1.429833
C	0.0	0.0	0.0
F	-0.022581	1.051657	-2.126981
H	1.095857	0.0	0.0
H	-1.6095	0.02449	-1.48377
N	-0.12928	-1.269333	-2.147964
O	-0.882184	-2.221695	-1.945077
O	0.866285	-1.262948	-2.85004
C	-0.459114	-1.211569	0.818106
H	0.007075	-2.116778	0.431754
H	-1.544704	-1.333194	0.803946
H	-0.124698	-1.076539	1.847453
C	-0.480745	1.237012	0.615708
N	-0.912285	2.199968	1.130032
Br	3.443394	0.0	0.0
