14
Coordinates from ORCA-job run
  C   -0.61699850787549      0.21147019391360      0.61085302812656
  C   0.47333991361411     -0.71982210142229      0.04076082484913
  Br  -2.14186709404292     -0.78759466791108      1.26153846448280
  H   0.87038569854362     -1.25159790207394      0.91264783856859
  C   -0.06130531902995      1.01510236285150      1.68823058716009
  N   0.41000520900233      1.61052222662623      2.58556599241646
  N   -1.12823085404511      1.16219171739521     -0.48060368954387
  O   -0.99319013704471      0.77888519656719     -1.63518676361196
  O   -1.65393222565383      2.19423948834138     -0.09657199958662
  N   1.51740113753966      0.11586019662162     -0.51094684165321
  H   2.42824685601115     -0.30315596682322     -0.38476518024026
  H   1.36114873430908      0.29582682321263     -1.49407312073190
  C   -0.06702142294858     -1.73824405618915     -0.87470070749676
  N   -0.39698198837937     -2.58268351110969     -1.62174843273904
