14
Coordinates from ORCA-job run
  C   -0.64648483512276      0.26056857441862      0.43176532990648
  C   0.61726489278677     -0.39900849755111     -0.16586323700518
  Br  -2.24216497891125     -0.67778187330379     -0.08461953785295
  H   1.45568536687686      0.19868206658864      0.20573337882465
  C   -0.56774650779541      0.35001867795497      1.88022114294908
  N   -0.48138283169136      0.40727130332604      3.05191881066617
  N   -0.63845965129039      1.70794952565244     -0.13248455752521
  O   0.34930990858483      2.34050424735452      0.21523032211405
  O   -1.54940739789993      2.07202394303877     -0.84661012969391
  N   0.57439827826144     -0.27254383858292     -1.60403929679749
  H   1.50357938317900     -0.35819377550253     -1.99505235031413
  H   -0.02040919390320     -0.97944542752238     -2.01889054962826
  C   0.75565797693147     -1.76940912494143      0.35449942735499
  N   0.89115958999395     -2.88163580092985      0.70919124700168
