14
Coordinates from ORCA-job run
  C   -0.41426475209038      0.46572411986277      0.57952326343144
  C   0.21643884535900     -0.80422425868576     -0.03521831749131
  Br  -0.72847867348526      0.21997103492639      2.46728381394894
  H   -0.44037477165674     -1.63586125106314      0.22999412896643
  C   0.44050478839350      1.61936951996522      0.35969469856468
  N   1.20877797144877      2.48890060051601      0.16664025533220
  N   -1.78196157949068      0.70122544899478     -0.07744803213319
  O   -2.46153327022620     -0.30359995398117     -0.23175991139092
  O   -2.07404991135741      1.85323651538680     -0.36071182107298
  N   1.52370905992828     -1.01204161597906      0.54109524905457
  H   1.80751764944333     -1.97740076378219      0.44001948374428
  H   2.21851679390150     -0.42132230988516      0.09928784940333
  C   0.21033157849930     -0.65508020980836     -1.50464612618482
  N   0.27386627133301     -0.53889687646712     -2.67275453417263
