14
Coordinates from ORCA-job run
  C   -0.35701474137478      0.45460010874240      0.51561044472611
  C   0.21794053912702     -0.86455685787183     -0.09645689301970
  Br  -0.52707835732994      0.26380324765184      2.43406253355904
  H   -0.46948616749150     -1.65921565524862      0.20791036298126
  C   0.49940320759595      1.58425586384134      0.20669728094493
  N   1.27758687786604      2.42965087690447     -0.04592010451051
  N   -1.76258397901468      0.68083464640566     -0.05470453102943
  O   -2.00307029759331      1.78029018388784     -0.53169151285647
  O   -2.50714038244258     -0.28632649927146      0.01533395945828
  N   1.55497460514897     -1.20594361229633      0.29803096221545
  H   2.22348925658532     -0.48944229811704      0.04190399667167
  H   1.61177770853123     -1.39761794533097      1.28929875172037
  C   0.14778102991590     -0.72150843708473     -1.55734932764852
  N   0.09342070047638     -0.56982362221255     -2.72072592321246
