14
Coordinates from ORCA-job run
  C   -0.53059626457583      0.29935486216653      0.65415267932617
  C   0.42356013693206     -0.75027061351312      0.04645370052576
  Br  -2.04156210425447     -0.53042855604182      1.53441675819858
  H   0.87682531515974     -1.24913994875857      0.91047800432881
  C   0.19467968989573      1.13018939772898      1.60225616951313
  N   0.80347669158095      1.75010270895142      2.39409652061712
  N   -1.09035466625749      1.20967862549981     -0.44836672606885
  O   -1.49300951930250      2.30541578336137     -0.09329232222796
  O   -1.11146081481767      0.73729965472304     -1.57736470521513
  N   1.45541414170185     -0.03708495573076     -0.67446395421649
  H   1.20536394313443      0.08415696781789     -1.64707863853569
  H   2.34416546641893     -0.51390821452089     -0.61109947930451
  C   -0.28319027551286     -1.78518345813529     -0.72593593254485
  N   -0.75231174010285     -2.65118225354859     -1.36625207439610
