14
Coordinates from ORCA-job run
  C   -0.62802032252849      0.27623307465565      0.44814341318629
  C   0.62286552487508     -0.38875204447998     -0.17101200478931
  Br  -2.20930083077524     -0.77049839784238      0.13493013266309
  H   1.45526622210157      0.27530932889852      0.08308989376456
  C   -0.45811459223930      0.50834403025245      1.87276389962287
  N   -0.29708217086530      0.68367374087860      3.02477615771086
  N   -0.72337309658615      1.66070442590312     -0.24817847686974
  O   -1.69495153869983      1.91775267416700     -0.92831144395185
  O   0.25479977688444      2.36265510570135     -0.03110908761480
  N   0.48008289975560     -0.40621699025256     -1.60782158554103
  H   -0.10911216103135     -1.17219771294781     -1.91067141005447
  H   1.38446224759035     -0.49347020076910     -2.05294680769684
  C   0.85793298768767     -1.69418992407910      0.46812066160634
  N   1.06754505383095     -2.75934711008576      0.91822665796402
