14
Coordinates from ORCA-job run
  C   -0.45546810666892      0.36347207544012      0.57829411019290
  C   0.54333841990632     -0.42717698655702     -0.29791073379713
  Br  -2.01759628425191     -0.68018968834522      0.98188159375776
  H   1.39201662708811      0.24831701033538     -0.44562548266230
  C   0.16576216673487      0.82780295576096      1.80739876782344
  N   0.69305416828622      1.18649471769197      2.79574326644152
  N   -0.81777191473509      1.61284484513367     -0.27010077288430
  O   -1.96571302915770      1.77481066866810     -0.62841182378377
  O   0.15425956340186      2.31765140291138     -0.50457324679772
  N   -0.06280656050790     -0.68185751436529     -1.58352801630193
  H   -0.68950865410319     -1.47618479133949     -1.54517330413524
  H   0.64737278075881     -0.85934441976244     -2.28162267625271
  C   1.01615088703291     -1.61346742787674      0.43521378120422
  N   1.39790993621562     -2.59417284769537      0.95841453719527
