14
Coordinates from ORCA-job run
  C   -0.43095998763078      0.48552675555818      0.54581285667591
  C   0.21203232698280     -0.80871401733484     -0.00220909755036
  Br  -0.81545552629867      0.30679970629754      2.42840366826217
  H   -0.46183420773183     -1.62640306566137      0.26331695521783
  C   0.43984035855314      1.62580638616432      0.31881079833515
  N   1.22054253852159      2.48457120595223      0.12778401014321
  N   -1.77251885708833      0.70875262348717     -0.16629481183751
  O   -2.44907991719488     -0.29775801006773     -0.32370345341438
  O   -2.05321281114341      1.85572131781843     -0.48024099826024
  N   1.49386274170659     -1.00759540501163      0.63178205444579
  H   1.77240257064111     -1.97803932395777      0.57350804171657
  H   2.21082353528936     -0.43727712051772      0.19867050427634
  C   0.26404300387032     -0.70302900409561     -1.47436374903465
  N   0.37051423152298     -0.60936204863120     -2.64127677897584
