14
Coordinates from ORCA-job run
  C   -0.41880061892686      0.41563878852159      0.61234312802793
  C   0.30069057333680     -0.77648733070651     -0.05870736064877
  Br  -0.56646746906040      0.13420340483378      2.51528312527183
  H   -0.24030708395495     -1.67575504097870      0.24457784243882
  C   0.28664652700737      1.65641065201415      0.34252087670481
  N   0.93925078778186      2.60561695534834      0.10444269187619
  N   -1.84795177762101      0.50070118604648      0.05721933285750
  O   -2.42329160727666     -0.57225963504788     -0.05640438747845
  O   -2.28343813795668      1.61405614038020     -0.19471348363575
  N   1.66123474165675     -0.84090636826535      0.42024933122464
  H   2.04040808146355     -1.76929616131256      0.28934635140866
  H   2.25346557931838     -0.17700239482324     -0.06495954332472
  C   0.17035108887170     -0.62382249255514     -1.52188710983710
  N   0.12920931536014     -0.49209770345516     -2.68931079488559
