14
Coordinates from ORCA-job run
  C   -0.49626652316121      0.24714881897935      0.62536787177883
  C   0.41106794087046     -0.85186502640833     -0.00489574403310
  Br  -1.97155365205984     -0.53292719196142      1.60404076614554
  H   0.78252580054245     -1.42057959089257      0.85641046559094
  C   0.30531659707287      1.07224613789524      1.51625538140892
  N   1.02637124007460      1.68373140239636      2.21609387063572
  N   -1.09202873466588      1.18001162799542     -0.44350352041518
  O   -1.59236882572016      2.21411070767203     -0.03084145689638
  O   -1.01948818223825      0.79902955826469     -1.60491063420219
  N   1.54356086458412     -0.36551170187065     -0.74352794646902
  H   1.27067075165473      0.17271003550042     -1.55354226917926
  H   2.19264808538399      0.14713298244502     -0.16188326753384
  C   -0.38085167652726     -1.78282904905081     -0.81895126552500
  N   -0.98060368581062     -2.56340871096473     -1.45811225130598
