14
Coordinates from ORCA-job run
  C   -0.55529051080569      0.33572028743694      0.49922976849450
  C   0.58066038396099     -0.42988414893149     -0.21684787453643
  Br  -2.20585882555232     -0.64809509900886      0.45218640731134
  H   1.46557281305135      0.20626351684598     -0.11273067385446
  C   -0.20346596447861      0.65187709168106      1.87354350064443
  N   0.10057197358444      0.89450927120756      2.98369151112698
  N   -0.67755636157508      1.67566413844683     -0.27685267698124
  O   -1.71408273042291      1.93670186921161     -0.85121028034800
  O   0.34852093403527      2.34002425741307     -0.22852423038836
  N   0.26081569767404     -0.53413575258064     -1.62128547312944
  H   1.09929770806183     -0.69406347927196     -2.16438110788760
  H   -0.39059717064282     -1.28942134802132     -1.79622835483276
  C   0.83720821219271     -1.70097162538082      0.48058987601568
  N   1.05320384091681     -2.74318897904797      0.97881960836538
