14
Coordinates from ORCA-job run
  C   -0.54528805200857      0.20456407738498      0.66151065576951
  C   0.43026035053369     -0.84254964813166     -0.00681091282461
  Br  -1.91005217055318     -0.69449639872388      1.66998223647004
  H   0.70651840043095     -1.51944184783227      0.80877237663156
  C   0.21968654537608      1.08716817067210      1.52407731801854
  N   0.89327589593309      1.74600171065886      2.22826692254380
  N   -1.15971764432506      1.04679557436699     -0.47223074918699
  O   -2.30210121336371      0.81824045421577     -0.82441671945089
  O   -0.36713255783239      1.84224369945885     -0.96947758203090
  N   1.63016872794824     -0.32380100822063     -0.59506701313525
  H   1.43903608973333      0.36176761649265     -1.31434408774004
  H   2.24049383942356      0.08018618596585      0.10408837427819
  C   -0.33531968705824     -1.60846666302758     -0.99871764346485
  N   -0.93882852423777     -2.19921192328004     -1.81463317587809
