14
Coordinates from ORCA-job run
  C   -0.57077783021855      0.31220249337013      0.63774526244245
  C   0.37947535830260     -0.75889328659396      0.04730572582951
  Br  -2.10603492833041     -0.47960468634853      1.50347947077792
  H   0.79584560122631     -1.29247798332211      0.91136038534475
  C   0.17509071458513      1.12085541589124      1.58906651554376
  N   0.81463473589270      1.69212816489246      2.39345070837984
  N   -1.06487847593932      1.21142117637279     -0.50237781106176
  O   -1.49654206730349      0.62525550970188     -1.48170195829642
  O   -0.99322280268225      2.41730815736681     -0.32340453543060
  N   1.39260011385856     -0.03931039981145     -0.70362186416081
  H   2.28792672356995     -0.05601237186128     -0.23658824046257
  H   1.49102689606622     -0.38028068592503     -1.64915658520038
  C   -0.31958611564230     -1.75684933145418     -0.76714811331607
  N   -0.78555792338514     -2.61574217227876     -1.41840896038961
