14
Coordinates from ORCA-job run
  C   -0.51519833622671      0.27165952144366      0.60041179182039
  C   0.38742679411033     -0.86221737294432      0.02831578891727
  Br  -2.05018034897145     -0.45136701964115      1.52976774150062
  H   0.70931414576684     -1.42260488722523      0.91464504177494
  C   0.27045081574167      1.09170679179392      1.50993977768978
  N   0.97972546792751      1.69417242379344      2.22941988062316
  N   -1.04069682649477      1.20029753482688     -0.50834933910212
  O   -0.93127319829510      0.79594133512650     -1.65887471035263
  O   -1.52912770198804      2.25461869205075     -0.13461812700189
  N   1.56169538061992     -0.42002239772303     -0.67246720397290
  H   1.33555551927155      0.10945343737359     -1.50237531891530
  H   2.19880516447193      0.08805598360299     -0.07378197878275
  C   -0.39458832386474     -1.78835244374066     -0.80064019319213
  N   -0.98190855206894     -2.56034159873733     -1.46139315100643
