14
Coordinates from ORCA-job run
  C   -0.60789065538587      0.19482192702396      0.62501572126311
  C   0.47937237842996     -0.71700955929582      0.01872561823809
  Br  -2.11471632737007     -0.82813183754474      1.28155490373862
  H   0.89566631673027     -1.26156701964904      0.87369496026297
  C   -0.04051347276558      0.98149594537282      1.70876751358460
  N   0.44099547090001      1.56392256601366      2.60921467002127
  N   -1.14446641984032      1.16254938226857     -0.43871733454930
  O   -1.66971512488837      2.18376132646541     -0.02610813241811
  O   -1.02622620132055      0.80272305717307     -1.60271705984300
  N   1.50745485752117      0.13717292542265     -0.53503062633147
  H   2.42359973909728     -0.27671595047583     -0.43193652214223
  H   1.33302612401224      0.33354394974416     -1.51191491943271
  C   -0.06956730791665     -1.72206528110675     -0.90645140837257
  N   -0.40801937720351     -2.55450143141213     -1.66309738401928
