14
Coordinates from ORCA-job run
  C   -0.64953275283683      0.32580318752945      0.27310515014084
  C   0.55781623432874     -0.62271206387465     -0.05831697927078
  Br  -2.16492145215678     -0.04700261615962     -0.84399846044869
  H   1.33286820442690     -0.35418537709815      0.66845934843333
  C   -1.02156719843755      0.24403838566511      1.67373024113191
  N   -1.30048138916160      0.14185023381498      2.81218200317825
  N   -0.09621111654401      1.74310656325707      0.00835164606876
  O   0.79271308323412      2.06292641314064      0.78937188560336
  O   -0.50529751105344      2.37321546256456     -0.95018911327785
  N   1.10609378810542     -0.49760852269491     -1.37583220743070
  H   1.59376986980495      0.37769335853787     -1.50958900415918
  H   0.41255243030568     -0.63404130730668     -2.09959081353504
  C   0.13838291658191     -2.00333857753835      0.20427022181891
  N   -0.19718510659751     -3.10974513983731      0.40904608174687
