14
Coordinates from ORCA-job run
  C   -0.35686779074398      0.39786528101876      0.56125912318199
  C   0.30089546126654     -0.83184870466970     -0.14656846800199
  Br  -0.33863947252186      0.13381830943359      2.47836370145693
  H   -0.26733082854565     -1.70601014366378      0.18469498192977
  C   0.34435296368629      1.62264804728130      0.22497559211917
  N   1.00597319455487      2.55177468903682     -0.06307886978448
  N   -1.82273132235653      0.48517440081719      0.11867388312858
  O   -2.45006313982016     -0.56011793408541      0.21027957947135
  O   -2.22025090897914      1.56573584035206     -0.29168860065142
  N   1.69638984122235     -1.03373617230508      0.12003358682681
  H   2.25850282214824     -0.24096609051217     -0.16521750543330
  H   1.86141719933009     -1.24595590457992      1.09475807467993
  C   0.08502455881868     -0.65722543397548     -1.58966324254175
  N   -0.09667257805975     -0.48215618414818     -2.73682183638159
