14
Coordinates from ORCA-job run
  C   -0.60233782179402      0.18760062527146      0.63293224967339
  C   0.48738671347436     -0.71146352472094      0.01228534597394
  Br  -2.08861990362386     -0.85344482752048      1.30758823620146
  H   0.92001095400806     -1.25246415180617      0.86136957523243
  C   -0.03043550156352      0.98017355691252      1.70990388520211
  N   0.45567966585977      1.56752577830550      2.60465923211792
  N   -1.16368394058853      1.14968303916349     -0.42339242370210
  O   -1.05537084289503      0.79230494045733     -1.58907746663427
  O   -1.69569816106867      2.16433822945639     -0.00327474166546
  N   1.49911357149392      0.15463954027933     -0.55370166155337
  H   2.42119355415255     -0.24804918025791     -0.45961733894397
  H   1.31212569902704      0.34671455048445     -1.52918186287287
  C   -0.06140647439727     -1.72086632636630     -0.90804942755974
  N   -0.39895751208478     -2.55569224965866     -1.66244360146948
