14
Coordinates from ORCA-job run
  C   -0.47133001377214      0.38850793637833      0.59149697004992
  C   0.25627016653050     -0.78818079107417     -0.09756333685757
  Br  -0.89542865520288     -0.05425398794101      2.42083817927001
  H   -0.37788585367607     -1.66713918623947      0.03883492089153
  C   0.34022764615592      1.59219720759419      0.54249075956220
  N   1.07524333185428      2.50896349134715      0.48916170510283
  N   -1.80335847867647      0.63166732446813     -0.13348663742404
  O   -2.12915789039020      1.79301871154488     -0.32769597727101
  O   -2.42448768582740     -0.37993784515158     -0.42682472892168
  N   1.53068026997373     -1.00218473241377      0.54627808113844
  H   1.86406447407227     -1.94057456009189      0.36992498091874
  H   2.22536127902965     -0.34334996343914      0.21413396786699
  C   0.33939019887881     -0.49064212492861     -1.54186814042667
  N   0.47141121104999     -0.24909148005305     -2.68472074389967
