14
Coordinates from ORCA-job run
  C   -0.61441512225442      0.21858333535287      0.61044981308140
  C   0.47000581152193     -0.72241527422963      0.04514132803401
  Br  -2.14393813852555     -0.76727849892757      1.27042944185124
  H   0.86674764259326     -1.24911827801397      0.92034693612947
  C   -0.05319384996710      1.02686436558281      1.68150596011311
  N   0.42246826349355      1.62711678078781      2.57331432084110
  N   -1.12236287115554      1.16462996875490     -0.48670008007610
  O   -1.64037985613538      2.20288447772128     -0.10904636319427
  O   -0.99176602499592      0.77253235548402     -1.63886482731657
  N   1.51729143326475      0.10391678890955     -0.51501701154518
  H   1.35847636055975      0.27847719496689     -1.49867935294405
  H   2.42601101167878     -0.32009728092143     -0.38952958911253
  C   -0.07794190615453     -1.74478262062219     -0.86149625546820
  N   -0.41500275392360     -2.59231331484534     -1.60185432039343
