14
Coordinates from ORCA-job run
  C   -0.63992683134727      0.32606861035331      0.39517565674106
  C   0.60642942698256     -0.43161525891976     -0.11657699284074
  Br  -2.25994524476776     -0.62082031901359     -0.02150530300586
  H   1.46025580262992      0.18123457732717      0.19003941390746
  C   -0.56315955307686      0.57584389892365      1.82494472119105
  N   -0.48009763293781      0.76319345473805      2.98325251798909
  N   -0.58992370090244      1.69939164449767     -0.32821233696770
  O   0.41320352103941      2.34067562240977     -0.04680303966425
  O   -1.48741070752028      2.00456047133064     -1.08581355186829
  N   0.57083581048900     -0.46931184251150     -1.55971253677611
  H   1.49849933983848     -0.62349898302391     -1.93290797329348
  H   -0.04174510471283     -1.20299640901284     -1.89419860592228
  C   0.70546306557499     -1.73662643605283      0.55792373114101
  N   0.80852180871089     -2.80509903104586      1.03639429936906
