14
Coordinates from ORCA-job run
  C   -0.46099316868548      0.41361890404828      0.58029210711688
  C   0.27258999159939     -0.78886228738995     -0.05650115641005
  Br  -0.81644494789207      0.07908579065808      2.44690772634302
  H   -0.33574872015104     -1.67069876735552      0.15696137513402
  C   0.32009870447412      1.62883280464951      0.42874427485179
  N   1.03211013953382      2.55453541269598      0.28873945066512
  N   -1.82064475406347      0.58182754987344     -0.11344888401344
  O   -2.18129443313231      1.72157881839355     -0.36564148336726
  O   -2.42586027044955     -0.45951383409026     -0.32478840833889
  N   1.57146236246405     -0.93212095455390      0.55729417540844
  H   1.92095907755124     -1.87315058617034      0.43480165202304
  H   2.23996871319805     -0.28272984194476      0.15951306771027
  C   0.30220476218062     -0.58125884668273     -1.51831112933211
  N   0.38259254337262     -0.39114416213138     -2.67556276779083
