14
Coordinates from ORCA-job run
  C   -0.46964230774671      0.30934162922287      0.59678310372396
  C   0.57636567591250     -0.36252820072066     -0.32227058083074
  Br  -1.88551033563968     -0.90595966381021      1.05770291763289
  H   1.33542050947794      0.40570547777664     -0.50170378633716
  C   0.14299652740844      0.84066333007635      1.80280152821418
  N   0.66313988006408      1.25678006604996      2.77232805655974
  N   -1.00606262967546      1.50934616445304     -0.23035523159853
  O   -2.17852912401131      1.53928204736022     -0.54154985633087
  O   -0.13107686212734      2.32054378075043     -0.50040651254586
  N   -0.04841854066871     -0.68561195004353     -1.58330024659612
  H   -0.57923414502631     -1.54574363214296     -1.52261976068326
  H   0.64861188879626     -0.78230088735286     -2.31001353890218
  C   1.21136419295151     -1.48557200997447      0.38729608920104
  N   1.72057527028478     -2.41494615164480      0.89530781849290
