14
Coordinates from ORCA-job run
  C   -0.46379710990219      0.40433974542757      0.58555740537355
  C   0.24171020431031     -0.79406695404850     -0.08845022149268
  Br  -0.89986361845485     -0.00983948933736      2.41907149098626
  H   -0.40901330886350     -1.65921440576705      0.05819309388345
  C   0.37235326215000      1.59078337445670      0.52617666822917
  N   1.12622781942365      2.49161573847559      0.46545721628584
  N   -1.78914671195618      0.66703007958429     -0.14348213637200
  O   -2.09416360034447      1.83318031359835     -0.34363629730691
  O   -2.42898517212205     -0.33476429488308     -0.43086276880356
  N   1.51103580060217     -1.02436021906341      0.55957283217625
  H   1.82881607169093     -1.96969322428012      0.39163380104755
  H   2.21739322220340     -0.37987474204880      0.22400411941003
  C   0.32964190090985     -0.51815635889594     -1.53682331640709
  N   0.45779124035293     -0.29797956321821     -2.68441188700985
