14
Coordinates from ORCA-job run
  C   -0.37162736153597      0.39638043232622      0.55098775722425
  C   0.25841370118545     -0.84288901558522     -0.16445827870122
  Br  -0.51081774116203      0.05178758885806      2.45055274130571
  H   -0.38643084381909     -1.69087761570102      0.08407037461682
  C   0.42625974158029      1.58662416619977      0.32347728841325
  N   1.15909269192366      2.48671171608715      0.13177738141166
  N   -1.79294415871537      0.59772180594127      0.01123778366641
  O   -2.48892245921533     -0.40746185021752      0.00941140267521
  O   -2.09265488516124      1.71882470658843     -0.37278519485624
  N   1.61484385958201     -1.14777122020839      0.19196912237208
  H   1.69222708389826     -1.41164140633589      1.16506761607515
  H   2.24519238708025     -0.38208792062489     -0.01354138731534
  C   0.16332737660511     -0.59429203999754     -1.60973271590705
  N   0.08404060775401     -0.36102934733043     -2.75803389098069
