17

C	-0.380619	0.173257	-1.505012
C	0.0	0.0	0.0
Cl	-0.025656	-1.399623	-2.301907
H	1.10687	0.0	0.0
C	-1.836404	0.51422	-1.750536
H	-2.491821	-0.249099	-1.334436
H	-1.991557	0.591241	-2.827078
H	-2.078624	1.473216	-1.284255
N	0.4756	1.164829	-2.100746
H	0.236001	2.079242	-1.730747
H	1.448543	0.968586	-1.8586
N	-0.559176	-1.239008	0.623651
O	0.210957	-2.165789	0.839824
O	-1.773181	-1.242376	0.847598
C	-0.478376	1.152835	0.750288
N	-0.853314	2.116806	1.30815
Br	3.396705	0.0	0.0
