17

C	-0.376527	0.036287	-1.492878
C	0.0	0.0	0.0
Cl	0.151824	-1.578072	-2.21871
H	1.09088	0.0	0.0
C	-1.847639	0.208642	-1.813262
H	-1.974776	0.273769	-2.89673
H	-2.204603	1.136317	-1.35991
H	-2.424432	-0.634892	-1.443849
N	0.388088	1.120858	-1.998235
H	1.3779	1.003614	-1.776352
H	0.270889	1.209001	-2.999934
N	-0.479396	-1.179607	0.800171
O	0.079544	-1.337457	1.879864
O	-1.404778	-1.861998	0.364532
C	-0.497855	1.189999	0.67976
N	-0.941314	2.128438	1.230934
Br	3.368792	0.0	0.0
