15
Coordinates from ORCA-job run
  C   -0.74416377598346     -0.14629309314015     -0.07349814688327
  C   0.40156655773119     -0.12287412031441      0.92283753299839
  F   -1.89250956762957     -0.57202350820882      0.68819185476403
  H   0.47647580788068     -1.12429664550604      1.35913131667617
  H   0.11073420049197      0.54472752451567      1.74047397080848
  N   -0.50795077663651     -1.07863065398879     -1.12156106015108
  H   -0.43492614617217     -2.00761508137818     -0.72605490146210
  H   -1.28105134112196     -1.07974171907869     -1.77684519291006
  N   -0.99541560938593      1.14563834975492     -0.61323679174863
  H   -1.26323664373250      1.77000306026596      0.13723529744051
  H   -1.76083188160987      1.11072597202800     -1.27656125663421
  C   1.72424627373578      0.30833802738809      0.30413734190356
  H   1.64042437501433      1.30967532241002     -0.11825221313093
  H   2.51841753615678      0.31089881991998      1.05467135759755
  H   2.00822099126124     -0.36853225466755     -0.50166910926841
