14
Coordinates from ORCA-job run
  C   0.96103940793730      0.02077031340442     -0.34438128893664
  C   -0.54503713731431     -0.15440225420861     -0.21534380532005
  Cl  1.44538714210602      1.41728516639684      0.76955529297996
  H   -0.84730854924691     -0.90621413725416     -0.94798269592318
  H   1.21422159874817      0.38377697714079     -1.33743578259109
  N   1.58818061386350     -1.20578829256360     -0.06519677529129
  H   1.30825893886140     -1.55927318539442      0.84061729099241
  H   2.59439040674862     -1.15210585124208     -0.13747180999629
  N   -1.21410919349758      1.13415379413277     -0.71401181966524
  O   -0.93585481272110      1.47061495362710     -1.86046789528499
  O   -1.97936575528212      1.71421479831071      0.04749509930417
  N   -0.91995526911814     -0.54436704595931      1.09051993353804
  H   -0.78030553131036      0.21484791845238      1.74523100031638
  H   -1.88754185977448     -0.83251315484284      1.12887325587781
