14
Coordinates from ORCA-job run
  C   0.91183724233741      0.05215037383876     -0.26675680538991
  C   -0.60604246779624     -0.04880878749218     -0.12136341269466
  Cl  1.50559773002716      1.55292676826500      0.48020586132595
  H   -0.93032299823884     -0.91351108921495     -0.72333492330998
  H   1.15292437840318      0.13267110748987     -1.32840832776884
  N   1.50541331476086     -1.07745873852537      0.42501553018519
  H   2.50629351399512     -0.94390675578987      0.50313022730619
  H   1.34489042336891     -1.92005208163108     -0.11814899735283
  N   -1.23008990031887      1.11437431677466     -0.88375736158410
  O   -0.87676139513198      1.21409496035291     -2.05716806521610
  O   -2.04810028034888      1.82021921191246     -0.31333434037122
  N   -0.99646815594260     -0.03614022441165      1.23670644835088
  H   -1.92464947529156     -0.40287260035962      1.38202021592061
  H   -0.31252192982369     -0.54268646120894      1.78419395059882
