14
Coordinates from ORCA-job run
  C   0.94849049575410     -0.00378742888860     -0.37764233953580
  C   -0.55496715796491     -0.14874438477747     -0.19316804354211
  Cl  1.49524380974857      1.40588367607575      0.69087264070119
  H   -0.89595695653774     -0.90869116523757     -0.90000085692123
  H   1.17369426069811      0.33506010430119     -1.38584431298985
  N   1.56353585267590     -1.23535472605223     -0.09548017992625
  H   1.30996000284347     -1.56675844146189      0.82621825428407
  H   2.56717058107157     -1.20226371969630     -0.20531567963032
  N   -1.21833176950933      1.14179043749302     -0.69404858728254
  O   -0.97406925295345      1.45110037219937     -1.85582248612003
  O   -1.94652144832812      1.75028771702497      0.08150948104388
  N   -0.89078379046619     -0.50656460239256      1.13238091825329
  H   -0.71525078937310      0.26271710137119      1.76638944950323
  H   -1.86121383765887     -0.77667493995886      1.20995174216246
