14
Coordinates from ORCA-job run
  C   0.85613181494329     -0.50110719510947     -0.51096396065956
  C   -0.63721994763941     -0.21386561919166     -0.32201834492144
  Cl  1.41737637152820     -0.08603797075385     -2.14894848367392
  H   -1.19114302715563     -0.55194331317918     -1.19868625866929
  H   0.94653775486193     -1.59035713763927     -0.43593972991052
  N   1.61876637233993      0.24639016557530      0.45953264201289
  H   1.32183690088839     -0.05308197893827      1.38443861427893
  H   2.60041738714876      0.01070288856960      0.36471447233004
  N   -0.84796528297960      1.29263498982603     -0.29653647266856
  O   -0.90398987219880      1.85631642129243     -1.38232016719808
  O   -0.95121999885863      1.82741250319615      0.80402740938196
  N   -1.07361496107241     -0.81772003939614      0.90805183065499
  H   -1.22106899318322     -0.09505148705756      1.60328210387185
  H   -1.93584451862281     -1.32629222719411      0.77336634517071
