14
Coordinates from ORCA-job run
  C   0.80286737139745     -0.56595906170443      0.10959510066068
  C   -0.55840526823175     -0.00869365909446     -0.27271283104642
  Cl  0.95134859252318     -2.16846467857231     -0.67334660921088
  H   -0.58542021643147      0.13148890520100     -1.35926026646696
  H   0.82476918229323     -0.75161245446979      1.18737323352242
  N   1.84304158560923      0.29620296290516     -0.40678694043314
  H   2.71081523821465     -0.21863169979059     -0.48328132510626
  H   1.98076585499043      1.05635259597668      0.24872689018248
  N   -0.70236889393585      1.38710008675439      0.29018177998509
  O   0.02239402883760      1.73293841708511      1.22032369713603
  O   -1.60356490855614      2.05689763785269     -0.20359766226294
  N   -1.64541503291556     -0.74982228581505      0.31052509703283
  H   -1.52063072848169     -1.73857212147164      0.13752768449860
  H   -2.52119680531331     -0.45922464485677     -0.10626784849153
