18

C	0.0	0.0	0.0
C	-0.442534	0.147605	-1.478867
F	1.403127	0.0	0.0
H	0.498402	0.18692	-2.045036
H	-0.286972	0.907895	0.540068
C	-0.549175	-1.180348	0.754454
H	-0.247296	-2.126857	0.298348
H	-0.189569	-1.160189	1.788694
H	-1.641765	-1.043733	0.71622
C	-1.20975	1.46062	-1.647609
H	-2.122965	1.345224	-1.049414
H	-0.614172	2.314681	-1.30247
H	-1.470603	1.63063	-2.699092
C	-1.313165	-0.993522	-2.008965
H	-1.512845	-0.833016	-3.075625
H	-0.835374	-1.973616	-1.905779
H	-2.253148	-0.949664	-1.441882
F	-3.130951	0.0	0.0
