15
Coordinates from ORCA-job run
  C   -0.48352717932491      0.10903136727950     -0.17587338018977
  C   0.98565729689690     -0.32988608541340     -0.06375700771748
  F   -0.54110149090410      0.79554313575538     -1.39398559552533
  H   1.24490190546543     -1.02197298468283     -0.86236413899456
  H   1.18295607955571     -0.76203951940877      0.91773006787408
  C   -1.37860512610842     -1.10741208938562     -0.28921871351968
  H   -1.28658326884915     -1.75318020734469      0.58752928244908
  H   -2.41131353256396     -0.76765473140075     -0.37738116534040
  H   -1.12095221969369     -1.68005271723537     -1.18039698256297
  N   -0.96238453104630      0.98620137934521      0.83748988868699
  H   -0.25349798280881      1.64012418575731      1.14162216822359
  H   -1.33588787822196      0.48280540251758      1.62850514478966
  N   1.89515599257254      0.83816391633637     -0.22013683898614
  O   1.86600563257921      1.68687557103451      0.67308457637543
  O   2.59917630245151      0.88445337684559     -1.22284730556249
