15
Coordinates from ORCA-job run
  C   -0.56857547506771      0.16148148326460     -0.19327718681153
  C   0.85616160052408      0.67895352306402      0.03433416267681
  F   -0.75260437647796      0.19602765414366     -1.57446428944408
  H   0.95028811519663      1.67269393434728     -0.40338984346237
  H   1.09164271856125      0.68702958145747      1.09782834378123
  C   -0.80013585863646     -1.25794036274563      0.27310527528983
  H   -0.55714700078312     -1.37314780419099      1.33148592283069
  H   -1.85131705122367     -1.49829283650977      0.11012301814743
  H   -0.18350836259577     -1.95147108107120     -0.29518745753881
  N   -1.54067333230349      1.03628393547688      0.38865391508307
  H   -1.30626719668628      2.01368320255475      0.27348755161859
  H   -1.70724577928187      0.82926925746018      1.36267372957392
  N   1.87444206284800     -0.17630697140965     -0.63367489128164
  O   2.27005390055474      0.17364396151959     -1.74213953586644
  O   2.22388603537162     -1.19090747736120     -0.02955871459672
