15
Coordinates from ORCA-job run
  C   -0.46258782376646      0.01862587269799     -0.02938995735974
  C   1.03420298071712     -0.26115525553148     -0.12381809476200
  F   -0.76230080708615      0.80734412039774     -1.17279161165176
  H   1.24930846320427     -0.92500734254337     -0.95764397710531
  H   1.40423966582144     -0.67013550421218      0.81650683610424
  C   -1.25275920252161     -1.26459371376350     -0.17495319687030
  H   -1.06271579457995     -1.71690356461330     -1.14888609891779
  H   -0.99099144136616     -1.96700452903315      0.61722804556422
  H   -2.31980271634118     -1.04226259405399     -0.10448767185273
  N   -0.79528529722583      0.68233550795587      1.17378422451898
  H   -1.78264174974404      0.90243384500776      1.19442165632215
  H   -0.25082211502220      1.52761279029356      1.28797603156986
  N   1.80298953173737      0.98886692137198     -0.39403054682137
  O   1.70781890832257      1.89507535422135      0.43312186480098
  O   2.48234739785079      1.02676809180473     -1.41403750353943
