15
Coordinates from ORCA-job run
  C   -0.49554283503907      0.19702646556889     -0.02962725722618
  C   0.96710210039238      0.54339542474102      0.23895990502754
  F   -0.72087949451723      0.51396478634720     -1.38904166995686
  H   1.11569350650989      1.61969658952939      0.16315562105080
  H   1.27108336168849      0.17096725807909      1.21548238897262
  C   -0.84737079922168     -1.26239713078960      0.14634540886522
  H   -0.25771108893201     -1.88260389854960     -0.52490985400488
  H   -1.90467005540094     -1.39973916068533     -0.09222930151974
  H   -0.66828317256011     -1.57583370512743      1.17513267631108
  N   -1.27565085033296      1.01357614723687      0.83177712157916
  H   -1.17618799834442      1.99188723017979      0.58891632820453
  H   -2.25455686646921      0.76237009922317      0.77737369896896
  N   1.86178566442180     -0.07210067467829     -0.77781972688368
  O   2.09926445895788     -1.27305881883655     -0.65177787782355
  O   2.28692406884720      0.65384938776138     -1.67173746156503
