15
Coordinates from ORCA-job run
  C   -0.55472455993992      0.22601477753614     -0.16628447580059
  C   0.88605693875246      0.61159873143242      0.18725315120884
  F   -0.69901885430635      0.55083020957009     -1.51410964971328
  H   1.03998422768609      1.66676413607794     -0.03810746607490
  H   1.09052057202788      0.39220023449762      1.23443996339797
  C   -0.86713268598493     -1.24417373013231     -0.00416307794268
  H   -0.65729487273205     -1.58572270335910      1.01163788723921
  H   -0.27070422051250     -1.83905821699925     -0.69304064806957
  H   -1.92440754589966     -1.38943437047332     -0.22850937252626
  N   -1.50006371974546      1.01440446454220      0.56490332792615
  H   -1.69894226297633      0.62702545963748      1.47578367725522
  H   -1.21812270139233      1.98236387912394      0.64917817654526
  N   1.88055435677566     -0.14348880361359     -0.62226478701909
  O   2.16564358766453     -1.27536608321861     -0.23000399366715
  O   2.32665174058294      0.40404201537836     -1.62671271275909
