15
Coordinates from ORCA-job run
  C   -0.61288326932322      0.28188531597309     -0.31415651484316
  C   0.84248793181670      0.51613207792373     -0.72137309961665
  F   -1.33003256638775      0.63149736296665     -1.46957596583478
  H   1.04131568990491      0.02340441843959     -1.66934645570558
  H   1.03468416196513      1.58740990149883     -0.77961056321797
  C   -0.92607427921343     -1.17911097451893     -0.05204589255180
  H   -0.63395123287020     -1.80447401818407     -0.89740939709892
  H   -0.41680308857688     -1.53176492586087      0.84655109482090
  H   -2.00375325981048     -1.28168271178601      0.09512971639040
  N   -0.98155827191892      1.18438886310566      0.72466163828048
  H   -1.78411520817431      0.85316643763240      1.24294820145905
  H   -0.21337907064688      1.35837868441003      1.35839290960786
  N   1.77010823474009     -0.06346381394197      0.28334949513740
  O   2.35162553690806     -1.10553477575342     -0.00786595482739
  O   1.86432869158719      0.52876815809526      1.36035078800015
