15
Coordinates from ORCA-job run
  C   -0.64874410858403      0.19434717659695     -0.27947437760278
  C   0.76543239557432      0.51019250599497     -0.77581647659973
  F   -1.42865750554187      0.57302936407328     -1.39882842914993
  H   1.00387858933043     -0.08706754509194     -1.65273302258792
  H   0.83534272784426      1.57511997740731     -0.99510242924971
  C   -0.90826795384369     -1.28138382321403     -0.06729437413693
  H   -1.95722809205359     -1.41294425196179      0.20760793702107
  H   -0.27413081582633     -1.68576773027120      0.72228798703708
  H   -0.72462451488270     -1.83547484410799     -0.98774139769371
  N   -1.00223393086196      0.97425210651645      0.84008915111658
  H   -0.32312736792992      1.65777765688790      1.13276330014905
  H   -1.37657119875378      0.45718619221482      1.61742530557572
  N   1.76889413898108      0.20071670141903      0.27186085648483
  O   2.01019730429282      1.08584436776743      1.09397895118673
  O   2.25984033225497     -0.92682785423117      0.27197701844976
