15
Coordinates from ORCA-job run
  C   -0.57361755865352      0.12488331155870     -0.21626451766747
  C   0.86425549957208      0.65321738487530     -0.15388197573677
  F   -0.80281778633292     -0.15984440829109     -1.56011152947581
  H   0.96245441125031      1.50360589236262     -0.82869573799611
  H   1.12477279710314      0.92244157554658      0.86877720981465
  C   -0.80482346443716     -1.14117986767418      0.57706331660836
  H   -0.21947202173621     -1.96107197424904      0.16492177938388
  H   -1.86421719032105     -1.39124465892110      0.51099150689653
  H   -0.52234169696025     -1.01251200969072      1.62396322249359
  N   -1.51734009637691      1.12999941952990      0.17169126432660
  H   -1.28179192947167      2.04482561555600     -0.19100793207547
  H   -1.63753359177751      1.17314330498074      1.17341821928662
  N   1.85124492715764     -0.36528430618916     -0.60302797195205
  O   2.22317390257896     -1.18168811942716      0.24076855095279
  O   2.19805379840507     -0.33829115996737     -1.78060540485934
