15
Coordinates from ORCA-job run
  C   -0.52112209139375      0.23529681125576     -0.23849860048662
  C   0.93733691571579      0.68795532535514     -0.24863862810782
  F   -0.91489526399829      0.03359401061582     -1.55348130552410
  H   1.07085875387996      1.39717421566479     -1.06273018807101
  H   1.21479223788916      1.12081639700270      0.71083621709332
  C   -0.75930197490589     -1.06924144308328      0.49783643490744
  H   -1.83007031909627     -1.28198509642883      0.49357740977216
  H   -0.24221043404328     -1.89578779539795      0.00842321270485
  H   -0.41126817682072     -1.00330831724034      1.53062156046703
  N   -1.28468037742132      1.37303998691940      0.22789072862982
  H   -1.18706092031127      1.47266171136759      1.23157120050378
  H   -2.26431153648029      1.21060884115748      0.02268095036026
  N   1.84844612176870     -0.46095036392044     -0.48296950763775
  O   2.33957036782799     -0.99679156970757      0.51099288053239
  O   2.00291669738947     -0.82508271356026     -1.64611236514373
