15
Coordinates from ORCA-job run
  C   -0.58705383230889      0.17237010691094     -0.19544458557747
  C   0.80930611489297      0.47617790290006     -0.73668837471471
  F   -1.42812816755493      0.70325096031228     -1.21468921240422
  H   1.00739043606483     -0.11566011765768     -1.62872717767469
  H   0.89277776577003      1.53975265476137     -0.95519837079858
  C   -0.91739483443234     -1.29837420325954     -0.09119966815953
  H   -0.79321111079795     -1.77965785174310     -1.06144998065615
  H   -0.27460856566524     -1.78736535468690      0.63816655871828
  H   -1.96130484160332     -1.40742630926828      0.21227632426108
  N   -0.77010858625318      0.82679166629330      1.04097960913737
  H   -0.60153170364693      1.82257958830657      0.98024670684773
  H   -1.69018570922913      0.65542394651039      1.42344296956883
  N   1.84955006769454      0.14883813438988      0.27087771417989
  O   2.14705512816528     -1.03764195299581      0.39771361835577
  O   2.31744783890428      1.08094082922651      0.91969386891638
