17

C	-0.421394	-0.000406	-1.464718
C	0.0	0.0	0.0
Cl	0.23811	1.368517	-2.309824
H	1.094808	0.0	0.0
N	0.010892	-1.257511	-2.224862
O	-0.457171	-1.361302	-3.352273
O	0.789096	-2.020053	-1.671911
N	-1.950928	-0.026087	-1.575318
O	-2.543218	1.019673	-1.790975
O	-2.450373	-1.126251	-1.357778
C	-0.491219	-1.167958	0.862106
H	0.009209	-1.078199	1.828079
H	-0.201265	-2.118518	0.422055
H	-1.570888	-1.145076	1.017026
C	-0.455708	1.257002	0.591541
N	-0.838321	2.230357	1.12705
Br	3.383414	0.0	0.0
