17

C	-0.423022	-0.004704	-1.46325
C	0.0	0.0	0.0
Cl	0.224757	1.368192	-2.311815
H	1.094812	0.0	0.0
N	0.014744	-1.259177	-2.224076
O	-0.434059	-1.350589	-3.360188
O	0.770038	-2.036016	-1.661421
N	-1.953817	-0.040967	-1.566757
O	-2.554307	1.003337	-1.765685
O	-2.444588	-1.146634	-1.357779
C	-0.494542	-1.161768	0.869008
H	-1.57433	-1.134516	1.022908
H	-0.207422	-2.115831	0.435259
H	0.004848	-1.06696	1.835001
C	-0.452311	1.260216	0.588383
N	-0.834337	2.233701	1.124141
Br	3.377793	0.0	0.0
