17

C	-0.439188	0.001285	-1.45381
C	0.0	0.0	0.0
Cl	0.39994	-1.209971	-2.374219
H	1.094189	0.0	0.0
N	-1.956599	-0.208131	-1.532271
O	-2.383529	-1.317098	-1.814087
O	-2.613722	0.776499	-1.211105
N	-0.217431	1.340391	-2.161647
O	-0.735673	1.43336	-3.268055
O	0.467289	2.171453	-1.586898
C	-0.432804	-1.289102	0.713115
H	-0.0717	-2.161622	0.169331
H	-1.517231	-1.353282	0.831885
H	0.032383	-1.291897	1.699551
C	-0.50332	1.151864	0.740868
N	-0.897614	2.021638	1.425578
Br	3.372036	0.0	0.0
