18

C	-0.511355	-0.02404	-1.456406
C	0.0	0.0	0.0
Cl	0.186509	-1.474641	-2.275518
H	1.094836	0.0	0.0
C	-2.029395	-0.165684	-1.546612
H	-2.328022	-0.154165	-2.59772
H	-2.386637	-1.096404	-1.103954
H	-2.503294	0.680433	-1.039319
N	0.008589	1.128202	-2.15232
H	-0.267256	1.9814	-1.676066
H	-0.33942	1.146621	-3.105066
C	-0.450962	-1.185831	0.858211
H	0.060134	-1.130875	1.820684
H	-0.151588	-2.116543	0.375845
H	-1.529282	-1.193909	1.033805
C	-0.465051	1.245429	0.609462
N	-0.898272	2.239773	1.0635
Br	3.555378	0.0	0.0
