18

C	-0.250061	-0.038446	-1.525098
C	0.0	0.0	0.0
Cl	-2.02468	-0.273333	-1.850239
H	1.099052	0.0	0.0
C	0.193207	1.260386	-2.169848
H	1.249479	1.415396	-1.926977
H	-0.386843	2.106084	-1.80013
H	0.074694	1.175517	-3.250654
N	0.453872	-1.127513	-2.169072
H	0.167144	-2.010525	-1.762447
H	1.445445	-1.003455	-1.95435
C	-0.470334	-1.225131	0.780397
H	-1.557944	-1.319055	0.76855
H	-0.128924	-1.143193	1.814078
H	-0.023435	-2.130042	0.365161
C	-0.516137	1.216707	0.61249
N	-0.965548	2.176682	1.120614
Br	3.474671	0.0	0.0
