18

C	-0.471256	-0.057688	-1.47305
C	0.0	0.0	0.0
Cl	0.05707	1.483353	-2.247464
H	1.095197	0.0	0.0
C	0.220869	-1.195676	-2.20189
H	1.297676	-1.138815	-2.029121
H	0.00398	-1.12115	-3.268027
H	-0.14969	-2.159828	-1.841134
N	-1.906437	-0.139865	-1.669409
H	-2.232286	-1.031355	-1.312989
H	-2.363303	0.600131	-1.145293
C	-0.413836	-1.241598	0.803025
H	-0.049861	-1.135169	1.826475
H	-1.499152	-1.375137	0.838351
H	0.055316	-2.13325	0.385548
C	-0.54298	1.182771	0.659841
N	-1.075033	2.081894	1.198222
Br	3.508962	0.0	0.0
