18

C	-0.387534	0.026376	-1.502925
C	0.0	0.0	0.0
Cl	0.067017	-1.578443	-2.201467
H	1.097027	0.0	0.0
C	-1.871062	0.225407	-1.754398
H	-2.194793	1.187272	-1.345486
H	-2.049521	0.217527	-2.830298
H	-2.456882	-0.569517	-1.289544
N	0.374124	1.018265	-2.230586
H	0.097452	1.937964	-1.897591
H	1.36051	0.896243	-1.997931
C	-0.517675	-1.159462	0.848181
H	-1.610533	-1.19846	0.869363
H	-0.154079	-1.043097	1.871386
H	-0.129554	-2.099478	0.458284
C	-0.435946	1.273055	0.574059
N	-0.836696	2.279123	1.031928
Br	3.490571	0.0	0.0
