18

C	0.0	0.0	0.0
C	-0.609931	0.045623	-1.445467
Br	1.944831	0.0	0.0
H	0.226925	0.121323	-2.14608
N	-0.273848	1.371043	0.69289
O	0.30333	2.357122	0.258385
O	-1.042363	1.369465	1.649412
C	-0.544995	-1.085611	0.887121
H	-0.111158	-1.018709	1.88507
H	-1.628821	-0.915288	0.917346
H	-0.325058	-2.050864	0.435426
N	-1.445902	1.226957	-1.584589
H	-1.720913	1.28568	-2.55884
H	-2.289464	0.995466	-1.016793
N	-1.290351	-1.234618	-1.671995
H	-2.167859	-1.108845	-1.140548
H	-1.543582	-1.247404	-2.655532
F	-3.13857	0.0	0.0
