18

C	0.0	0.0	0.0
C	-0.345947	-0.097375	-1.53759
Br	1.956199	0.0	0.0
H	0.337339	0.607693	-2.026017
N	-0.341109	1.402882	0.493037
O	-0.276219	2.320024	-0.323097
O	-0.608356	1.542188	1.681125
C	-0.651506	-1.02519	0.869561
H	-0.329925	-0.93631	1.906753
H	-1.735805	-0.817332	0.774002
H	-0.42032	-2.009544	0.466986
N	-1.681857	0.233121	-1.924678
H	-2.407291	-0.016509	-1.177352
H	-1.738946	1.241133	-1.993425
N	-0.073983	-1.486485	-1.933043
H	-0.668233	-1.633376	-2.739672
H	0.893814	-1.588875	-2.213751
F	-3.283896	0.0	0.0
