18

C	0.0	0.0	0.0
C	-0.628763	0.139462	-1.422102
Br	1.936138	0.0	0.0
H	-1.373857	0.921372	-1.292147
N	-0.314942	1.299228	0.769251
O	-0.454909	1.2214	1.983896
O	-0.341701	2.344648	0.12978
C	-0.505475	-1.167019	0.80787
H	-0.298075	-2.081134	0.253049
H	-1.588329	-1.001769	0.881534
H	-0.029684	-1.191941	1.786601
N	-1.301848	-1.118678	-1.756097
H	-1.638051	-0.992614	-2.707298
H	-2.144555	-1.023346	-1.148009
N	0.330915	0.576223	-2.419687
H	-0.188395	0.945966	-3.207193
H	0.850117	-0.233331	-2.744115
F	-2.941244	0.0	0.0
