18

C	0.0	0.0	0.0
C	-0.344565	-0.079101	-1.546312
Br	1.944065	0.0	0.0
H	0.36666	-0.843982	-1.880931
N	-0.445759	1.269277	0.705887
O	-0.182835	1.34327	1.904219
O	-1.051927	2.124604	0.072406
C	-0.605186	-1.150395	0.758492
H	-1.696037	-0.974756	0.699636
H	-0.334511	-2.088221	0.267145
H	-0.25361	-1.164547	1.790117
N	0.053689	1.15925	-2.21813
H	-0.070479	0.952905	-3.203313
H	-0.656338	1.844061	-1.99068
N	-1.65982	-0.523823	-1.915518
H	-1.706372	-1.526272	-1.768108
H	-2.38926	-0.145322	-1.235898
F	-3.199673	0.0	0.0
