18

C	0.0	0.0	0.0
C	-0.553417	0.016091	-1.437263
Br	1.952959	0.0	0.0
H	-1.641359	0.07665	-1.206211
N	-0.389985	1.271244	0.766492
O	-0.743205	2.265438	0.141139
O	-0.283651	1.231292	1.98763
C	-0.508739	-1.181975	0.791195
H	-1.605324	-1.05566	0.733051
H	-0.187146	-2.093987	0.294532
H	-0.143355	-1.144205	1.816449
N	-0.247841	-1.281559	-2.032398
H	-0.940985	-1.425907	-2.755743
H	0.647874	-1.209467	-2.504174
N	-0.137312	1.100681	-2.317026
H	0.870468	1.22111	-2.244249
H	-0.557349	1.953765	-1.972524
F	-2.883306	0.0	0.0
