13

C	-0.531694	0.07639	-1.571705
C	0.039934	0.108471	-0.126
Br	0.340575	-1.340691	-2.609416
H	1.130782	0.215117	-0.173913
H	-0.394905	1.017026	0.322466
C	-1.96624	-0.204846	-1.545923
N	-3.128142	-0.376798	-1.501861
C	-0.301497	1.340819	-2.270477
N	-0.107922	2.383	-2.779085
N	-0.237015	-1.123027	0.553849
H	-0.903241	-0.964343	1.298426
H	0.735228	-1.339582	0.951969
F	2.212203	-1.043629	1.138389
