13

C	-0.481594	0.128962	-1.590424
C	0.081548	0.129681	-0.14092
Br	0.214893	-1.411006	-2.586467
H	1.171646	0.102531	-0.179773
H	-0.23668	1.099408	0.277623
C	-1.939773	0.025245	-1.569263
N	-3.114006	-0.006393	-1.528003
C	-0.094746	1.336474	-2.320085
N	0.232747	2.332231	-2.852542
N	-0.347998	-1.036582	0.572304
H	0.578176	-1.323728	1.03525
H	-1.033117	-0.78072	1.271668
F	2.056984	-1.16566	1.302139
