13

C	-0.455941	0.014236	-1.580745
C	0.094126	-0.038492	-0.139264
Br	-2.436448	0.097081	-1.533032
H	1.182463	-0.146502	-0.179276
H	-0.320631	-0.953528	0.31092
C	0.002187	1.204994	-2.293567
N	0.385722	2.118149	-2.925786
C	-0.111862	-1.185706	-2.343405
N	0.189292	-2.170577	-2.910494
N	-0.15379	1.197055	0.547937
H	0.761601	1.271118	1.10159
H	-0.939443	1.089814	1.177553
F	2.144989	0.765393	1.486239
