17

C	-0.424244	0.00172	-1.45424
C	0.0	0.0	0.0
F	-1.849642	-0.017122	-1.492682
H	1.094604	0.0	0.0
H	-0.336426	-0.947256	0.450923
C	0.028574	1.256	-2.167401
H	-0.367308	2.129013	-1.649971
H	1.120332	1.305121	-2.147755
H	-0.321105	1.247622	-3.204116
C	0.056418	-1.258315	-2.143039
H	-0.362629	-2.139452	-1.64952
H	1.146578	-1.31058	-2.087729
H	-0.258767	-1.263717	-3.190278
N	-0.489921	1.183901	0.704794
H	0.073329	1.321842	1.535301
H	-1.449117	1.031161	0.992877
Br	3.72012	0.0	0.0
