17

C	-0.498846	0.032792	-1.439471
C	0.0	0.0	0.0
F	-0.228666	-1.240395	-1.987009
H	1.093729	0.0	0.0
H	-0.346275	-0.937379	0.456361
C	-2.001219	0.218481	-1.522785
H	-2.507392	-0.57798	-0.968357
H	-2.329129	0.170699	-2.564843
H	-2.282551	1.183314	-1.099401
C	0.26923	1.050337	-2.25393
H	1.334902	0.816809	-2.204812
H	-0.063381	1.040551	-3.296586
H	0.113379	2.045141	-1.83224
N	-0.449815	1.201141	0.722395
H	-1.227922	0.976183	1.329543
H	0.312153	1.521945	1.307468
Br	3.748158	0.0	0.0
