17

C	-0.37128	-0.00209	-1.476513
C	0.0	0.0	0.0
F	-1.792728	-0.068014	-1.583002
H	1.094892	0.0	0.0
H	-0.358652	0.932264	0.450228
C	0.073128	1.288507	-2.130313
H	-0.18662	1.293007	-3.192614
H	1.154824	1.396219	-2.018266
H	-0.417942	2.137548	-1.648545
C	0.182202	-1.216743	-2.191303
H	-0.091966	-1.194382	-3.249355
H	-0.219576	-2.131765	-1.751772
H	1.270753	-1.2274	-2.093142
N	-0.496457	-1.134859	0.773874
H	0.136247	-1.916542	0.664158
H	-1.406652	-1.407054	0.42118
Br	3.69588	0.0	0.0
