17

C	-0.438759	0.007749	-1.466885
C	0.0	0.0	0.0
F	-0.139568	-1.267807	-1.999716
H	1.094899	0.0	0.0
H	-0.325848	0.941095	0.459735
C	-1.933843	0.187418	-1.657168
H	-2.259494	1.155235	-1.268146
H	-2.484827	-0.60205	-1.140822
H	-2.187574	0.130973	-2.719016
C	0.374235	1.017274	-2.249589
H	0.162333	2.030751	-1.897972
H	0.132718	0.957503	-3.315002
H	1.437742	0.819128	-2.100278
N	-0.471583	-1.118927	0.807846
H	-0.014753	-1.956821	0.47013
H	-1.469347	-1.247098	0.690471
Br	3.796603	0.0	0.0
