17

C	-0.464832	0.009145	-1.456987
C	0.0	0.0	0.0
F	-0.000256	-1.196529	-2.02153
H	1.094437	0.0	0.0
H	-0.341362	-0.9379	0.452749
C	-1.977491	-0.035936	-1.607627
H	-2.453796	0.873436	-1.232173
H	-2.240495	-0.147216	-2.662797
H	-2.376435	-0.895714	-1.060966
C	0.171034	1.140178	-2.241379
H	1.255782	1.099089	-2.112938
H	-0.07346	1.045804	-3.303199
H	-0.192182	2.109419	-1.888176
N	-0.444143	1.124141	0.821197
H	0.098152	1.949347	0.593288
H	-1.427289	1.329082	0.679632
Br	3.773357	0.0	0.0
