18

C	-0.609927	0.007662	-1.414354
C	0.0	0.0	0.0
Br	0.417775	1.292144	-2.487229
H	1.086798	0.0	0.0
N	-0.344199	-1.29748	-1.993633
H	-0.298473	-1.223466	-3.000676
H	-1.082546	-1.935216	-1.722553
C	-2.068841	0.452817	-1.457917
H	-2.192154	1.476255	-1.09953
H	-2.67063	-0.21788	-0.842211
H	-2.416927	0.40903	-2.491823
N	-0.439486	-1.191781	0.801881
O	0.220456	-1.41479	1.808694
O	-1.428295	-1.836621	0.444237
N	-0.483982	1.183515	0.786129
O	-1.410536	1.011614	1.579977
O	0.051224	2.255254	0.532062
Cl	3.24246	0.0	0.0
