18

C	-0.422316	-0.042813	-1.490488
C	0.0	0.0	0.0
Br	-0.155969	1.812476	-2.131183
H	1.0957	0.0	0.0
N	0.480901	-0.862083	-2.257921
H	1.441503	-0.620321	-2.013252
H	0.334336	-1.822792	-1.967794
C	-1.864175	-0.428737	-1.770977
H	-2.041138	-1.456353	-1.440112
H	-2.020839	-0.376482	-2.849454
H	-2.556148	0.238392	-1.258864
N	-0.399738	-1.240757	0.748927
O	-0.417083	-2.301011	0.125776
O	-0.612935	-1.129018	1.951718
N	-0.568081	1.131508	0.783918
O	-1.796647	1.21892	0.803626
O	0.214248	1.88572	1.35017
Cl	3.199408	0.0	0.0
