18

C	-0.531762	0.059225	-1.453419
C	0.0	0.0	0.0
Br	-0.295889	-1.789394	-2.140898
H	1.095604	0.0	0.0
N	-1.913554	0.404387	-1.63961
H	-2.488847	-0.10384	-0.979185
H	-2.012046	1.396417	-1.463207
C	0.372101	0.945882	-2.295352
H	0.252068	1.98529	-1.986271
H	0.082069	0.84472	-3.341681
H	1.416032	0.660238	-2.155331
N	-0.561487	-1.148686	0.767191
O	0.207036	-1.98511	1.217835
O	-1.791929	-1.165288	0.876839
N	-0.389192	1.209883	0.807742
O	-0.624186	2.259091	0.209879
O	-0.379785	1.079056	2.0266
Cl	3.218632	0.0	0.0
