18

C	-0.503294	0.05623	-1.44218
C	0.0	0.0	0.0
Br	0.078809	-1.736569	-2.248852
H	1.116389	0.0	0.0
N	-1.897257	0.267395	-1.520588
H	-2.4042	-0.465004	-1.040499
H	-2.200183	0.338059	-2.482893
C	0.273099	1.092729	-2.243258
H	1.345116	0.960401	-2.089629
H	-0.019594	2.090831	-1.916474
H	0.03801	0.975274	-3.303706
N	-0.500722	-1.149594	0.813981
O	-1.527757	-1.731783	0.46569
O	0.14894	-1.398099	1.823065
N	-0.482264	1.224145	0.730891
O	0.102962	2.267963	0.474251
O	-1.43394	1.103184	1.498717
Cl	3.23272	0.0	0.0
