16
Coordinates from ORCA-job run
  C   0.50179767451127      0.16219690905086     -0.43302137856549
  C   -0.74959051806894     -0.02371482781845      0.46144190274783
  Cl  -0.02850204685274     -0.14741376298357     -2.13092310789879
  H   -0.39408782545634      0.12316861170878      1.48898073266101
  C   1.57410431575248     -0.84223528658955     -0.06223241661905
  H   1.18510539759434     -1.85639127544038     -0.11639897450733
  H   2.42022311052507     -0.72365671268483     -0.73858920856163
  H   1.91163597218197     -0.65268235908532      0.96245034514350
  N   1.04763627585106      1.49180084681500     -0.40109103926528
  H   1.46021587895885      1.68448727558566      0.50389978036340
  H   0.34878133462624      2.19373230598779     -0.61559441172584
  N   -1.29886333591571     -1.36360050152834      0.37308211171318
  H   -1.73348402629779     -1.49586743800370     -0.53259890012813
  H   -2.00641278364423     -1.49863863716195      1.08498043646519
  C   -1.72175220191519      1.05546786792057      0.18661621696768
  N   -2.51780722185034      1.89234698422743     -0.03000208879024
