16
Coordinates from ORCA-job run
  C   0.48329740173708      0.20884670574623     -0.31822546575196
  C   -0.77314829715103     -0.06703250001329      0.52643336865664
  Cl  -0.03348985971745      0.01730984308284     -2.09029960950984
  H   -0.42993335631459     -0.01690576483816      1.56545448636673
  C   1.55881265544834     -0.82485872518938     -0.05746295316802
  H   1.88727347753182     -0.73655027992347      0.98117505863120
  H   1.17276156113254     -1.82582445972059     -0.23337064598157
  H   2.41286019667373     -0.64753181452933     -0.71453370046160
  N   0.95454391505674      1.51424563421579     -0.03378682463076
  H   1.83612086313346      1.69340404918091     -0.49763646014181
  H   0.29040262377994      2.23003988522274     -0.30534261934049
  N   -1.30605233349514     -1.39448536388583      0.28840245743407
  H   -1.74283302019864     -1.43337465225066     -0.62492249408349
  H   -2.00749313014936     -1.61381588888185      0.98480074317328
  C   -1.75207724605773      1.02472447695112      0.33989185821165
  N   -2.55104545140969      1.87280885483295      0.18942280059596
