15

C	-0.030119	-0.001225	-0.00794
C	-0.419382	0.091255	-1.489331
F	1.379949	0.076565	0.007141
H	-1.50109	-0.05464	-1.544351
H	-0.41966	0.907947	0.449307
N	-0.460639	-1.120498	0.741511
H	-0.403455	-1.960976	0.179849
H	-1.447172	-0.957284	0.944021
N	0.214089	-1.095815	-2.226564
O	-0.218549	-2.219897	-1.969554
O	1.126778	-0.869843	-3.020763
N	-0.013683	1.336386	-2.035136
H	-0.339351	1.44015	-2.985891
H	0.995334	1.399649	-2.024657
Cl	-3.475056	0.129425	0.119419
