15

C	-0.178473	0.040082	-0.04137
C	-0.370093	0.060495	-1.555489
F	1.182875	0.345715	0.153224
H	0.39031	-0.559231	-2.040287
H	-0.75913	0.846181	0.40824
N	-0.519889	-1.185333	0.571634
H	-0.507847	-1.946562	-0.094365
H	-1.46839	-1.096487	0.932293
N	0.009649	1.467102	-2.03635
O	-0.670494	2.408386	-1.637484
O	0.955493	1.558352	-2.822196
N	-1.684892	-0.328939	-1.891885
H	-1.938156	-0.118863	-2.84586
H	-2.385043	0.006019	-1.227178
Cl	-3.602627	0.07337	0.769677
