16

C	0.0	0.0	0.0
C	-0.252382	-0.111581	-1.551681
Cl	1.770608	0.0	0.0
H	0.423727	0.645647	-1.962126
N	-0.721859	1.204381	0.487534
O	-0.699495	1.359857	1.73739
O	-0.737289	2.191128	-0.320998
N	-0.291206	-1.182898	0.770207
H	-1.307879	-1.200428	0.845507
H	0.08547	-1.014985	1.698516
N	-1.608957	0.077922	-2.081204
H	-1.889183	0.990088	-1.72854
H	-1.488271	0.179336	-3.08922
C	0.223477	-1.42477	-2.016171
N	0.565688	-2.439488	-2.498408
H	-2.074832	0.0	0.0
