16

C	0.0	0.0	0.0
C	-0.250014	-0.137232	-1.548678
Cl	1.770848	0.0	0.0
H	0.426545	0.614649	-1.97056
N	-0.708182	1.217394	0.471515
O	-0.686461	1.388763	1.719697
O	-0.720685	2.191418	-0.348829
N	-0.295232	-1.169385	0.789061
H	0.081983	-0.987227	1.71545
H	-1.312476	-1.178071	0.860834
N	-1.603425	0.037973	-2.091208
H	-1.469721	0.158044	-3.094989
H	-1.908727	0.936725	-1.72954
C	0.229966	-1.456741	-1.986799
N	0.559269	-2.49003	-2.435668
H	-2.089814	0.0	0.0
