16

C	0.0	0.0	0.0
C	-0.531273	0.053711	-1.444004
Cl	1.760023	0.0	0.0
H	-1.638867	0.112403	-1.252982
N	-0.574844	1.208527	0.651982
O	-1.682757	0.964677	1.241209
O	-0.222755	2.316641	0.182824
N	-0.467295	-1.156307	0.690189
H	-0.284287	-1.937169	0.067747
H	-1.487701	-1.032711	0.733133
N	-0.244631	-1.210564	-2.117296
H	0.702671	-1.18486	-2.476758
H	-0.873204	-1.31441	-2.904734
C	-0.086844	1.201557	-2.236602
N	0.279311	1.986519	-3.033404
H	-2.92536	0.0	0.0
