16

C	0.0	0.0	0.0
C	-0.244263	-0.088563	-1.557292
Cl	1.770761	0.0	0.0
H	0.431922	0.677793	-1.948116
N	-0.645339	1.242043	0.508762
O	-0.631889	1.369778	1.758744
O	-0.644907	2.225122	-0.28471
N	-0.320813	-1.176184	0.754104
H	-1.340623	-1.157168	0.805985
H	0.052648	-1.032968	1.687849
N	-1.585224	0.082606	-2.133173
H	-1.996619	0.876099	-1.655789
H	-1.42375	0.358146	-3.104287
C	0.256524	-1.394654	-2.025807
N	0.611092	-2.402472	-2.512456
H	-2.186411	0.0	0.0
