16

C	0.0	0.0	0.0
C	-0.589007	0.207684	-1.402968
Cl	1.744754	0.0	0.0
H	-1.671876	0.393138	-1.152947
N	-0.577521	1.135612	0.811765
O	-0.27392	2.300197	0.462423
O	-1.695116	0.784133	1.351293
N	-0.467638	-1.26742	0.466864
H	-1.495338	-1.175028	0.458111
H	-0.189839	-1.360666	1.439689
N	-0.450872	-0.989129	-2.238698
H	-0.266751	-1.759831	-1.604886
H	-1.356534	-1.170778	-2.654168
C	-0.039947	1.366569	-2.107055
N	0.321176	2.260636	-2.779489
H	-2.878138	0.0	0.0
