14

C	-0.333806	0.014733	-1.484911
C	0.0	0.0	0.0
F	-1.727393	-0.005212	-1.660221
H	1.096985	0.0	0.0
H	0.007655	-0.93866	-1.911832
N	0.202107	1.178928	-2.106502
H	1.118127	1.380084	-1.716035
H	0.305472	1.039335	-3.102021
N	-0.480177	-1.176211	0.711915
H	-1.405134	-1.420154	0.371229
H	0.156052	-1.944293	0.527611
C	-0.506238	1.21446	0.649225
N	-0.932681	2.168302	1.183712
Br	3.494874	0.0	0.0
