14

C	-0.358353	0.048052	-1.471876
C	0.0	0.0	0.0
F	-1.745257	0.180635	-1.627501
H	1.095863	0.0	0.0
H	-0.119824	-0.933057	-1.898144
N	0.285797	1.165998	-2.086762
H	1.244348	1.224145	-1.751028
H	0.309892	1.049552	-3.09136
N	-0.477403	-1.233734	0.612238
H	-1.445924	-1.130057	0.889181
H	0.075146	-1.416289	1.440549
C	-0.477053	1.210816	0.688218
N	-0.905286	2.112828	1.307428
Br	3.478417	0.0	0.0
