14

C	-0.34367	-0.188877	-1.482743
C	0.0	0.0	0.0
F	-0.144261	1.038208	-2.147707
H	1.095386	0.0	0.0
H	-1.405321	-0.423776	-1.632066
N	0.471827	-1.227468	-1.990557
H	0.344595	-1.334622	-2.9879
H	1.450756	-1.025448	-1.788984
N	-0.430965	-1.109367	0.845754
H	0.184714	-1.889934	0.649827
H	-1.373487	-1.388967	0.592118
C	-0.546648	1.259148	0.506437
N	-1.035903	2.250557	0.901005
Br	3.50877	0.0	0.0
