14
Coordinates from ORCA-job run
  C   0.83263817802554     -0.03564533305378     -0.56987304703941
  C   -0.52385146068698      0.11989084112054      0.11941338005684
  Cl  1.73255770686918     -1.42538387641639     -0.00981499472159
  H   -0.96027618285196      1.03734373379864     -0.29045148058337
  H   0.69440275954125     -0.10907801246960     -1.64864117005583
  N   1.61031715560874      1.25699342467159     -0.36451677990364
  O   2.57414403342846      1.27513392436964      0.38301248011868
  O   1.13350016163529      2.20419892696953     -0.98382656803837
  C   -0.34204114362051      0.31283803398151      1.55937106718060
  N   -0.22228191374106      0.45358535450784      2.71880561939817
  C   -1.45582740863132     -1.05809803188467     -0.17248906708955
  H   -2.43779679958834     -0.86710916683006      0.26234527019019
  H   -1.57349383028102     -1.18240014927605     -1.25148388542818
  H   -1.06299125570726     -1.98226966948873      0.25014917591545
