14
Coordinates from ORCA-job run
  C   0.65943452300647      0.81699731910242     -0.29015756686897
  C   -0.66861667796927      0.06708900728860     -0.21261142762546
  Cl  0.65161218288876      2.04672168588508     -1.54592574581794
  H   -0.88615034856333     -0.30310125814420     -1.21997837404902
  H   0.93512435417565      1.27844900728154      0.65671147682587
  N   1.73395527567240     -0.19929239773746     -0.58154686516175
  O   1.63362999511124     -0.82545773140288     -1.62916664806352
  O   2.58692248368713     -0.34861069263877      0.28866647732309
  C   -1.71640119349616      1.01079870526854      0.17646470765140
  N   -2.55990470732108      1.74900756505450      0.52557935806491
  C   -0.60022506551072     -1.10302979253800      0.77594233027220
  H   -0.28803078866350     -0.76139227406849      1.76494357705524
  H   0.10021709396048     -1.86162911946685      0.42430573129742
  H   -1.58356712697806     -1.56555002388404      0.86677296909653
