14
Coordinates from ORCA-job run
  C   0.59602387931204      0.56350449674487     -0.84208584420024
  C   -0.74874253321291      0.17486889839865     -0.21115758371309
  Cl  0.88024774510225     -0.32885583155000     -2.32702105670141
  H   -1.49153092402026      0.29741145580266     -1.00757704052874
  H   0.64027534360848      1.62868665933543     -1.06057689178560
  N   1.70367011216861      0.31483692724042      0.15888223180879
  O   2.21382553143683     -0.79591456894239      0.20478891452616
  O   1.94226100123389      1.27037679995923      0.89267581151795
  C   -1.08734413819941      1.12607625951980      0.85118896251646
  N   -1.38416932353646      1.86858720076241      1.71106437633258
  C   -0.80040563030582     -1.26406692873614      0.31088981116558
  H   -1.82110148266878     -1.49817066000238      0.61604753479228
  H   -0.14670548420839     -1.39419275504541      1.17300269894672
  H   -0.49730409671007     -1.96414795348716     -0.46712192467745
