14
Coordinates from ORCA-job run
  C   0.55123869267464      0.55858774845543     -0.87549771359925
  C   -0.75976628784719      0.15036914976435     -0.18780941883182
  Cl  0.80704147311597     -0.36131734938978     -2.34847601021294
  H   -1.53282141786537      0.23634278705347     -0.95988636357989
  H   0.55825362686396      1.61909911945336     -1.11957547647531
  N   1.69943739473061      0.36340789809561      0.09082743329842
  O   1.93940207960546      1.34298152718805      0.79173942948196
  O   2.23886286699341     -0.73305496332983      0.14629623366036
  C   -1.08536189803082      1.11708838949319      0.86441929933157
  N   -1.37166535863106      1.87174337514618      1.71730421733713
  C   -0.75595346204722     -1.27714308468862      0.36680897972735
  H   -0.46540843828586     -1.98701846768017     -0.40738147187052
  H   -1.75848672269341     -1.52844853575355      0.71550568601070
  H   -0.06677254858312     -1.37263759380770      1.20572517572223
