14

C	-0.496772	-0.030515	-1.411256
C	0.0	0.0	0.0
Br	-0.068988	1.697649	-2.226117
H	1.089686	0.0	0.0
H	-0.323772	0.893266	0.526902
C	0.075781	-1.072081	-2.253417
N	0.54187	-1.895229	-2.95123
N	-2.037621	-0.131644	-1.49085
O	-2.515051	-0.697163	-2.464827
O	-2.656182	0.41005	-0.58676
N	-0.460224	-1.153461	0.733307
O	-0.336785	-1.121515	1.961464
O	-0.865053	-2.137939	0.087626
H	2.497344	0.0	0.0
