14

C	-0.450655	-0.01505	-1.419404
C	0.0	0.0	0.0
Br	-2.432596	-0.057967	-1.646674
H	1.091899	0.0	0.0
H	-0.316211	-0.894035	0.528402
C	0.054714	1.063087	-2.254029
N	0.469459	1.923293	-2.940159
N	0.020425	-1.355243	-2.029037
O	0.474536	-1.32275	-3.164807
O	-0.131747	-2.348099	-1.333264
N	-0.438921	1.155038	0.733658
O	-0.446565	1.050635	1.968289
O	-0.667189	2.207113	0.115982
H	2.446928	0.0	0.0
