14

C	-0.510415	-0.013129	-1.403973
C	0.0	0.0	0.0
Br	-0.037384	1.700581	-2.223862
H	1.089696	0.0	0.0
H	-0.315044	0.89269	0.53522
C	0.01435	-1.075177	-2.251335
N	0.444095	-1.919707	-2.946516
N	-2.056786	-0.059487	-1.468916
O	-2.564885	-0.617518	-2.431487
O	-2.645875	0.512726	-0.564107
N	-0.466286	-1.155488	0.732921
O	-0.288698	-1.146241	1.95339
O	-0.932338	-2.114611	0.092791
H	2.50362	0.0	0.0
