12

C	0.0	0.0	0.0
C	-0.466702	0.150401	-1.445974
Cl	1.788299	0.0	0.0
H	-1.539065	0.34083	-1.401978
H	-0.367036	-0.937393	0.41202
H	0.045506	1.020372	-1.872055
C	-0.396939	1.13261	0.839377
N	-0.576527	2.073104	1.518852
N	-0.162404	-1.077292	-2.177979
H	-1.020243	-1.467355	-2.540737
H	0.465724	-0.898236	-2.947192
Cl	-3.449993	0.0	0.0
