12

C	0.0	0.0	0.0
C	-0.518918	0.149479	-1.421459
Cl	1.791394	0.0	0.0
H	-1.606814	0.191522	-1.317141
H	-0.340817	-0.95057	0.407673
H	-0.155261	1.102787	-1.826823
C	-0.407325	1.104038	0.870454
N	-0.635482	1.992261	1.603167
N	-0.127672	-1.017179	-2.205444
H	0.704922	-0.826217	-2.745608
H	-0.876164	-1.257392	-2.839912
Cl	-3.580566	0.0	0.0
