12

C	0.0	0.0	0.0
C	-0.570405	0.028303	-1.429008
Cl	1.785436	0.0	0.0
H	-1.373899	0.769064	-1.451549
H	-0.33464	-0.905352	0.50332
H	0.224913	0.33555	-2.112915
C	-0.395331	1.173242	0.781694
N	-0.613048	2.14016	1.411116
N	-1.032649	-1.314884	-1.768594
H	-1.249911	-1.331705	-2.760147
H	-1.933269	-1.389375	-1.290897
Cl	-3.480172	0.0	0.0
