12

C	0.0	0.0	0.0
C	-0.490278	-0.295401	-1.447205
Cl	1.789981	0.0	0.0
H	0.168795	0.274788	-2.109667
H	-0.346884	-0.750404	0.711059
H	-0.290425	-1.355985	-1.631742
C	-0.418674	1.331398	0.430777
N	-0.695515	2.433065	0.726679
N	-1.851685	0.011397	-1.762834
H	-2.552911	-0.455479	-1.188016
H	-2.047406	0.998409	-1.658196
Cl	-4.545018	0.0	0.0
