12

C	0.0	0.0	0.0
C	-0.495298	0.141272	-1.432771
Cl	1.791424	0.0	0.0
H	-0.118579	1.090532	-1.834878
H	-0.346142	-0.945999	0.412984
H	-1.58435	0.186818	-1.354958
C	-0.403741	1.113487	0.859153
N	-0.623179	2.005348	1.590271
N	-0.079175	-1.027246	-2.203008
H	-0.834835	-1.315952	-2.807706
H	0.727721	-0.815316	-2.773034
Cl	-3.532866	0.0	0.0
