12

C	0.0	0.0	0.0
C	-0.475392	0.1012	-1.475799
Cl	1.786314	0.0	0.0
H	0.113624	0.906749	-1.926754
H	-0.344919	-0.919205	0.47386
H	-0.159948	-0.828904	-1.961881
C	-0.436488	1.156521	0.777152
N	-0.757179	2.113976	1.376186
N	-1.864485	0.343656	-1.717644
H	-2.166665	1.239952	-1.357553
H	-2.504079	-0.322513	-1.292203
Cl	-4.576135	0.0	0.0
