12

C	0.0	0.0	0.0
C	-0.48174	-0.265531	-1.458782
Cl	1.787183	0.0	0.0
H	0.194458	0.30443	-2.10441
H	-0.350176	-0.765938	0.692492
H	-0.29441	-1.326772	-1.655461
C	-0.426246	1.31992	0.459203
N	-0.707589	2.413299	0.78187
N	-1.832285	0.0721	-1.789817
H	-1.988396	1.069501	-1.718801
H	-2.552182	-0.34705	-1.200122
Cl	-4.504618	0.0	0.0
