12
Coordinates from ORCA-job run
  C   -0.43889702015384      0.60137358246280     -0.28409501432759
  C   0.94018338289091      0.60971409074238      0.37071524647345
  F   -0.25280477813256      0.69670904547997     -1.66004039062920
  H   1.48494898236239      1.49944248457660      0.04441011729619
  H   -0.96967661855042      1.50755421358123      0.02595600081933
  H   0.83295265057106      0.66453468484142      1.45823058892290
  C   -1.25522289840947     -0.63352079384275      0.01311797613787
  H   -2.21968553295802     -0.56791655623285     -0.49235209724228
  H   -0.73613984896347     -1.52494538152456     -0.34303730826285
  H   -1.43104331397917     -0.73160087917993      1.08711681930909
  C   1.71952718655664     -0.57840516126425      0.02607639232263
  N   2.32685780876596     -1.54393932964004     -0.24709833081955
