12
Coordinates from ORCA-job run
  C   -0.43470220691079      0.60680322086947     -0.18690081540327
  C   1.08009239478898      0.40932907568504     -0.14534391414690
  F   -0.70004215567051      1.32020646543119     -1.35477494100798
  H   1.57192187453091      1.38303298211880     -0.21411145487593
  H   -0.74753623085207      1.23955255246438      0.64905984127180
  H   1.38752989034530     -0.18056811426009     -1.01368772304008
  C   -1.21393634058601     -0.68551374009414     -0.21396834772529
  H   -1.04513726096231     -1.26135488385513      0.69777015889701
  H   -0.91061289625567     -1.28606179210213     -1.07421842833832
  H   -2.28041842244732     -0.47322518392229     -0.29968149533372
  C   1.49727555855181     -0.26530119784706      1.08021291780291
  N   1.79756579546768     -0.80689938448805      2.07664420189975
