16

C	0.0	0.0	0.0
C	-0.219555	-0.122933	-1.5106
Br	1.947787	0.0	0.0
H	0.071157	-1.126362	-1.812415
H	0.39454	0.631428	-2.003064
C	-0.275015	1.345936	0.686612
H	0.032456	2.148748	0.011846
H	-1.327749	1.462753	0.928258
H	0.31709	1.399669	1.600905
N	-0.540265	-1.140062	0.742833
O	-0.541167	-2.247172	0.161526
O	-0.567327	-1.014206	1.987026
N	-1.583688	0.109275	-2.077495
O	-1.916489	1.284109	-2.257799
O	-2.20013	-0.867767	-2.500495
H	-1.956726	0.0	0.0
