17

C	0.0	0.0	0.0
C	-0.537453	-0.387026	-1.382397
F	1.363815	0.0	0.0
H	0.369628	-0.528549	-1.983365
H	-0.361389	-0.639355	0.806294
N	-0.364944	1.407196	0.431776
O	0.205586	2.322964	-0.158106
O	-1.163976	1.51923	1.355122
C	-1.427458	0.662224	-2.056124
H	-1.723079	0.290301	-3.040713
H	-2.346213	0.796901	-1.478244
H	-0.919198	1.615437	-2.190073
C	-1.309797	-1.703768	-1.26477
H	-2.259754	-1.509059	-0.763495
H	-1.524134	-2.101667	-2.258132
H	-0.748811	-2.465621	-0.712148
Cl	-4.382644	0.0	0.0
