17

C	0.0	0.0	0.0
C	-0.547068	-0.335059	-1.38951
F	1.363701	0.0	0.0
H	0.353161	-0.400097	-2.014894
H	-0.358117	-0.666171	0.785744
N	-0.353454	1.390643	0.482688
O	-1.082584	1.480873	1.465173
O	0.172682	2.323536	-0.119994
C	-1.484345	0.715051	-1.988261
H	-1.854065	0.342126	-2.947354
H	-2.357747	0.862966	-1.348801
H	-0.969782	1.659992	-2.163589
C	-1.248158	-1.693652	-1.326287
H	-1.483248	-2.042325	-2.335462
H	-2.189792	-1.585542	-0.780019
H	-0.619796	-2.451079	-0.845954
Cl	-4.366394	0.0	0.0
