17

C	0.0	0.0	0.0
C	-0.534402	-0.298039	-1.386896
F	1.363765	0.0	0.0
H	0.231702	0.097523	-2.064493
H	-0.37433	-0.65553	0.786855
N	-0.362895	1.404187	0.429432
O	-1.131312	1.527775	1.377009
O	0.162722	2.313258	-0.207471
C	-1.869097	0.386281	-1.673791
H	-2.282983	-0.000348	-2.608143
H	-1.733686	1.46296	-1.788027
H	-2.631302	0.213898	-0.907567
C	-0.631604	-1.81423	-1.551774
H	-0.847554	-2.064618	-2.593557
H	-1.451208	-2.203366	-0.940765
H	0.297999	-2.316353	-1.265717
Cl	-4.942824	0.0	0.0
