16
Coordinates from ORCA-job run
  C   0.56766728215294      0.12022266717092     -0.19113543218060
  C   -0.69098512559041     -0.69427396397802      0.09192004224571
  H   0.68513398978150      0.18411199965220     -1.28812988734277
  H   -0.76054049605156     -0.84258751266945      1.17507376825224
  H   -0.57071863432356     -1.68246099840518     -0.36717000917729
  C   1.79923393367888     -0.56715300822499      0.37936417228374
  H   2.71062438402351     -0.01190476997477      0.13622808684472
  H   1.71613518051745     -0.62545955751711      1.46745816561557
  H   1.90674906434033     -1.57748976657609     -0.02235936265341
  N   0.44278796667626      1.44150491440395      0.43067388590750
  H   -0.24865966930520      1.99217479344802     -0.06475815719738
  H   1.32328950141867      1.93726909661354      0.34471272802967
  C   -1.97045713759315     -0.04215513130458     -0.42416507786704
  H   -1.88815248388089      0.20080069173992     -1.48830800408152
  H   -2.19362220213023      0.87588782374632      0.12362542852303
  H   -2.82848555371455     -0.70748727812470     -0.30303034720218
