16
Coordinates from ORCA-job run
  C   0.59509624537284      0.29117330007095     -0.35789048647944
  C   -0.90443874782511      0.36537432566274     -0.04740435365490
  H   0.70936769330358     -0.06721555995418     -1.38965703083330
  H   -1.02509821052209      0.75954118414396      0.97042101492595
  H   -1.35289819617829      1.10649447722798     -0.72073169371579
  C   1.33073934197812     -0.66998576666692      0.56516507964664
  H   1.18567032867797     -0.37913676679508      1.61194297008072
  H   2.39966657299429     -0.63901641770185      0.34859104646512
  H   0.98137616203069     -1.69740022240470      0.45008982330796
  N   1.26924018743926      1.59193306421736     -0.29641375288810
  H   0.79636959845514      2.24833003580195     -0.90870335225253
  H   1.18588231219012      1.96031016656099      0.64625492646731
  C   -1.64724541834717     -0.96124738547230     -0.18768563905567
  H   -1.34159100862224     -1.67794672628470      0.57676102345117
  H   -1.45659179469085     -1.41197560405090     -1.16612933348724
  H   -2.72654506625627     -0.82023210435530     -0.09261024197790
