16
Coordinates from ORCA-job run
  C   0.64640261667122      0.27116857933855     -0.48321570002856
  C   -0.70579931007802     -0.33822723407460     -0.86149934874764
  H   1.23590068457505      0.33168927455079     -1.40623838191150
  H   -0.53868981079321     -1.34765296723743     -1.25525994036793
  H   -1.11812761719424      0.26286377827000     -1.67745089189034
  C   1.42280885891864     -0.59077508173664      0.51447621184404
  H   2.41454766114168     -0.16622690440514      0.69487900175113
  H   1.55507714745950     -1.61381908962661      0.14858885499907
  H   0.90534953179582     -0.63957516089420      1.47676616930662
  N   0.44838650372794      1.65508360104858     -0.03679821257129
  H   1.34464390689053      2.12754348127283      0.00027503780624
  H   0.08587702148539      1.65407053997258      0.91058761498615
  C   -1.71935406548351     -0.39143087695165      0.27863599223560
  H   -1.36705388072809     -0.99438402394659      1.11896834732144
  H   -2.65805223090811     -0.83269408815252     -0.06483716995557
  H   -1.95191701748059      0.61136617257204      0.64412241522254
