16
Coordinates from ORCA-job run
  C   0.74606593294086      0.24939948211662     -0.43422243317399
  C   -0.64193001500502     -0.26074428960754     -0.85663563208924
  H   1.37046133589839      0.25715196636391     -1.33651638279297
  H   -1.03534027887653      0.42152452382106     -1.62083047300036
  H   -0.52289661275219     -1.23406070759159     -1.34863627796002
  C   1.41545788539372     -0.66227685750850      0.58555345912169
  H   2.43939423919894     -0.32948285331699      0.76272993156076
  H   0.88736234995199     -0.63773341049168      1.54325900142350
  H   1.43497934732352     -1.69855189655506      0.23833133124525
  N   0.76819886919417      1.61862258551790      0.08591139736635
  H   0.30904907313416      2.24527961058068     -0.56599010162476
  H   0.25512374139120      1.66364735884222      0.95898238529235
  C   -1.65389844761867     -0.38460197789675      0.27893549290675
  H   -1.78081243545460      0.56375887068122      0.80719953026094
  H   -2.63470814607439     -0.67205518717399     -0.10687568921316
  H   -1.35550683864556     -1.14087721778151      1.00780446067693
