16
Coordinates from ORCA-job run
  C   -0.57422705010412      0.02423863146995      0.15854280258062
  C   0.91504351097454     -0.24378685774030     -0.11082609687300
  F   -0.58858740492766      1.18294391618505      0.98616365433307
  H   0.96705619010263     -1.06108725288858     -0.83567971588057
  C   -1.32734196547420      0.37689365054556     -1.10266586629625
  H   -1.37077434701443     -0.48684424821517     -1.76739545697836
  H   -2.34485148468453      0.67567262799095     -0.83988309665545
  H   -0.83345428510994      1.20308499390692     -1.60909377190248
  N   -1.15287544095386     -1.08830176071635      0.81298277640783
  H   -0.74464906370481     -1.23572117848367      1.72861467931527
  H   -2.15253769580156     -0.96846067613011      0.91327311887897
  C   1.56062375212424     -0.70794113772824      1.13640938986500
  N   2.08995068303995     -1.04175702627611      2.13062251568901
  N   1.53643596094193      0.93847782896112     -0.68355410470244
  H   2.50275763792135      0.74810813197523     -0.91784795936405
  H   1.51643100267048      1.68548035714374      0.00033713158282
