16
Coordinates from ORCA-job run
  C   -0.61705742306786     -0.08602486007740      0.30513675567642
  C   0.91353364248568      0.12758753377059      0.26525875235147
  F   -0.84215928680590     -0.37994879760451      1.66917862314449
  H   1.15455490984822      0.95468598909457      0.94917743797642
  C   -1.39979696535973      1.16498604785190     -0.01532396713727
  H   -1.21251552399755      1.49941784840987     -1.03741484834681
  H   -1.12859044707848      1.96427080733013      0.67563572934117
  H   -2.46246997601407      0.94894241537420      0.10448529996021
  N   -1.04461154338375     -1.19430612603211     -0.46483654328693
  H   -0.30965186671749     -1.88477848738382     -0.55378060864339
  H   -1.40691290284489     -0.92736219483612     -1.36721307942371
  C   1.31015510867710      0.52038064911492     -1.08960199845114
  N   1.61508645240765      0.84085641360514     -2.17680394433666
  N   1.55447894151881     -1.13701165694277      0.61475868056861
  H   1.31456190310066     -1.35501490959297      1.57482441207026
  H   2.56139497723159     -1.05668067208164      0.54651929853685
