16
Coordinates from ORCA-job run
  C   -0.60274909648098      0.01761024746061      0.33497424018811
  C   0.92810517844099     -0.09091327083501      0.44065396325630
  F   -1.01072961757098      0.65498250747166      1.52512353357216
  H   1.13238604818092     -0.65525792278713      1.36661738405155
  C   -1.06985198458443      0.86241695851452     -0.82445468733822
  H   -0.67240329819027      1.87297076485346     -0.72980229348254
  H   -0.73301072060850      0.43176504850634     -1.76533846227446
  H   -2.16093787553479      0.92176208732531     -0.81040680672110
  N   -1.12336327242069     -1.30713466657532      0.26423896639996
  H   -2.11019250362510     -1.29463348409887      0.03899754915122
  H   -1.00293051992222     -1.77641117029842      1.15502050014864
  C   1.52586962857436      1.23810972692777      0.61296594650984
  N   2.02697765752168      2.29092672912986      0.74377492211870
  N   1.44293260663706     -0.70911602549780     -0.77266530442261
  H   0.98768307043623     -1.60809408852621     -0.87844876230775
  H   2.44321469914669     -0.84798344157077     -0.70225068884980
