16
Coordinates from ORCA-job run
  C   -0.64008726545009     -0.00334583172692      0.34141633016807
  C   0.87891169503450     -0.21429927928932      0.50185710001897
  F   -1.02202428717591      0.59328589072875      1.57321873684498
  H   1.00877400597189     -0.65040552046111      1.49865670330591
  C   -1.03485882297079      0.98239553478530     -0.73739399100278
  H   -0.67145751459597      0.65599595411429     -1.71322121282675
  H   -0.64484635710651      1.97485689120823     -0.51384013746159
  H   -2.12448542164372      1.04247463115614     -0.78460241031028
  N   -1.27060793376808     -1.25019484380853      0.13549444474119
  H   -2.27432811986671     -1.16260380776934      0.22900125886911
  H   -0.92326683379849     -1.96714763053169      0.75850469567154
  C   1.56154480270711      1.09536885996537      0.51548982320221
  N   2.15478413695960      2.10859944738105      0.48018881960542
  N   1.40872731855118     -1.15413233883227     -0.47306405823475
  H   1.17582791741810     -0.85788920102626     -1.41295347843438
  H   2.41839267973391     -1.19395875589368     -0.39975262415688
