16
Coordinates from ORCA-job run
  C   -0.57916727093760     -0.04827966546239      0.32858149343407
  C   0.93627956098463      0.21571939076381      0.42950772515306
  F   -1.03986170332758     -0.26354190557119      1.61431390048951
  H   1.07713362472235      1.12780956925987      1.01920717937175
  C   -1.34043231487589      1.14057085352476     -0.22673427420453
  H   -1.04410199824313      1.35604146652984     -1.25474251971466
  H   -2.40841063451164      0.91410237390244     -0.20804019268431
  H   -1.16426309388823      2.02710887545535      0.38663913915808
  N   -0.77141707818791     -1.29978282225206     -0.37761541848784
  H   -0.72007750185352     -1.15293388609358     -1.37929511475278
  H   -1.69207138582083     -1.65969424035433     -0.15456114902183
  C   1.43739693070393      0.46919412941692     -0.93959482368819
  N   1.84399156918063      0.61909666297197     -2.03218518631757
  N   1.58137939963848     -0.89302797675838      1.10213641719870
  H   2.58822271190521     -0.80307075243361      1.05287900276868
  H   1.29639918451111     -1.74931207289941      0.64050382129784
