16
Coordinates from ORCA-job run
  C   -0.62436288114063      0.03921285884723      0.49575001603375
  C   0.89573418446889     -0.19986061382668      0.47870581672330
  F   -0.87306913963922      0.75730930086469      1.66697843158892
  H   1.10197717891636     -0.76410045904357      1.39288200139257
  C   -1.11767808091386      0.90517857256453     -0.64841825584955
  H   -0.96027039170814      0.40378559259635     -1.60576645150189
  H   -2.19012011745600      1.07214128740559     -0.52241313062321
  H   -0.62194369255475      1.87790209961519     -0.65507029216861
  N   -1.24337457843123     -1.24295141538989      0.61560392127295
  H   -0.77159804851011     -1.89307760410245     -0.00166187071809
  H   -2.22491519096532     -1.19896489597340      0.37204874105074
  C   1.61938318525573      1.08029218603100      0.55144087294036
  N   2.22603287661167      2.08578718932721      0.53518166414154
  N   1.26821658151237     -1.02460687006473     -0.66653677559291
  H   1.33879498923741     -0.45357345765851     -1.50083759779501
  H   2.17619312531681     -1.44447377119255     -0.51088709089487
