16
Coordinates from ORCA-job run
  C   -0.65232608586435     -0.00830078050093      0.31732435447876
  C   0.86242099236966     -0.22833527635518      0.49208311770100
  F   -1.01262580542595      0.74128899544422      1.47057584111498
  H   0.98280427112443     -0.80457803303736      1.41653335261449
  C   -1.01172297964397      0.84236148782289     -0.87995721287382
  H   -0.50502351163108      1.80707432719862     -0.83304084503748
  H   -0.75471915395603      0.32410210865460     -1.80435846775767
  H   -2.08839663670339      1.02681825981899     -0.87756154662545
  N   -1.32386160136073     -1.24916234320817      0.27758744946601
  H   -2.32585673977486     -1.11146319933623      0.24388414593316
  H   -1.09156095183266     -1.82811440879260      1.07423277246307
  C   1.52207721876861      1.07697654376986      0.70814585213390
  N   2.10333200675585      2.09278032682971      0.80764976648014
  N   1.43729863839750     -0.99598121940491     -0.59884964911342
  H   1.46796051495335     -0.43482516029667     -1.44162223221264
  H   2.39119982382359     -1.24964162860684     -0.37162669876504
