16
Coordinates from ORCA-job run
  C   -0.54720228130802      0.05673361938752      0.25778619335538
  C   0.95818894066005     -0.19376968782184     -0.03376744866558
  F   -0.55602778642256      1.16556593626577      1.11244255919604
  H   1.01686702255704     -1.01458027855407     -0.75815395672594
  C   -1.30974546815402      0.43257375651604     -0.99402618289569
  H   -0.89557909586549      1.33889774247602     -1.43456291881401
  H   -1.27628978576353     -0.37052000736674     -1.73495456993839
  H   -2.34769470940438      0.62350558955086     -0.72103624902002
  N   -1.21692385209188     -1.00284748834341      0.94096977523879
  H   -0.66844804431064     -1.37599027340589      1.70590274860248
  H   -1.49518182419635     -1.74500646347665      0.31531500940503
  C   1.59771703303022     -0.66576399788716      1.20562312004790
  N   2.05870586128777     -1.05082975595987      2.21401809881605
  N   1.71378846223947      0.93139804538603     -0.55748017688324
  H   1.51558950545016      1.75453595234630     -0.00139726769740
  H   1.45223602229214      1.11609731088709     -1.51667873402137
