16
Coordinates from ORCA-job run
  C   -0.57521007608277      0.01794297224130      0.43071231896071
  C   0.95775572423992     -0.08836820042326      0.43265371755489
  F   -0.93060373697137      0.56062675010411      1.66194342561564
  H   1.20891021350145     -0.58373378144600      1.38097873502839
  C   -1.11795596390714      0.90609586521545     -0.66453551722685
  H   -0.76985978529599      1.93183603882717     -0.53572154876054
  H   -2.20907722479059      0.89772061265131     -0.62723392835378
  H   -0.77926865681561      0.53669583222962     -1.63298187751620
  N   -1.08090861467699     -1.34668070928087      0.41205627774038
  H   -1.85318427940292     -1.40037599957649      1.06590192074096
  H   -1.43837183550994     -1.56769881071094     -0.51001328811068
  C   1.58756866207628      1.23424049624374      0.42690007057038
  N   2.09702576765411      2.29163093355187      0.41096833803149
  N   1.35485185640709     -0.85000910254273     -0.75091470264148
  H   2.33626742961269     -0.70779913156658     -0.95385114362960
  H   1.21006051996179     -1.83112376551770     -0.54486279800372
