16
Coordinates from ORCA-job run
  C   -0.61386486802265     -0.03558104241894      0.15962579231062
  C   0.91226242095219      0.07876683811272      0.29886865127477
  F   -1.02376656495500     -0.40928940513667      1.48278881252410
  H   1.10435230546158      0.85032744215397      1.05868190952010
  C   -1.29261779183515      1.27947496113042     -0.13719304194427
  H   -0.98928404960101      1.65131872128668     -1.11592552696315
  H   -2.37537958110153      1.13531159885921     -0.13415955553707
  H   -1.04721771051256      2.01527285295212      0.63037408435251
  N   -0.92409362248026     -1.02542395451040     -0.78724408654049
  H   -0.40012079841462     -1.87221640594048     -0.60392156296388
  H   -1.91677309519992     -1.20948484610945     -0.83406607611524
  C   1.50689051085555      0.53242310572046     -0.96053617661070
  N   2.01535993795180      0.92004771639100     -1.94446162411677
  N   1.44233691914508     -1.23652704943772      0.65578680570513
  H   1.14653629355097     -1.44667808837595      1.60170673875337
  H   2.45437969420553     -1.22774244467697      0.63067485635096
