16
Coordinates from ORCA-job run
  C   -0.59738084314523      0.18959863267047      0.19237120372599
  C   0.84335540680624     -0.32292386970885     -0.04318733864667
  F   -0.42283701778272      1.35766289202288      0.94784313192850
  H   0.77405108067489     -1.19024494205366     -0.70848937290349
  C   -1.27444407579026      0.56529460620789     -1.10556251050935
  H   -1.42450745922400     -0.31612670198812     -1.73450228216284
  H   -2.24365752559852      1.00634091434215     -0.87162086951619
  H   -0.66019282302378      1.27976960449326     -1.64908489164602
  N   -1.42836838793121     -0.67864048778775      0.95991860540666
  H   -0.95495736925404     -1.06128964140948      1.76877761836877
  H   -1.82898789391270     -1.41771864480547      0.40134007570007
  C   1.40178911865333     -0.79510461950176      1.24238412602228
  N   1.86016105514586     -1.15007978976930      2.26428153699858
  N   1.64588396258784      0.69791146685918     -0.69484397396949
  H   1.73707592285118      1.49108029141823     -0.07140986236449
  H   2.57301684894310      0.34547028901033     -0.89821519643231
