16
Coordinates from ORCA-job run
  C   -0.50507017918716      0.19319342107617      0.21517727597450
  C   0.96364926181338     -0.27937864738770      0.15372647338585
  F   -0.46252917316724      1.56318098656455      0.49386958930713
  H   0.96937903617048     -1.35348194839438     -0.06892459537965
  C   -1.21926610018908      0.06473503172968     -1.11887941819360
  H   -2.23312855830743      0.45753969598985     -1.01211719207159
  H   -0.72388905794343      0.64335971020930     -1.89940813273230
  H   -1.28272413825590     -0.98253548282927     -1.42392989004595
  N   -1.15147920217370     -0.44323094056453      1.32155922197780
  H   -0.93318641007598     -1.42933074888971      1.37572661630138
  H   -2.15630714750444     -0.32755538704688      1.28359766837668
  C   1.58593101506990     -0.09869770796208      1.47524552869344
  N   2.12211822578459      0.05664465557802      2.50689909834721
  N   1.79882697567625      0.38383335072661     -0.83336254264201
  H   1.74182647131625      1.38657909951453     -0.69812255673125
  H   1.48484898097350      0.16514491168584     -1.77005714456764
