16
Coordinates from ORCA-job run
  C   -0.56877739001916     -0.04493735932826      0.34673044238856
  C   0.95956779360720      0.14810415720649      0.40575403737072
  F   -0.99244052173092     -0.32226988354646      1.63328537750269
  H   1.16118557083197      1.01420859118536      1.04503344940089
  C   -1.29576330090639      1.20812029937104     -0.10346175926349
  H   -2.37144939692405      1.02539784003474     -0.05917808618136
  H   -1.05959316398789      2.04471423288634      0.55820417574633
  H   -1.02629554161460      1.47770491269340     -1.12618340403118
  N   -0.84143404538008     -1.23962265528467     -0.42781646170403
  H   -0.81603324039065     -1.03245141923956     -1.41983883576837
  H   -1.76981922648565     -1.57243087878115     -0.19477368551141
  C   1.42249701915617      0.46780295640326     -0.96298099789083
  N   1.79630389969705      0.67014870589584     -2.05874665393481
  N   1.57836242980710     -1.02724314141336      0.98296457703672
  H   1.23705108468176     -1.83990927225849      0.48241638775009
  H   2.58563802965812     -0.97833708582452      0.89859143708946
