16
Coordinates from ORCA-job run
  C   -0.57693387647567     -0.00192074556955      0.34571714440975
  C   0.94928536724304     -0.12782137045342      0.54440067488703
  F   -1.04271015886755      0.69241675968066      1.48353680737749
  H   1.08970237099607     -0.66648994677944      1.49101314706280
  C   -0.97531685287219      0.80608051374004     -0.86658611352931
  H   -2.06280017960052      0.90713364967734     -0.89031769252231
  H   -0.54486571310127      1.80633274649933     -0.81002865904231
  H   -0.65013571020193      0.31657546390099     -1.78455927481969
  N   -1.11514499425673     -1.31798491882069      0.29179197261063
  H   -2.09737318846513     -1.29954465357053      0.04739750475111
  H   -1.01547983887299     -1.77630182815291      1.19068350023618
  C   1.54314636327863      1.20185990142748      0.71559405631143
  N   2.00925867734412      2.27476364966087      0.80672893081255
  N   1.65419438145810     -0.85011443348641     -0.50277812956856
  H   1.71694068955962     -0.28267371899159     -1.33920190453246
  H   1.11823266283439     -1.68231106876215     -0.72239196444433
