16
Coordinates from ORCA-job run
  C   -0.64308111369777     -0.00011838024846      0.24958719984965
  C   0.88379743304845      0.09491509983499      0.43505771632464
  F   -1.15602591176054     -0.06250060179154      1.56809199947708
  H   1.04551547930362      0.77140796473134      1.27908909298487
  C   -1.25006994844820      1.22841246833200     -0.38906257453636
  H   -2.33812151743659      1.15755068000509     -0.32349424192978
  H   -0.95625799533573      1.31247984151377     -1.43464912677467
  H   -0.93982054568394      2.12690956558386      0.14755929394667
  N   -0.94825090194734     -1.17990958569909     -0.47266791023615
  H   -0.69388272513629     -1.98323542881775      0.09060953980081
  H   -1.93642281089699     -1.22525932796107     -0.68755646751007
  C   1.51764542652487      0.68917010450373     -0.75554785761830
  N   2.05718686819390      1.12445776806067     -1.70386049890122
  N   1.43019376596687     -1.21346847425939      0.77616670861435
  H   1.63359729698472     -1.72962355999849     -0.07170343149481
  H   2.29399720032096     -1.11018813378968      1.29238055800329
