16
Coordinates from ORCA-job run
  C   -0.60919174276712      0.07112717751877      0.43424373267119
  C   0.92549991855850     -0.12596963952713      0.53649730432851
  F   -0.93300209312882      0.78973417131116      1.59053750762172
  H   1.09241976330104     -0.63729031381904      1.49355612413253
  C   -1.04144004617380      0.89562833887576     -0.75668977629281
  H   -0.59688794225656      1.88945241441343     -0.70287992308315
  H   -0.74874735927341      0.42485897775996     -1.69770027255250
  H   -2.12735914878370      0.99700136134545     -0.73526009260156
  N   -1.32068971064530     -1.16179762893697      0.47724538763004
  H   -1.56971535115857     -1.53164690009822     -0.42572558945404
  H   -0.90321856651883     -1.86459449409363      1.07079382701111
  C   1.60086759131337      1.17362897964207      0.61503200218175
  N   2.12056045411764      2.22571089758639      0.62835750768697
  N   1.54334209929105     -0.91801949915556     -0.51525319477145
  H   1.51234156121983     -0.42787312989050     -1.40042334592530
  H   1.05622057290470     -1.79995071293195     -0.61233119858301
