16
Coordinates from ORCA-job run
  C   -0.57192019895719      0.07394210168519      0.15218041659985
  C   0.88678807680257     -0.33031828082319     -0.11389667200913
  F   -0.48356625163553      1.17341743483972      1.05303001402275
  H   0.86849067083560     -1.10119812774399     -0.88942499723201
  C   -1.25877294571053      0.58228089101586     -1.09360880228479
  H   -1.37514749715078     -0.22778550155762     -1.81472795450242
  H   -2.24632301059165      0.96594001704610     -0.82663055300445
  H   -0.67322551742326      1.38455827778542     -1.53678035165237
  N   -1.27543953753076     -1.01119491825729      0.72508824303636
  H   -2.25901235377976     -0.79387714625879      0.82027167878311
  H   -0.90268349828353     -1.25867270545677      1.63415921773221
  C   1.45627738943999     -0.93737366637141      1.10877541253671
  N   1.92886110502932     -1.38735022304418      2.08565479762592
  N   1.63835580485993      0.81437756560957     -0.60027782417441
  H   1.68359401260101      1.51412455979736      0.13072515803416
  H   2.58372375149455      0.53912972173402     -0.83553778351150
