16
Coordinates from ORCA-job run
  C   -0.54888518863653      0.16514630370689      0.20117437199085
  C   0.93197470990824     -0.28774846915954      0.07380762140894
  F   -0.47548791927336      1.43018077912360      0.79641572531419
  H   0.93388483145966     -1.24776994545626     -0.45551554181462
  C   -1.20749050895498      0.32844882043342     -1.15134415617040
  H   -1.22729429815498     -0.61724811290974     -1.69944922425699
  H   -0.67723861171905      1.07184856356956     -1.74573967784795
  H   -2.23009448246790      0.67346272112266     -0.99760833073947
  N   -1.36118842609831     -0.64841902692936      1.04762968434306
  H   -1.69054515503096     -1.47919874236301      0.57719131434087
  H   -0.89198861772531     -0.89630772894440      1.91008238459356
  C   1.45721413147718     -0.53970172163959      1.42597362502713
  N   1.82455137855270     -0.74051896834872      2.52248430894644
  N   1.82965303687590      0.61821524062131     -0.62213826803186
  H   1.63673408200602      0.61252076559808     -1.61468905034724
  H   1.69520103778166      1.55808952157509     -0.26927478675651
