16
Coordinates from ORCA-job run
  C   -0.56680369713032     -0.03784955482938      0.15972690054917
  C   0.93786075637360      0.13340747163316      0.44994433502858
  F   -1.09869230590989     -0.43344359151006      1.42333615051791
  H   1.01011369676683      0.85055369925735      1.27530930654395
  C   -1.25010828244173      1.25462437489028     -0.21813985869021
  H   -2.33025321038599      1.09496796774623     -0.25597391775939
  H   -1.04952829695454      2.01952522826493      0.53375952001933
  H   -0.90443400656057      1.60258928686489     -1.19134796526722
  N   -0.77413704632508     -1.04168218034949     -0.81438895032547
  H   -0.46445738003146     -1.94343304693617     -0.47665332206379
  H   -1.75055392348527     -1.10873768478900     -1.07081132458451
  C   1.60372234622273      0.72204528031545     -0.71646655410794
  N   2.12582821409252      1.19695921680227     -1.65370406267072
  N   1.64088723597020     -1.07295600894659      0.85657561105632
  H   1.73452012853331     -1.71910904945574      0.08318907503431
  H   1.13703577126565     -1.51646140895815      1.61464505671969
