16
Coordinates from ORCA-job run
  C   -0.68287013534658      0.09899303334316      0.40788054810781
  C   0.85032811504937     -0.09377014579618      0.47632590539383
  F   -1.00154929868520      0.76239998073175      1.59210573467388
  H   1.05509754677374     -0.54934191239807      1.45779553306096
  C   -1.11894210175069      0.94627281836129     -0.76235659723785
  H   -0.74874523179988      0.52141246786617     -1.69591985605431
  H   -0.72835327118977      1.95828261521048     -0.65394397902009
  H   -2.20843298712206      0.98624320158556     -0.77687581484581
  N   -1.39320888077502     -1.14342842571949      0.41945346493041
  H   -1.38673710834690     -1.57791770498974     -0.49262475218362
  H   -1.03329429219758     -1.78417399810981      1.11636138056003
  C   1.54346266133137      1.19590835188594      0.44994204084168
  N   2.10985459008994      2.22308569702737      0.40453205827556
  N   1.28396448085312     -0.91549806630472     -0.65611343646467
  H   2.25463542761724     -0.73411190498335     -0.87807162317914
  H   1.20479048549891     -1.89335600771034     -0.40849060685867
