16
Coordinates from ORCA-job run
  C   -0.62093143179397     -0.02342776954604      0.22791850729622
  C   0.91218738270630      0.09302756048534      0.45113136137458
  F   -1.09136269058160     -0.41362243409888      1.48946883399690
  H   1.07026332744500      0.88058062341490      1.19698523357724
  C   -1.25695213246373      1.30191449328759     -0.12054787210905
  H   -1.02497537064363      2.04048951681196      0.64845515371260
  H   -2.33790898714714      1.16693345238588     -0.16656306789072
  H   -0.90035835752432      1.67364741267045     -1.08327588903599
  N   -1.02875093429297     -1.03527869379732     -0.69348060440868
  H   -0.51914774989341     -1.89859520924502     -0.55715475442286
  H   -0.93520473173266     -0.72936896765698     -1.65234216610207
  C   1.53641575331211      0.51638993358862     -0.80549013908937
  N   1.97938142065774      0.82782659592600     -1.84697291863115
  N   1.56471808546283     -1.11081000608444      0.94166943095553
  H   1.05182990595459     -1.46062482605347      1.74182300870311
  H   1.59979651053488     -1.82908168208859      0.22937588207369
