18

C	0.042618	0.095094	-0.005703
C	-0.492714	-0.248032	-1.39637
F	1.449351	-0.100795	-0.006711
H	-1.566984	-0.034695	-1.365486
C	-0.089778	1.556021	0.265324
N	-0.209657	2.697369	0.518044
N	-0.537349	-0.712519	0.990252
H	-1.50287	-0.982283	0.758062
H	-0.513014	-0.280421	1.903331
C	-0.318784	-1.740799	-1.670672
H	-0.616851	-1.954359	-2.701367
H	0.725061	-2.036717	-1.538292
H	-0.953081	-2.332181	-1.012789
C	0.184648	0.59808	-2.470857
H	-0.239668	0.356678	-3.449089
H	1.257861	0.3944	-2.502744
H	0.042902	1.66872	-2.300699
Cl	-3.575297	-1.382623	0.131906
