13

C	-0.518078	-0.030461	-1.451556
C	0.0	0.0	0.0
Cl	0.079882	1.409952	-2.337023
H	1.093521	0.0	0.0
H	-0.351386	0.938653	0.440015
C	-0.082998	-1.242406	-2.150439
N	0.232666	-2.21087	-2.7366
C	-1.985683	0.011007	-1.450012
N	-3.157302	0.076067	-1.394518
N	-0.512526	-1.184754	0.670835
H	0.262284	-1.710517	1.051242
H	-1.150511	-0.950598	1.416836
Cl	3.37061	0.0	0.0
