13

C	-0.500623	-0.004687	-1.45124
C	0.0	0.0	0.0
Cl	-2.315688	-0.116092	-1.453452
H	1.093753	0.0	0.0
H	-0.345312	-0.935938	0.452939
C	-0.14764	1.233076	-2.147538
N	0.115344	2.227333	-2.714119
C	-0.006994	-1.166677	-2.193804
N	0.368456	-2.107874	-2.787654
N	-0.482249	1.195117	0.668011
H	0.300213	1.652852	1.114156
H	-1.179447	0.981747	1.36477
Cl	3.3489	0.0	0.0
