13

C	-0.492426	-0.005039	-1.453947
C	0.0	0.0	0.0
Cl	-2.309743	0.075505	-1.467501
H	1.093762	0.0	0.0
H	-0.346863	0.940269	0.445247
C	-0.015299	1.16573	-2.193143
N	0.363494	2.104719	-2.78947
C	-0.115962	-1.236089	-2.148949
N	0.162878	-2.229081	-2.709577
N	-0.472878	-1.196652	0.667247
H	-1.257186	-1.006832	1.275577
H	0.285444	-1.589095	1.209716
Cl	3.360253	0.0	0.0
