13

C	-0.499996	-0.006745	-1.452218
C	0.0	0.0	0.0
Cl	-2.314746	0.099448	-1.45612
H	1.093702	0.0	0.0
H	-0.34687	0.938849	0.445735
C	-0.008424	1.150938	-2.201897
N	0.374954	2.083367	-2.804909
C	-0.142801	-1.248514	-2.139616
N	0.121056	-2.248286	-2.696117
N	-0.479795	-1.191812	0.674934
H	0.301247	-1.63726	1.136328
H	-1.190608	-0.97826	1.358536
Cl	3.348027	0.0	0.0
