14

C	0.0	0.0	0.0
C	-0.548154	-0.229171	-1.398272
F	1.348334	0.0	0.0
H	-0.495195	0.740564	-1.899707
H	-1.619335	-0.456299	-1.230287
N	-0.571146	1.126559	0.572939
H	-0.34782	1.129315	1.562045
H	-1.609642	0.916091	0.44326
N	-0.285016	-1.288488	0.862061
O	-0.519444	-2.350053	0.29869
O	-0.183649	-1.139671	2.077946
C	0.184421	-1.207376	-2.186834
N	0.769535	-1.949356	-2.883786
F	-2.802185	0.0	0.0
