14

C	0.0	0.0	0.0
C	-0.475931	-0.077832	-1.4606
F	1.367621	0.0	0.0
H	-0.936888	0.883772	-1.681842
H	0.427446	-0.188891	-2.069962
N	-0.534532	1.078585	0.672519
H	-0.300804	0.996604	1.655539
H	-1.586596	0.85766	0.527409
N	-0.243947	-1.367814	0.730306
O	-0.514662	-1.324958	1.925241
O	-0.020319	-2.391206	0.089695
C	-1.409677	-1.1245	-1.873494
N	-2.045423	-1.920782	-2.456037
F	-2.65119	0.0	0.0
