16

C	-0.482136	-0.011729	-1.446527
C	0.0	0.0	0.0
Br	0.436106	-1.472242	-2.393883
H	1.094168	0.0	0.0
C	-1.974946	-0.161221	-1.644899
H	-2.216994	-0.195363	-2.706633
H	-2.48261	0.690848	-1.180787
H	-2.308234	-1.080744	-1.162845
N	-0.034567	1.280231	-2.12591
O	-0.481263	1.48387	-3.253628
O	0.747613	2.001583	-1.518076
C	-0.427549	-1.217109	0.668712
N	-0.720145	-2.212495	1.223837
C	-0.512354	1.149288	0.721442
N	-0.903587	2.074779	1.334677
H	2.442719	0.0	0.0
