16

C	-0.320062	-0.005203	-1.485517
C	0.0	0.0	0.0
Br	0.227759	1.702295	-2.254699
H	1.097916	0.0	0.0
C	0.404408	-1.137	-2.174097
H	0.001936	-2.092234	-1.825609
H	0.290574	-1.069674	-3.254161
H	1.457067	-1.057895	-1.875054
N	-1.826121	-0.100271	-1.771903
O	-2.598986	0.11101	-0.842893
O	-2.151012	-0.389361	-2.920204
C	-0.422384	-1.2455	0.614501
N	-0.699112	-2.285045	1.091437
C	-0.472756	1.148195	0.748749
N	-0.759407	2.089282	1.393406
H	2.48813	0.0	0.0
