13

C	-0.423462	-0.13176	-1.45669
C	0.0	0.0	0.0
Cl	-0.502497	-1.910069	-1.919726
H	1.098013	0.0	0.0
H	-1.449959	0.204315	-1.614745
H	-0.298273	1.017841	0.284378
N	0.465841	0.543982	-2.338113
H	1.41006	0.55436	-1.966059
H	0.149564	1.471026	-2.578167
N	-0.660864	-0.932314	0.912603
H	-0.342779	-0.702102	1.846877
H	-0.294443	-1.856958	0.717588
Cl	3.557734	0.0	0.0
