13

C	-0.578636	-0.000183	-1.405981
C	0.0	0.0	0.0
Cl	-0.210016	-1.596641	-2.201622
H	1.092071	0.0	0.0
H	-1.676441	-0.012112	-1.344838
H	-0.335471	-0.907383	0.515733
N	-0.051627	1.076576	-2.176067
H	0.152394	1.841232	-1.540314
H	-0.703209	1.379879	-2.88892
N	-0.424887	1.241133	0.667306
H	-1.271446	1.093557	1.202465
H	0.306118	1.522025	1.308576
Cl	3.610179	0.0	0.0
