13

C	-0.563149	-0.081393	-1.400426
C	0.0	0.0	0.0
Cl	0.089086	1.325585	-2.388684
H	1.091344	0.0	0.0
H	-0.186316	-0.97422	-1.895324
H	-0.335943	0.947904	0.454117
N	-1.993057	-0.096528	-1.38013
H	-2.362105	-0.215255	-2.315148
H	-2.329004	0.791894	-1.025292
N	-0.431567	-1.200456	0.714961
H	0.185601	-1.346633	1.503255
H	-1.382598	-1.100357	1.043573
Cl	3.599081	0.0	0.0
