13

C	-0.518563	0.019627	-1.421763
C	0.0	0.0	0.0
Cl	-0.145224	1.549783	-2.267321
H	1.093117	0.0	0.0
H	0.010869	-0.751121	-1.994183
H	-0.30014	-0.992662	0.394249
N	-1.972877	-0.139359	-1.426183
H	-2.312923	-0.094139	-2.380001
H	-2.178483	-1.068985	-1.071974
N	-0.51485	1.117886	0.769641
H	-0.046468	1.14995	1.667072
H	-1.513109	1.013293	0.910342
Cl	3.637066	0.0	0.0
