13

C	-0.555179	-0.001179	-1.415592
C	0.0	0.0	0.0
Cl	-0.132074	1.556478	-2.221866
H	1.096194	0.0	0.0
H	-0.031898	-0.754477	-2.016471
H	-0.37586	0.892931	0.504914
N	-1.986429	-0.150907	-1.37773
H	-2.335884	-0.474994	-2.270738
H	-2.162495	-0.853387	-0.66478
N	-0.513778	-1.202986	0.698247
H	-0.543381	-1.000966	1.690032
H	0.18526	-1.931272	0.590901
Cl	3.585219	0.0	0.0
