13

C	-0.578204	-0.041187	-1.398243
C	0.0	0.0	0.0
Cl	-0.039718	1.485935	-2.309728
H	1.096195	0.0	0.0
H	-0.12902	-0.84257	-1.982998
H	-0.336247	-0.926224	0.478637
N	-1.992089	-0.162409	-1.342178
H	-2.415964	-0.014657	-2.248067
H	-2.327939	0.533711	-0.684979
N	-0.594332	1.131184	0.733972
H	-0.420099	0.982424	1.720682
H	-0.064391	1.958833	0.481803
Cl	3.599865	0.0	0.0
