15

C	0.0	0.0	0.0
C	-0.558025	-0.280185	-1.408348
F	1.380067	0.0	0.0
H	-1.668715	-0.212933	-1.287159
C	-0.395323	1.365834	0.405648
N	-0.569589	2.473291	0.755801
C	-0.467566	-1.03385	1.004283
H	-0.072862	-0.767016	1.986043
H	-0.076792	-2.011355	0.714778
H	-1.558602	-1.045187	1.028548
C	-0.191519	-1.625484	-1.852418
N	0.102107	-2.707762	-2.20102
C	-0.09319	0.708447	-2.381813
N	0.283132	1.495787	-3.167508
Br	-3.691539	0.0	0.0
