15

C	0.0	0.0	0.0
C	-0.439268	0.430766	-1.443778
F	1.383673	0.0	0.0
H	0.521615	0.603095	-1.950206
C	-0.389757	1.001516	1.00753
N	-0.53622	1.814899	1.842234
C	-0.417645	-1.401517	0.398009
H	-0.003523	-2.105507	-0.327256
H	-1.504382	-1.472341	0.424442
H	0.007392	-1.612134	1.381787
C	-1.156589	1.704855	-1.536818
N	-1.529474	2.802956	-1.726052
C	-1.09161	-0.638967	-2.202501
N	-1.409637	-1.52484	-2.90483
Br	-3.481882	0.0	0.0
