15

C	0.0	0.0	0.0
C	-0.559968	-0.236359	-1.414924
F	1.380268	0.0	0.0
H	-1.670452	-0.172011	-1.283751
C	-0.395347	1.353143	0.442262
N	-0.582084	2.464702	0.7719
C	-0.461656	-1.069391	0.969649
H	-1.552574	-1.108102	0.976793
H	-0.040524	-2.028544	0.6617
H	-0.090791	-0.820498	1.96557
C	-0.197491	-1.567443	-1.901061
N	0.080524	-2.638881	-2.293091
C	-0.099153	0.783565	-2.35763
N	0.263183	1.604346	-3.1155
Br	-3.688542	0.0	0.0
