15

C	0.0	0.0	0.0
C	-0.562521	-0.236922	-1.413771
F	1.380339	0.0	0.0
H	-1.673288	-0.173621	-1.282278
C	-0.397102	1.352315	0.442375
N	-0.594454	2.461856	0.772839
C	-0.463413	-1.065721	0.972545
H	-0.064716	-0.831295	1.961001
H	-0.070358	-2.03226	0.650822
H	-1.554116	-1.08394	1.001957
C	-0.200228	-1.567837	-1.901695
N	0.079841	-2.638857	-2.293802
C	-0.10187	0.782281	-2.35759
N	0.271125	1.595117	-3.118661
Br	-3.691722	0.0	0.0
