15

C	0.0	0.0	0.0
C	-0.556477	-0.235525	-1.416963
F	1.380098	0.0	0.0
H	-1.667307	-0.175564	-1.289858
C	-0.394533	1.352821	0.442799
N	-0.585548	2.463781	0.772006
C	-0.462405	-1.072545	0.965835
H	-0.029283	-2.027718	0.660618
H	-1.552919	-1.120171	0.961878
H	-0.104804	-0.821344	1.966056
C	-0.186405	-1.56412	-1.90499
N	0.100096	-2.631974	-2.300785
C	-0.095276	0.787839	-2.356043
N	0.267981	1.610397	-3.11168
Br	-3.683093	0.0	0.0
