10
Coordinates from ORCA-job run
  C   0.48821467401498     -0.53247650604721      0.18091282757638
  C   -0.45290679484383      0.59676407629733     -0.26154574657116
  Br  -0.04407017218569     -1.23705473124147      1.91681557058767
  H   -0.45855580105224      1.38758518389418      0.49256664808523
  H   0.43188982937053     -1.37258489947901     -0.51397153860971
  H   -0.07506892018707      1.02549445488612     -1.19565184256461
  C   1.86072604102084     -0.04818800006228      0.24730613005300
  N   2.95877354417749      0.36864020926729      0.27449238878981
  C   -1.81243597417184      0.10792959448974     -0.47537250031665
  N   -2.89756642614317     -0.29610938200469     -0.66355193702998
