10
Coordinates from ORCA-job run
  C   0.56306434738996     -0.65630000941814      0.15006820361393
  C   -0.69484522410725     -0.17092752375308     -0.58059459513567
  Br  0.12490935591726     -1.27191266608237      1.94465246624346
  H   -0.42115244567832      0.09492816474519     -1.60744953610656
  H   0.96780321945138     -1.52529730116605     -0.37245913046299
  H   -1.41961741818592     -0.98800535012784     -0.62364375185514
  C   1.58278236357641      0.38204081384872      0.21522241050598
  N   2.40057373617936      1.22536961514325      0.23104384476181
  C   -1.30576318938265      0.98756016749142      0.06602893361413
  N   -1.79775474516023      1.92254408931890      0.57613115482106
