17

C	-0.472303	-0.00847	-1.464507
C	0.0	0.0	0.0
Br	0.288999	1.537888	-2.390304
H	1.09376	0.0	0.0
N	0.155206	-1.265276	-2.116719
O	1.37333	-1.338096	-2.102638
O	-0.618663	-2.127813	-2.519299
N	-1.85899	-0.038294	-1.766758
H	-2.32303	0.79158	-1.427032
H	-2.286626	-0.878466	-1.396669
C	-0.467607	-1.244247	0.585573
N	-0.883972	-2.247728	1.049925
C	-0.536057	1.179724	0.802266
H	-1.630629	1.18722	0.836672
H	-0.182577	2.122077	0.380265
H	-0.170876	1.111939	1.830077
Br	2.750599	0.0	0.0
