17

C	-0.289767	-0.210936	-1.504493
C	0.0	0.0	0.0
Br	-0.261005	-2.117945	-1.949072
H	1.105496	0.0	0.0
N	-1.710292	0.289575	-1.772069
O	-1.831915	1.30397	-2.456894
O	-2.620684	-0.294615	-1.199005
N	0.607001	0.462438	-2.372176
H	1.558346	0.31833	-2.030721
H	0.398034	1.452741	-2.396026
C	-0.55213	-1.005321	0.892227
N	-1.016989	-1.756563	1.667445
C	-0.415586	1.403422	0.457557
H	-1.501771	1.52016	0.496598
H	-0.006949	1.575066	1.454646
H	0.011194	2.15826	-0.204895
Br	3.421722	0.0	0.0
