17

C	0.0	0.0	0.0
C	-0.634019	-0.066602	-1.373537
Br	1.955877	0.0	0.0
H	-1.737203	-0.130048	-1.083012
H	-0.281494	0.981962	0.387821
C	-0.479026	-1.058654	0.974714
H	-1.576575	-1.023442	0.935027
H	-0.13259	-0.817718	1.983148
H	-0.121222	-2.049057	0.699055
N	-0.272692	-1.312453	-2.088422
O	-0.653213	-2.382263	-1.604954
O	0.370251	-1.228619	-3.143074
C	-0.370134	1.147264	-2.233796
H	-0.787656	2.017595	-1.720891
H	-0.87024	1.048678	-3.198387
H	0.695588	1.301308	-2.411881
H	-3.122179	0.0	0.0
