13
Coordinates from ORCA-job run
  C   0.88554024453079     -0.55324360492990      0.45296713043809
  C   -0.21606094157939     -0.04029573122372     -0.46365577064605
  Br  0.31902969028004     -0.77766572399051      2.29588819706995
  H   0.08995659415700     -0.12432038115589     -1.50804058091457
  H   1.13462237752582     -1.55805762867960      0.10286403648054
  C   2.06240558751429      0.29705730614702      0.35396621492002
  N   3.02490115143363      0.95907794861130      0.22840534859398
  N   -0.61255144280686      1.38897638119843     -0.25564404732295
  O   -1.27330640342959      1.86187532821034     -1.17392671880218
  O   -0.26451805522747      1.94434960871992      0.77897243730649
  N   -1.43856285022117     -0.91169875760023     -0.30898263280368
  O   -1.25781144438114     -2.07224552419553     -0.65564585173454
  O   -2.45264450779595     -0.41380922111163      0.15383223741489
