13
Coordinates from ORCA-job run
  C   0.95263164610116     -0.53972856582395      0.23530622761427
  C   -0.41053530226108      0.12128698056735      0.24563627140127
  Br  0.95353183245734     -1.97549292004742      1.54825722780025
  H   -0.69448022648451      0.54533690076079      1.20647582318061
  H   1.12926395411577     -0.98891277426223     -0.74202137636104
  C   1.98309797920578      0.43503803233436      0.55677981025868
  N   2.79942741390002      1.23610876398966      0.82604312244362
  N   -1.47538289742279     -0.86213798330291     -0.15750737516948
  O   -1.23192172030368     -1.53524655556665     -1.15331982834521
  O   -2.48781699950729     -0.88059020199021      0.53206952492304
  N   -0.47781360497758      1.22336023369034     -0.78302575324035
  O   0.26991576633346      1.12558919123815     -1.75054270483045
  O   -1.30991784115661      2.09638889841272     -0.56415096967519
