13
Coordinates from ORCA-job run
  C   0.86815314949741     -0.40216784994755      0.59218618503243
  C   -0.21976918785962     -0.09650782291385     -0.43340126989018
  Br  0.42014959568496      0.21788584708511      2.37749357486350
  H   0.16443233613978     -0.18163004416318     -1.45131590169048
  H   0.95814371858590     -1.48771054129615      0.66985890441091
  C   2.14077908892748      0.16771824630437      0.17234387376251
  N   3.17921222078747      0.59089254611953     -0.17841131828118
  N   -0.72815684238092      1.31573287246084     -0.28862119419668
  O   0.05935321207293      2.16599938882510     -0.68356859844111
  O   -1.82083231937354      1.48232497889669      0.23078927996508
  N   -1.38947858860837     -1.03389469369152     -0.34387309789498
  O   -2.20508265213541     -0.90558845170991     -1.24893087415847
  O   -1.42690373133804     -1.83305447596948      0.58445043651865
