13
Coordinates from ORCA-job run
  C   1.09732836507317     -0.38266779836121     -0.20357231877945
  C   -0.35483514146283     -0.08967901527171     -0.54107562343060
  Br  1.42032705387278     -2.28977491112641     -0.39485758243925
  H   -0.58161320538470     -0.35564214774924     -1.57305288609890
  H   1.70641046398262      0.10682052210076     -0.96561949629881
  C   1.50956194898517      0.10115878442955      1.10608448861633
  N   1.89987147166307      0.54090918508632      2.12329233713730
  N   -0.59822384710635      1.40028902581191     -0.40385498215970
  O   0.16198280647351      2.08675010738806     -1.07569645580482
  O   -1.50142201195032      1.77642354672387      0.32705394119037
  N   -1.33970147916570     -0.80227859885057      0.32789511509475
  O   -2.37688751386408     -1.14361872748176     -0.23176449378867
  O   -1.04179891111634     -0.95068997269955      1.50616795676146
