13
Coordinates from ORCA-job run
  C   0.89074490971614     -0.44248208614592      0.52580992856517
  C   -0.24127363878491     -0.06936137070424     -0.42682892072460
  Br  0.53175745879366      0.07326173769607      2.36385382141302
  H   0.09273238761649     -0.10003088519401     -1.46538880339190
  H   0.97388082866582     -1.53129778418613      0.53464391870926
  C   2.14768779157055      0.14307253550874      0.08127749982236
  N   3.17341283375406      0.57979217440448     -0.28985368765912
  N   -0.72654408468560      1.33606559869521     -0.17892310902929
  O   0.04830841675430      2.20096076756254     -0.56787855333778
  O   -1.78959577796603      1.48251109941309      0.40435028481554
  N   -1.41532484986917     -1.00201738743773     -0.33468092308312
  O   -1.41201866067831     -1.85926584626975      0.54099843907048
  O   -2.27476761488700     -0.81120855334238     -1.18637989517002
