16

C	0.0	0.0	0.0
C	-0.346826	-0.086382	-1.538465
Br	2.032286	0.0	0.0
H	0.479636	0.35671	-2.09633
N	-0.434829	1.214526	0.604922
H	-1.468856	1.095106	0.552595
H	-0.142786	2.022491	0.064355
N	-0.478228	-1.162168	0.652136
H	-1.510676	-1.039893	0.513712
H	-0.281961	-1.035269	1.640057
C	-1.558413	0.615943	-1.975773
N	-2.244404	1.334195	-2.607726
N	-0.380916	-1.519048	-2.000242
O	-1.460126	-2.09602	-2.028887
O	0.705962	-2.00767	-2.306505
F	-2.692191	0.0	0.0
