16

C	0.0	0.0	0.0
C	-0.126608	0.290272	-1.544346
Br	2.136634	0.0	0.0
H	0.429316	-0.490148	-2.062561
N	-0.45287	0.991888	0.881562
H	-0.183372	1.920452	0.574591
H	-1.490375	0.854199	0.79978
N	-0.480535	-1.2951	0.268208
H	-1.51686	-1.123749	0.153416
H	-0.322821	-1.450087	1.260715
C	0.397556	1.610001	-1.884951
N	0.809114	2.674651	-2.161358
N	-1.525796	0.20836	-2.146754
O	-1.864442	-0.905819	-2.521409
O	-2.13803	1.252326	-2.312899
F	-2.700244	0.0	0.0
