16

C	0.0	0.0	0.0
C	-0.230353	-0.146263	-1.56243
Br	2.043329	0.0	0.0
H	0.242823	0.711185	-2.04438
N	-0.503211	1.242278	0.452809
H	-1.535824	1.070815	0.424106
H	-0.255099	1.982282	-0.193484
N	-0.490599	-1.040749	0.808885
H	-0.272857	-1.930984	0.381447
H	-1.520126	-0.881672	0.756572
C	-1.605832	-0.249602	-2.078474
N	-2.461824	-0.349466	-2.882175
N	0.483296	-1.33128	-2.177738
O	0.259358	-2.440486	-1.700368
O	1.218905	-1.105631	-3.133642
F	-2.746195	0.0	0.0
