16

C	0.0	0.0	0.0
C	-0.533328	-0.049375	-1.462896
Br	1.962945	0.0	0.0
H	-1.63457	-0.029725	-1.267605
N	-0.473107	1.231189	0.552507
H	-1.500895	1.117844	0.480048
H	-0.23185	1.212521	1.539168
N	-0.463863	-1.143186	0.737241
H	-1.491867	-1.0366	0.665348
H	-0.167253	-2.008993	0.298034
C	-0.110842	-1.249519	-2.162384
N	0.191039	-2.24898	-2.70159
N	-0.175241	1.153837	-2.277296
O	-0.974095	2.08542	-2.260841
O	0.885802	1.135312	-2.90331
F	-2.801669	0.0	0.0
