15

C	0.0	0.0	0.0
C	-0.391034	-0.57634	-1.379753
Br	1.949109	0.0	0.0
H	0.339279	-1.356891	-1.612029
H	-0.23712	-0.759158	0.752874
N	-0.571814	1.28314	0.233329
H	-1.530577	1.291895	-0.10862
H	-0.598912	1.484938	1.224694
C	-0.235088	0.441724	-2.423424
N	-0.132026	1.215389	-3.300234
C	-1.77899	-1.214101	-1.401773
H	-2.58618	-0.543292	-1.107214
H	-1.790605	-2.045533	-0.693442
H	-2.001422	-1.607192	-2.395598
Br	-4.73375	0.0	0.0
