15

C	0.0	0.0	0.0
C	-0.404033	0.088628	-1.510301
Br	1.955985	0.0	0.0
H	0.516493	0.183408	-2.092597
H	-0.255726	-0.995792	0.374339
N	-0.511069	1.092364	0.765083
H	-0.34379	0.917167	1.750026
H	-1.528943	1.082799	0.626367
C	-1.147674	1.304108	-1.867786
N	-1.626902	2.270878	-2.327103
C	-1.097983	-1.192559	-1.987039
H	-2.032252	-1.337985	-1.445034
H	-1.310303	-1.126399	-3.057323
H	-0.422075	-2.037914	-1.820853
Br	-3.734709	0.0	0.0
