15

C	0.0	0.0	0.0
C	-0.354108	0.546579	-1.415513
Br	1.966579	0.0	0.0
H	0.324853	0.0753	-2.13305
H	-0.27906	-1.054488	0.032236
N	-0.56605	0.659994	1.120882
H	-0.513422	1.667254	1.023292
H	-1.541934	0.384704	1.215162
C	-0.075344	1.984046	-1.448557
N	0.135073	3.139647	-1.436537
C	-1.794481	0.249875	-1.823463
H	-2.535158	0.634374	-1.123562
H	-2.003095	0.67381	-2.808584
H	-1.950411	-0.829563	-1.874031
Br	-4.728144	0.0	0.0
