15
Coordinates from ORCA-job run
  C   0.56861747302661      0.06473285738064     -0.72167082581045
  C   -0.58017766329730     -0.42173189573570      0.12894097844255
  Br  0.81720580716423     -1.25396477800433     -2.13502692818349
  H   -0.44801648780406     -1.42680843696977      0.52267101992730
  H   0.26694119612637      0.98752095763580     -1.21675253334242
  C   1.84333746566403      0.23380804849411      0.08481837775009
  H   2.10486432642747     -0.68561351018974      0.61219103611477
  H   1.72296550345162      1.04021119254931      0.81293006509058
  H   2.66752154076459      0.49819806844794     -0.57763626060210
  N   -1.89617187268971     -0.40600251830537     -0.60015217603951
  O   -2.70540814876475     -1.25436600256269     -0.23328946696103
  O   -2.06395760989502      0.45463547176598     -1.45526183018789
  N   -0.74266670194520      0.49727993402132      1.30910817333037
  O   -1.03222355066450      1.66272681730251      1.05737447629865
  O   -0.52283127756438      0.00837379416999      2.41275589417260
