15
Coordinates from ORCA-job run
  C   0.56159879699136      0.02705646739958     -0.73035978692447
  C   -0.60457326248429     -0.38231595279941      0.13677129477623
  Br  0.70324208736524     -1.30503681099037     -2.14556463969826
  H   -0.53249722384183     -1.39367072149831      0.53011053487862
  H   0.31550077671327      0.96817523915583     -1.22161049753354
  C   1.85562744152307      0.11060630549265      0.05895178034344
  H   2.68673333390743      0.31916821372278     -0.61470350074991
  H   2.06208201921666     -0.82428622824317      0.58357238994762
  H   1.79963516216128      0.92325717567204      0.78790075218418
  N   -1.92787224410772     -0.27994494822875     -0.57244025469586
  O   -2.78695099884547     -1.06965120275316     -0.18873890058979
  O   -2.04950224586509      0.58695556500794     -1.42895516003476
  N   -0.69005407980461      0.54631355212208      1.31778759624571
  O   -0.49228198283044      0.04483156442370      2.41990119874307
  O   -0.90268758009886      1.72854178151656      1.06737719310772
