15
Coordinates from ORCA-job run
  C   0.53795437135319      0.06305607922220     -0.71987169505825
  C   -0.53146752820211     -0.45165500372790      0.22109189016000
  Br  0.87965186205345     -1.38511809035333     -2.00192772444997
  H   -0.26873251161534     -1.38545464013304      0.71458016788332
  H   0.11556642316181      0.86621195082777     -1.32467495273070
  C   1.83825163431629      0.45102326647569     -0.04362852914955
  H   1.68580586386609      1.25753550014398      0.67585137547441
  H   2.27109095187922     -0.40433792380138      0.47704564673564
  H   2.54563991860808      0.78885811154317     -0.80119832728302
  N   -1.82112897390367     -0.70641063342779     -0.50251446838004
  O   -2.48173540609091     -1.65247595021277     -0.07516358407668
  O   -2.19386849145221      0.12807201771512     -1.31849418984469
  N   -0.80931109760712      0.55818126914219      1.30359770171178
  O   -0.04686961489862      0.51130430586891      2.26379916554106
  O   -1.72184740146818      1.35920974071719      1.13050752346668
