16

C	-0.436196	-0.035569	-1.48197
C	0.0	0.0	0.0
F	0.078463	1.154338	-2.034546
H	1.095739	0.0	0.0
C	0.219876	-1.187489	-2.206084
H	1.299258	-1.134693	-2.050746
H	0.004727	-1.105933	-3.275276
H	-0.163524	-2.138371	-1.833911
N	-1.854866	-0.06379	-1.592282
H	-2.119033	-0.09414	-2.570244
H	-2.250875	0.774052	-1.179115
C	-0.473729	-1.190487	0.703456
N	-0.84209	-2.155197	1.262226
C	-0.508901	1.207685	0.646852
N	-0.947937	2.18821	1.121136
Br	3.395948	0.0	0.0
