16

C	-0.297519	-0.063715	-1.511747
C	0.0	0.0	0.0
F	-1.668615	-0.222983	-1.718853
H	1.096353	0.0	0.0
C	0.113536	1.226225	-2.197522
H	1.174332	1.41033	-2.009316
H	-0.476297	2.072222	-1.839047
H	-0.051411	1.11649	-3.273193
N	0.355338	-1.251714	-1.989017
H	0.338681	-1.26145	-3.00262
H	1.330627	-1.240213	-1.690444
C	-0.507043	-1.179763	0.695647
N	-0.930489	-2.10515	1.281652
C	-0.508142	1.218485	0.620838
N	-0.914953	2.212537	1.095343
Br	3.361729	0.0	0.0
