16

C	-0.380862	0.024986	-1.49904
C	0.0	0.0	0.0
F	0.000545	-1.24796	-1.987039
H	1.097446	0.0	0.0
C	-1.865614	0.143385	-1.763383
H	-2.252713	1.081872	-1.365663
H	-2.390359	-0.696779	-1.304558
H	-2.043827	0.109063	-2.841527
N	0.364094	1.069469	-2.089901
H	0.223154	1.090789	-3.092237
H	1.355401	0.961075	-1.878377
C	-0.512142	-1.194907	0.663714
N	-0.956532	-2.14489	1.191715
C	-0.482758	1.201596	0.675912
N	-0.900162	2.155088	1.219854
Br	3.381395	0.0	0.0
