16

C	-0.43299	-0.042663	-1.482372
C	0.0	0.0	0.0
F	0.049328	1.163118	-2.030888
H	1.095681	0.0	0.0
C	0.256083	-1.172874	-2.209393
H	0.032303	-1.09859	-3.277479
H	-0.093128	-2.135696	-1.83473
H	1.33373	-1.08583	-2.058615
N	-1.849898	-0.110753	-1.594487
H	-2.271889	0.710343	-1.174686
H	-2.113813	-0.14394	-2.571822
C	-0.46839	-1.191868	0.706114
N	-0.836005	-2.154165	1.269523
C	-0.516713	1.206053	0.644155
N	-0.964895	2.18388	1.115613
Br	3.394679	0.0	0.0
