16

C	-0.301558	-0.069541	-1.511
C	0.0	0.0	0.0
F	-1.675823	-0.21699	-1.710364
H	1.096244	0.0	0.0
C	0.118172	1.212583	-2.205085
H	1.181411	1.386052	-2.022929
H	-0.05364	1.100436	-3.279449
H	-0.460848	2.066319	-1.847404
N	0.337943	-1.265352	-1.982312
H	0.329447	-1.279409	-2.995829
H	1.307028	-1.272601	-1.668241
C	-0.505035	-1.177501	0.701664
N	-0.921683	-2.099641	1.296783
C	-0.509187	1.219887	0.616285
N	-0.915273	2.21088	1.098234
Br	3.361975	0.0	0.0
