16

C	-0.440563	0.002305	-1.483808
C	0.0	0.0	0.0
F	-0.119177	1.252032	-1.988982
H	1.096288	0.0	0.0
C	0.35985	-1.018498	-2.269931
H	1.428548	-0.845913	-2.122583
H	0.114661	-2.031111	-1.940605
H	0.108721	-0.92041	-3.329992
N	-1.878737	-0.098953	-1.571325
H	-2.187159	-0.978659	-1.173305
H	-2.145774	-0.086433	-2.550222
C	-0.463977	-1.228886	0.641014
N	-0.856454	-2.241052	1.09032
C	-0.513949	1.171379	0.706387
N	-0.920714	2.112756	1.277163
Br	3.399415	0.0	0.0
