16

C	-0.378003	0.025401	-1.499912
C	0.0	0.0	0.0
F	-0.001506	-1.249833	-1.986096
H	1.097516	0.0	0.0
C	-1.861424	0.150406	-1.767893
H	-2.244493	1.091331	-1.372247
H	-2.391266	-0.686511	-1.308973
H	-2.03723	0.115925	-2.846538
N	0.373204	1.065286	-2.089841
H	0.23902	1.082859	-3.093004
H	1.36278	0.954982	-1.871493
C	-0.51383	-1.194766	0.662903
N	-0.960563	-2.144363	1.189703
C	-0.482866	1.201846	0.67537
N	-0.900901	2.155044	1.219346
Br	3.379686	0.0	0.0
