16

C	-0.292755	-0.076677	-1.512776
C	0.0	0.0	0.0
F	-1.666275	-0.227443	-1.718276
H	1.096239	0.0	0.0
C	0.129862	1.201372	-2.210426
H	-0.451637	2.057336	-1.860465
H	-0.034636	1.083865	-3.285879
H	1.191987	1.375572	-2.022068
N	0.352114	-1.273839	-1.975927
H	0.360735	-1.283954	-2.98863
H	1.317026	-1.280115	-1.648011
C	-0.505725	-1.174328	0.706181
N	-0.910867	-2.095506	1.311071
C	-0.512878	1.223123	0.607338
N	-0.926945	2.215159	1.080817
Br	3.360911	0.0	0.0
