15

C	0.0	0.0	0.0
C	-0.431834	-0.005213	-1.502625
Br	1.915102	0.0	0.0
H	-1.528191	-0.164037	-1.494302
C	-0.486863	1.159757	0.727922
N	-0.780644	2.118437	1.353386
N	-0.451024	-1.422165	0.870574
O	0.495657	-1.946457	1.452354
O	-1.536072	-2.070457	0.6411
N	0.096161	-1.159262	-2.263712
O	0.099517	-2.231894	-1.666318
O	0.415224	-0.990252	-3.437088
C	-0.199687	1.263894	-2.154349
N	-0.051793	2.323188	-2.639483
F	-2.135851	0.0	0.0
