15

C	0.0	0.0	0.0
C	-0.664176	-0.052624	-1.358398
Br	1.964086	0.0	0.0
H	-0.477622	0.847303	-1.941677
H	-1.808188	-0.095717	-1.004926
C	-0.340173	1.324833	0.544329
N	-0.536887	2.391332	0.997864
C	-0.472264	-1.071536	0.978528
H	-0.163513	-2.056246	0.638736
H	-0.073929	-0.866438	1.973727
H	-1.570059	-0.992215	0.978577
N	-0.274378	-1.182331	-2.18942
O	-0.289569	-2.316935	-1.689756
O	0.013204	-0.954651	-3.3852
H	-2.966207	0.0	0.0
