16

C	-0.202352	-0.076093	-1.527378
C	0.0	0.0	0.0
F	-1.40766	-0.604385	-1.86372
H	1.091413	0.0	0.0
N	-0.216482	1.382077	-2.014639
O	0.875925	1.933664	-2.057047
O	-1.300686	1.876032	-2.30223
N	0.847721	-0.735701	-2.212429
H	0.697459	-1.726673	-2.058534
H	1.707941	-0.48908	-1.696113
N	-0.393116	-1.275716	0.648013
O	-0.217131	-2.313841	0.012174
O	-0.803969	-1.227957	1.805441
C	-0.614803	1.120779	0.668323
N	-1.079572	2.067377	1.187989
F	2.49205	0.0	0.0
