16

C	-0.494481	-0.020251	-1.438497
C	0.0	0.0	0.0
F	0.175636	1.004324	-2.094688
H	1.08799	0.0	0.0
N	-0.014397	-1.274188	-2.175533
O	-0.549117	-1.477009	-3.264507
O	0.877004	-1.940505	-1.672268
N	-1.87962	0.03677	-1.624888
H	-2.293328	0.779776	-1.079644
H	-2.105406	0.112803	-2.606741
N	-0.481595	-1.218177	0.748604
O	-1.698886	-1.398547	0.834587
O	0.372623	-1.941885	1.245518
C	-0.542062	1.172824	0.652962
N	-0.97549	2.13379	1.176105
F	2.453776	0.0	0.0
