16

C	-0.162837	-0.205756	-1.519425
C	0.0	0.0	0.0
F	-1.371199	-0.78145	-1.859723
H	1.090535	0.0	0.0
N	-0.304126	1.214973	-2.205822
O	0.666982	1.619633	-2.841595
O	-1.373614	1.802745	-2.076911
N	0.922043	-0.913565	-1.99236
H	1.762011	-0.693715	-1.420245
H	1.074373	-0.772889	-2.980436
N	-0.491683	-1.22688	0.700647
O	-1.468443	-1.118819	1.443394
O	0.127414	-2.263472	0.488682
C	-0.598849	1.180651	0.577693
N	-1.011454	2.149675	1.100751
F	2.543392	0.0	0.0
