13
Coordinates from ORCA-job run
  C   -0.61904982545000     -0.15821095710463      0.67911118292857
  C   0.52888622192391     -0.38909626029004     -0.31393970360463
  H   -0.27085984346441      0.52799279500229      1.45774744376097
  H   0.29010217647886     -1.26953178864359     -0.92474929933217
  H   -0.83395504193348     -1.12126606192468      1.16524408638233
  N   -1.75112159597627      0.46321755496981      0.00531166666010
  H   -2.05017380799960     -0.10499802637745     -0.77788821365818
  H   -2.52888215976820      0.54283839812417      0.64828406606373
  C   1.74063102526591     -0.72091334376577      0.46143482520322
  N   2.71963662364459     -0.95541430474085      1.06645233986046
  N   0.69317151840189      0.75389873794631     -1.20126025206389
  H   0.43739708007868      1.60856137102261     -0.72514387505531
  H   1.64321762879815      0.82292188578182     -1.54060426714520
