13
Coordinates from ORCA-job run
  C   -0.61337432309143     -0.13270321597623      0.59014251642896
  C   0.65155848277473     -0.35725958140394     -0.25785192345541
  H   -0.81489940865712     -1.02362287469366      1.20101671059856
  H   0.44992536804745     -1.18392065268170     -0.95102524010523
  H   -0.41778029235995      0.69982841949969      1.27228908543582
  N   -1.70216238519180      0.23920960399503     -0.31015465869473
  H   -2.15038078921112     -0.59053364505749     -0.67826374696689
  H   -2.40716141487104      0.77043839376764      0.18271368688929
  C   1.75562418853717     -0.77978916958838      0.61182611039557
  N   2.60786303908719     -1.09576341819435      1.35404472834159
  N   1.05433136634472      0.79327892538384     -1.05654383447511
  H   1.37342334154947      1.53265894235463     -0.43926964245935
  H   0.21303282704173      1.12617827259493     -1.51792379193307
