13
Coordinates from ORCA-job run
  C   -0.63578767746199     -0.04751874601682      0.65322200004997
  C   0.63938222384401     -0.31613788610623     -0.15383258497844
  H   -0.44377244421920      0.83208395519576      1.27160137932894
  H   0.45524057769706     -1.19608149174204     -0.79336209986556
  H   -0.83581312982993     -0.89823118951449      1.31642539001820
  N   -1.71799326754929      0.25305533418561     -0.28218076666066
  H   -2.18863305072429     -0.59759161438561     -0.56296914477686
  H   -2.40529783551214      0.85465496792434      0.15031924413365
  C   1.73529180880246     -0.67107022795535      0.75791261117609
  N   2.59611539282668     -0.97280321573516      1.49640072461965
  N   0.97120638489905      0.89185796687146     -0.89457552970288
  H   1.70049681976890      0.70597556896465     -1.57194047660227
  H   0.12756419745869      1.16280657831388     -1.38902074673983
