13
Coordinates from ORCA-job run
  C   -0.67061488146335     -0.37552182664386      0.61798271419559
  C   0.49521859164127     -0.28397515007177     -0.36483857625816
  H   -0.76781618406752     -1.40854160441599      0.96251280751120
  H   0.21383804948624     -0.86181932230316     -1.24996690005464
  H   -0.42543973945657      0.24517137329693      1.49617790192910
  N   -1.87977142244904      0.01280414605886     -0.09167010729685
  H   -1.75307443794390      0.95535599678006     -0.43945273491768
  H   -2.67209470050979      0.00880437205396      0.53797312623773
  C   1.71185375459164     -0.88242995303439      0.21817111810320
  N   2.69303260930230     -1.31499374997642      0.69790637954575
  N   0.66905093462354      1.10860763071439     -0.77441489844231
  H   1.11062359387461      1.63112452379342     -0.02575396828145
  H   1.27519383237058      1.16641356374797     -1.58362686227149
