13
Coordinates from ORCA-job run
  C   -0.89376542092111      0.17420522161421     -0.04275128771248
  C   0.56831346783935     -0.19333352835535     -0.30804802845892
  H   -1.44815084008707      0.00340618500987     -0.97131928568705
  H   0.59715718227599     -1.26806911441356     -0.53797781125647
  H   -0.93186084445107      1.24961791616181      0.17581440904683
  N   -1.43876172244251     -0.69909791969448      0.98859935597058
  H   -1.11941266038539     -0.39565290471351      1.90104698860170
  H   -2.44895705393948     -0.64734205485149      0.99125008157324
  C   1.33585227805869      0.00028273575494      0.92959836646502
  N   1.91960141122129      0.15474004068281      1.93590289764401
  N   1.11388823684372      0.67266873950854     -1.35209006585922
  H   0.64473523606844      0.46349318098467     -2.22581682986683
  H   2.10036072991916      0.48408150231156     -1.48420879046041
