13
Coordinates from ORCA-job run
  C   0.93753584446480     -0.14238546197725      0.44735873082696
  C   -0.54788899871506      0.13639539374226      0.13569324741714
  Br  1.14303182335700     -0.44155702638102      2.36031103787095
  H   -0.86211299309642      1.06701539557281      0.60800073848489
  H   1.24152966694722     -1.06498826663643     -0.05156948078959
  C   1.79403263046950      0.95541054538759      0.02552489587519
  N   2.45854474296563      1.85618255310290     -0.33274183975129
  N   -1.47285842207112     -0.90757589266309      0.42337085657719
  H   -1.71480088242939     -0.92665305815667      1.40338706773767
  H   -1.12580804767537     -1.81159766912351      0.12987837903999
  N   -0.60533473950690      0.37923102549690     -1.35387020345799
  O   -0.27255720167538     -0.57848341342692     -2.04956357294899
  O   -0.97431342303451      1.47900587506241     -1.74577985688213
