13
Coordinates from ORCA-job run
  C   0.98711986714263     -0.07492426172318      0.53422840433547
  C   -0.50755663892551      0.09812402991138      0.23788099365947
  Br  1.28905372196464     -0.11126196819703      2.45207861809143
  H   -0.87884324899526      1.03393983578830      0.65598492966430
  H   1.32082018294018     -1.03777185921869      0.14019285991239
  C   1.77755055463453      0.99267415647357     -0.06270856593082
  N   2.40123016858650      1.85723340370969     -0.55670781404358
  N   -1.25602402060692     -1.00974879544353      0.69848188472288
  H   -1.03112737361466     -1.84865492788872      0.17805129054904
  H   -2.25111291447993     -0.83630983064368      0.66329825835638
  N   -0.59461764866576      0.27902961987341     -1.28143619334541
  O   -0.27302901192579     -0.70365277193198     -1.94800949566686
  O   -0.98246363805465      1.36032336929047     -1.71033517030471
