13
Coordinates from ORCA-job run
  C   0.89748414443305      0.46049871160921      0.35608026141206
  C   -0.56274062846795      0.07706315855672      0.01655124136350
  Br  2.12121547142319     -0.13961083277193     -1.03470877029676
  H   -1.19229911729102      0.51756490188408      0.79479911975978
  H   0.99334236839169      1.54659339343234      0.40612023819059
  C   1.25798431774973     -0.14921970062640      1.62586618928119
  N   1.48679494988876     -0.65944875951151      2.65945721609755
  N   -0.88759155102291     -1.28788479939871     -0.14985557887308
  H   -0.94074967831620     -1.77102042161670      0.73566482415079
  H   -0.26448314128973     -1.76499137766978     -0.78700226124839
  N   -0.90213879442626      0.85787419928709     -1.24147890638275
  O   -0.88476447052460      2.07969770566675     -1.11318181835992
  O   -1.12305387054773      0.23288382115884     -2.26831175509455
