13
Coordinates from ORCA-job run
  C   0.90354364051090      0.52482927185501      0.22822382748356
  C   -0.55404364873254      0.01603898724489      0.12437841093013
  Br  1.89263990084850      0.15649842895188     -1.40802822787496
  H   -1.06314394574357      0.33010285707497      1.03990873312210
  H   0.90987802085806      1.60866599955947      0.35714063846337
  C   1.54913019664314     -0.13237531836878      1.35321701558126
  N   2.01331297133682     -0.68811924971986      2.27884474673881
  N   -0.78072913798072     -1.35977422905172     -0.10397876507766
  H   -0.24736543274372     -1.72195772933241     -0.88254085757967
  H   -0.62447082850202     -1.90862383103747      0.72952162379985
  N   -1.19323962481894      0.84623416754021     -0.97572577026569
  O   -1.26153698272579      2.05055457112230     -0.74227762027997
  O   -1.54597512895012      0.27792607416149     -1.99868375504114
