13
Coordinates from ORCA-job run
  C   0.95935651790179     -0.10261583992284      0.55289331317141
  C   -0.47057339821366      0.09106969176923      0.05759488002962
  Br  0.96462196612127     -0.15897901186122      2.50677728630804
  H   -0.84281086203022      1.07989425835902      0.35450083503988
  H   1.33572720390795     -1.06496984918262      0.20640378833935
  C   1.82481693063267      0.98179425927084      0.11450918480401
  N   2.50660056024503      1.87457414723543     -0.22863993502346
  N   -1.30396046537126     -1.03162334685123      0.39420211387678
  H   -2.25911984109114     -0.83624477512688      0.11751236781854
  H   -1.28571824263972     -1.19353394706302      1.39298879262337
  N   -0.45924995924943      0.12489448567153     -1.45640436518564
  O   -1.48838612550964      0.55655202879205     -1.96594878959021
  O   0.51769571529635     -0.32281210109027     -2.04738947221171
