13
Coordinates from ORCA-job run
  C   0.98567009874572      0.41358172982784      0.05584725138329
  C   -0.52373506598774      0.10092525824975      0.19373520343790
  Br  1.67797534718642     -0.20934717534780     -1.65395842609623
  H   -0.85307782197402      0.55147010140400      1.13417861615872
  H   1.14438560296771      1.49328492030435      0.08010769020661
  C   1.69743472619639     -0.23798977041488      1.14354676275729
  N   2.21235887546851     -0.78030369054480      2.05004673755374
  N   -0.94873313468931     -1.24507326723508      0.13014983042399
  H   -0.74367535419120     -1.74333467132069      0.98449031558406
  H   -0.58140974407750     -1.73520763136807     -0.67402100089156
  N   -1.20613182714204      0.92202997526464     -0.88648694373214
  O   -1.09340335984510      2.13912253223773     -0.76124779660189
  O   -1.76665834265783      0.32884168894302     -1.79638824018380
