13
Coordinates from ORCA-job run
  C   0.95809421050485     -0.10231847342087      0.55570573726325
  C   -0.47004218398688      0.09001630566236      0.05433504855964
  Br  0.95584243469006     -0.15472212065761      2.51002013257484
  H   -0.84139463125091      1.08135295431364      0.34401549528806
  H   1.33736754774423     -1.06463854806750      0.21254331792544
  C   1.82260004130805      0.98418400173217      0.12026825838993
  N   2.49978734539339      1.88271862985439     -0.21686471724148
  N   -1.30683338890170     -1.02918042507455      0.39381490593819
  H   -1.29336841142684     -1.18403519859923      1.39380619291412
  H   -2.26035218574970     -0.83329006518317      0.11193616130859
  N   -0.45221533756621      0.11633480243000     -1.45997661827797
  O   -1.47951073974876      0.54410705155085     -1.97622327816580
  O   0.52902529899041     -0.33052891454047     -2.04438063647681
