13
Coordinates from ORCA-job run
  C   0.70392630128421      0.34378365125324      0.87321854588342
  C   -0.58519417235032     -0.02996591031236      0.15066323756368
  Br  0.64648866612964      2.17950340814753      1.51672411461226
  H   -1.44088741896269      0.29636314758407      0.75668993878190
  H   0.74498303829614     -0.26328237794113      1.78246364260038
  C   1.90831369605542      0.08490753853646      0.09727259425705
  N   2.91055041992608     -0.15399231885775     -0.46614225659156
  N   -0.55235634742588     -1.42730458741301     -0.20137757526237
  H   -1.39712933722206     -1.66620942176971     -0.70820434997066
  H   -0.50554994652673     -2.00096763038165      0.63177141886311
  N   -0.75394794500596      0.71014539793015     -1.15614141970368
  O   -1.81781632112667      0.47875213306032     -1.72480745351675
  O   0.13961936692881      1.44626697016385     -1.55213043751679
