13
Coordinates from ORCA-job run
  C   0.71411904844258      0.30033238231980      0.88108392820917
  C   -0.58541895087145     -0.02041782374040      0.15173241259903
  Br  0.70228693893242      2.11630564783908      1.58052521757835
  H   -1.43159301927148      0.30753014089713      0.77011937274820
  H   0.74325839891852     -0.33513527132990      1.77116338229726
  C   1.90974412966176      0.03681453274602      0.09318308917647
  N   2.90441554659321     -0.20838929785449     -0.48082745032254
  N   -0.58668607049973     -1.40668543533348     -0.24297096909199
  H   -0.55164392256466     -2.00674536697706      0.57195934843984
  H   -1.43804123698044     -1.60973090420266     -0.75435702436122
  N   -0.73982851214326      0.76303552446986     -1.13148844551314
  O   -1.81024749599320      0.57401352392468     -1.70351694522992
  O   0.16963514577573      1.49007234724140     -1.50760591652950
