13
Coordinates from ORCA-job run
  C   0.99427775829902      0.56012967380627      0.17747013338125
  C   -0.44606794107832      0.03037812777267      0.11101742489241
  Br  2.00677494465416      0.02165491535658     -1.38755711590416
  H   -0.98890709209715      0.46411839511108      0.96322328774755
  H   0.99325487581196      1.65065487390170      0.18688123792663
  C   1.61436862370081      0.03970012924192      1.38620615552655
  N   2.05641009172809     -0.38398774856702      2.38887144059758
  N   -0.49797884972041     -1.39415293808047      0.03642959121216
  H   -0.72067396371123     -1.79390300285069      0.93713255396119
  H   -1.18221174581399     -1.68832291068058     -0.64843768830366
  N   -1.10935324215063      0.66781860642858     -1.09783044460676
  O   -0.94495957420617      1.87587902823918     -1.21686783261127
  O   -1.77493388541614     -0.04796714967924     -1.83653874381947
