13
Coordinates from ORCA-job run
  C   0.96371012627901     -0.00255891831134      0.57962657763673
  C   -0.52435175308521      0.06004223464725      0.21393562344773
  Br  1.17902058937230     -0.01938804181809      2.50935498376769
  H   -0.98270325419324      0.96535417637165      0.61224542836197
  H   1.38557067870114     -0.93742048523923      0.20298852512306
  C   1.69985478857661      1.12154106790265      0.01788252416378
  N   2.28033229709565      2.03070531570543     -0.44786588367491
  N   -1.20933845833465     -1.10077906207359      0.64214253545785
  H   -2.21176910324269     -1.00201462346763      0.55763760694348
  H   -0.89828071433369     -1.92000550576743      0.13475575158352
  N   -0.55335677211004      0.23586656514863     -1.30802177597012
  O   -0.99854586681643      1.28643221431986     -1.75712234946655
  O   -0.12914255790877     -0.71977493741816     -1.95655954737425
