13
Coordinates from ORCA-job run
  C   0.73924923030280      0.26054412897706      0.80948953179398
  C   -0.66717808609709      0.06761479075617      0.20825925095373
  Br  1.12938180803527      2.13583845087642      1.15848171888328
  H   -1.40460037701733      0.45503675244736      0.91128916207537
  H   0.73440893599833     -0.22718387111052      1.78791828624259
  C   1.79034632963711     -0.34239267469881      0.00163817173662
  N   2.62722646910478     -0.88925605710694     -0.61582319745170
  N   -0.98488807559232     -1.27139843334256     -0.16906225166627
  H   -1.21808546861083     -1.84931617406784      0.62523585773951
  H   -0.25682685074786     -1.69717534128714     -0.72891134776460
  N   -0.79953332358376      0.92019620773253     -1.02482960017304
  O   -0.08866729349639      0.59255987633081     -1.97050047789420
  O   -1.60083329793270      1.84693234449344     -0.99318510447525
