13
Coordinates from ORCA-job run
  C   0.80154268295818      0.49510166517607      0.50816987048701
  C   -0.55876465300859     -0.08226528340381      0.04955415169856
  Br  1.97252474975011      0.82366386879568     -1.01214011448499
  H   -1.18380386308343     -0.16181334998056      0.94340555757370
  H   0.64960139009564      1.45900414593349      0.99719351062947
  C   1.42682738645653     -0.45194996477844      1.41755573199762
  N   1.87547470802001     -1.25178794439451      2.15239970356294
  N   -0.57650234678242     -1.30351763867076     -0.66037226558808
  H   -0.41824317700420     -2.09419838662183     -0.05213932192043
  H   0.06300120783633     -1.31251320292904     -1.44290287985543
  N   -1.20586066301517      1.01704922859913     -0.77535006457795
  O   -1.38725448128773      0.81555114795336     -1.96722102375600
  O   -1.45754294093526      2.04867571432121     -0.15715285576642
