13
Coordinates from ORCA-job run
  C   0.93584578782913     -0.12648425857124      0.45559245412279
  C   -0.55264709250728      0.12007498873704      0.13142253561433
  Br  1.12814423650402     -0.45309668117100      2.36549521363455
  H   -0.89518568514924      1.03511717132779      0.61415163795699
  H   1.26843053939007     -1.03256548427202     -0.05518466245528
  C   1.76884363630565      0.99959197992795      0.06232685937795
  N   2.41358770554349      1.92367785725075     -0.27187814645855
  N   -1.45380373319279     -0.95133967951831      0.39145659934755
  H   -1.71127888784081     -0.98979175299030      1.36686235705372
  H   -1.07986315578730     -1.84237303417009      0.09106278891631
  N   -0.59881395079598      0.38590219696422     -1.35494703587560
  O   -0.23314326086373     -0.55108126294061     -2.06214838929671
  O   -0.99111613943523      1.48236795942582     -1.73321221193805
