13
Coordinates from ORCA-job run
  C   0.90453797774246     -0.13520377011127      0.51316040007490
  C   -0.55205792207739      0.15160349648961      0.09223611396409
  Br  0.98210899744413     -0.33902726224698      2.44769337767690
  H   -0.87766567884440      1.11090745831658      0.49413145016298
  H   1.22083997559838     -1.08697085280430      0.08124346350456
  C   1.80749227894135      0.92553804208889      0.09314566989384
  N   2.50965196582162      1.79778159337463     -0.26371649109487
  N   -1.51331779086936     -0.86067793737544      0.37249532303082
  H   -1.16357555459255     -1.78557665061074      0.15795594922599
  H   -1.82734678172227     -0.81719806415289      1.33101869367032
  N   -0.50873294880524      0.31751118871512     -1.40858292576607
  O   -0.14835364687355     -0.67971115617854     -2.03114207762671
  O   -0.83358087176316      1.40002391449534     -1.87963894671676
