13
Coordinates from ORCA-job run
  C   0.99326330719169      0.45868888300624      0.21646703160902
  C   -0.48560178222492      0.07969904921115      0.13078110561898
  Br  2.03358343157146     -0.50767646214223     -1.12346416823463
  H   -1.03144853811213      0.69707483219083      0.85083531011152
  H   1.11097553988863      1.51563586718716     -0.02369917147677
  C   1.51185304964120      0.17958622521954      1.54593822453412
  N   1.92258861879161     -0.01116490288394      2.62972696561113
  N   -0.72412998760519     -1.28429888022303      0.36119294032972
  H   -0.30565339790313     -1.86814460484781     -0.35061754054339
  H   -1.71054786134256     -1.49104542229684      0.42736216693597
  N   -0.98324679038593      0.61100609743879     -1.23592969142219
  O   -0.81436902620543      1.80925545671231     -1.43808839204030
  O   -1.51826656330530     -0.18961613857217     -1.99250478103317
