13
Coordinates from ORCA-job run
  C   0.91734275064007     -0.06008178267597      0.50498611294785
  C   -0.56371155537901      0.09610255163447      0.10015160163186
  Br  1.02942955536817     -0.30170751064788      2.43375328757262
  H   -0.97569460359468      1.00906568141541      0.52979684004807
  H   1.31992476622848     -0.96681945030433      0.04860625945083
  C   1.71139180640351      1.09180275201631      0.10574665193773
  N   2.32482300349150      2.03452359862082     -0.23519533347239
  N   -1.42187324221632     -1.01034630434246      0.35924031584301
  H   -0.99068544602005     -1.89035769036921      0.10751029169658
  H   -1.72018611239764     -1.02894055280258      1.32358520997307
  N   -0.54974526220190      0.30339219474445     -1.39575567329863
  O   -0.10348461753314     -0.63949767623628     -2.04670222996441
  O   -0.97753104278900      1.36286418894726     -1.83572333436618
