13
Coordinates from ORCA-job run
  C   0.92324388301152      0.09004570898648      0.61426348030260
  C   -0.48083129350266     -0.01411133421922      0.02634664270381
  Br  0.81744875900009     -0.01424706562026      2.56347199881192
  H   -1.07285108444826      0.86689624132197      0.30555772143111
  H   1.52031051718541     -0.75915412151990      0.28250244265697
  C   1.55823223656662      1.34711740969355      0.24859611917036
  N   2.04697024691210      2.37694186053911     -0.03489880396753
  N   -1.07562049414011     -1.29526032488486      0.29658331811537
  H   -2.03087376120449     -1.29997465135224     -0.04208823550079
  H   -1.08722835564576     -1.47163149707808      1.29303482634283
  N   -0.38079160040976      0.05637389221547     -1.48331509641217
  O   0.70657135223384     -0.15086093110894     -2.01122329765025
  O   -1.44458040555853      0.26686481302691     -2.05683111600422
