13
Coordinates from ORCA-job run
  C   0.77181907256205      0.46146522997130      0.57956358432618
  C   -0.56203063111562     -0.07659250789935      0.00982591798458
  Br  2.04043353378663      0.84246748547910     -0.84772761917557
  H   -1.24522981389698     -0.18654085410016      0.85671596715984
  H   0.59943452651237      1.40497742690034      1.10048974811687
  C   1.32940306479198     -0.53292301375174      1.48214274916913
  N   1.72347658265977     -1.37016440694713      2.20651088103502
  N   -0.54640703671086     -1.26540411898739     -0.75305741275787
  H   0.15065159278981     -1.25462709387497     -1.48501044215438
  H   -0.44831159865941     -2.08446309611586     -0.17017257989273
  N   -1.14249072500816      1.06718858755242     -0.80534426317139
  O   -1.41986064572467      2.07470859683290     -0.15918197898613
  O   -1.25088792198689      0.91990776494053     -2.01375455165355
