13
Coordinates from ORCA-job run
  C   0.83725465479889      0.26528343003189      0.77801896365987
  C   -0.56331627219552      0.08348106804424      0.20397430253990
  Br  1.16077892987731      2.11650464788100      1.28315933837195
  H   -1.28454549454013      0.59425288372039      0.85593685117896
  H   0.86528188720847     -0.28455393762194      1.72341123415890
  C   1.89430047442601     -0.24880044387494     -0.08117421592130
  N   2.78129594173513     -0.68733778634084     -0.71357800889848
  N   -0.80634261454139     -1.31661892061434     -0.03722162811303
  H   -0.78109221623879     -1.83503212316050      0.83227988167361
  H   -1.72405411541276     -1.43144630616835     -0.45219757664669
  N   -0.73362997705498      0.75885736631522     -1.13708829197639
  O   0.22601974741264      1.30692119531229     -1.66254123654587
  O   -1.87095094547487      0.67848892647588     -1.59397961348144
