13
Coordinates from ORCA-job run
  C   0.81459249795196      0.31753166542861      0.81724920718533
  C   -0.60081118849738      0.01387030450151      0.31569286727928
  Br  1.11075536374061      2.22575093587696      1.04187541107055
  H   -1.32694160808920      0.40332872341253      1.02958829632799
  H   0.89072950958627     -0.12714153388868      1.81117461683540
  C   1.84735154881848     -0.25978880310089     -0.03252155400050
  N   2.68187811555170     -0.76616543696917     -0.68632594415298
  N   -0.73993037242444     -1.38869334409664      0.14789375650324
  H   -1.70665410552970     -1.65533806659530      0.01422929110942
  H   -0.18483421533270     -1.72021465291103     -0.63312448072861
  N   -0.86295773504819      0.80361495861912     -0.96318128968791
  O   -1.67556165688236      1.72134314466189     -0.90434720230163
  O   -0.24761615384505      0.43090210506108     -1.95920297543959
