13
Coordinates from ORCA-job run
  C   0.89217701697625      0.49189035750304      0.32642133519634
  C   -0.56304378354655      0.03795912775440      0.06153379662870
  Br  2.04295065654255      0.07639923025619     -1.18824499740217
  H   -1.15887432015817      0.37747493113031      0.91343977332356
  H   0.92569912029208      1.57546749149365      0.45324218912575
  C   1.38248171839511     -0.18214514529487      1.51788619798663
  N   1.71765993608922     -0.74848878926486      2.49149231661324
  N   -0.81539919876179     -1.32984019509068     -0.18701383289993
  H   -0.21312161975317     -1.71725783856603     -0.90043283844386
  H   -0.77405144429446     -1.87857568165897      0.66008689039456
  N   -1.04319058103144      0.88409551478154     -1.10540161640595
  O   -1.30130352750091      0.32230408639738     -2.15970407585578
  O   -1.09098397324871      2.09171691055894     -0.88430513826113
