13
Coordinates from ORCA-job run
  C   0.82829900888446      0.26188544944284      0.82314594759923
  C   -0.59700749333992      0.00610586800985      0.32321305004558
  Br  1.15520649449041      2.15103776198674      1.14615191486288
  H   -1.30888552008779      0.36761909205159      1.06559392063918
  H   0.90946258821326     -0.23656833651087      1.79084562762110
  C   1.84283985402474     -0.28355619470994     -0.06872193030272
  N   2.66255282622622     -0.76594337030815     -0.75845035010981
  N   -0.75921811713195     -1.38371176613097      0.08341244907296
  H   -1.73125096820635     -1.62853855420052     -0.05320146597977
  H   -0.21843222362131     -1.68047013838912     -0.72116198842063
  N   -0.86137620528862      0.86560977156559     -0.90897701224172
  O   -1.65991073480114      1.79015600214724     -0.79257085858039
  O   -0.26227950936201      0.53737441504573     -1.93027930420590
