14

C	-0.482599	-0.090354	-1.452508
C	0.0	0.0	0.0
Br	0.23995	-1.712879	-2.300926
H	1.09226	0.0	0.0
H	-0.342517	-0.907994	0.50575
C	-1.944377	-0.186807	-1.525584
N	-3.117924	-0.258681	-1.559812
C	-0.058401	1.061719	-2.250912
N	0.227924	2.012057	-2.880735
C	-0.525308	1.252958	0.691563
H	-0.148605	1.267789	1.716407
H	-0.151964	2.153089	0.198258
H	-1.618627	1.292966	0.724256
Cl	3.41989	0.0	0.0
