14

C	-0.44075	-0.004581	-1.460557
C	0.0	0.0	0.0
Br	-2.434265	0.152185	-1.595832
H	1.095868	0.0	0.0
H	-0.336338	0.945294	0.436395
C	0.083841	1.142218	-2.200657
N	0.47019	2.067812	-2.813279
C	-0.097497	-1.249156	-2.148708
N	0.158534	-2.247782	-2.713272
C	-0.497344	-1.19648	0.795697
H	-0.133767	-2.129594	0.359013
H	-0.086266	-1.133053	1.805143
H	-1.587275	-1.236301	0.863391
Cl	3.360088	0.0	0.0
