14

C	-0.482918	-0.081032	-1.454528
C	0.0	0.0	0.0
Br	0.255988	-1.668775	-2.359485
H	1.105473	0.0	0.0
H	-0.333729	0.975607	0.37424
C	-1.94329	-0.193059	-1.533285
N	-3.116491	-0.269134	-1.552215
C	-0.070548	1.095736	-2.221434
N	0.201992	2.069586	-2.820012
C	-0.528224	-1.122181	0.880327
H	-1.620649	-1.132707	0.942873
H	-0.124952	-0.989171	1.886258
H	-0.184482	-2.092876	0.519418
Cl	3.401835	0.0	0.0
