14

C	-0.504334	-0.052739	-1.445577
C	0.0	0.0	0.0
Br	0.072472	-1.728426	-2.29893
H	1.092907	0.0	0.0
H	-0.348259	-0.911263	0.495232
C	-1.970679	-0.030633	-1.494621
N	-3.145988	0.013756	-1.482567
C	-0.007209	1.06179	-2.256061
N	0.32477	1.973222	-2.920764
C	-0.498184	1.246449	0.72603
H	-0.164051	2.153977	0.216794
H	-1.587467	1.275072	0.82483
H	-0.057574	1.259698	1.725139
Cl	3.415905	0.0	0.0
