14

C	-0.492236	0.04288	-1.451918
C	0.0	0.0	0.0
Br	0.234837	-1.487384	-2.450851
H	1.09247	0.0	0.0
H	-0.340337	-0.951361	0.421036
C	-1.954006	-0.058433	-1.51779
N	-3.127583	-0.132175	-1.513437
C	-0.086294	1.26899	-2.141325
N	0.178757	2.277641	-2.683555
C	-0.524139	1.181732	0.808262
H	-0.1538	2.125746	0.400993
H	-1.617374	1.215695	0.849061
H	-0.142491	1.099306	1.828509
Cl	3.406037	0.0	0.0
