14

C	-0.499086	-0.00108	-1.451676
C	0.0	0.0	0.0
Br	0.235604	1.543612	-2.416888
H	1.093327	0.0	0.0
H	-0.339258	0.939756	0.446687
C	-0.107729	-1.214562	-2.172676
N	0.173918	-2.206369	-2.738691
C	-1.960884	0.1164	-1.507128
N	-3.133182	0.203071	-1.527325
C	-0.524183	-1.202342	0.777241
H	-0.139964	-1.147775	1.797799
H	-1.616781	-1.236745	0.820652
H	-0.155659	-2.134446	0.343725
Cl	3.410259	0.0	0.0
