18

C	-0.277135	-0.000455	-1.495625
C	0.0	0.0	0.0
F	0.009529	-1.259063	-1.974848
H	1.099479	0.0	0.0
N	-1.738734	0.238508	-1.902484
O	-2.222063	-0.494452	-2.756652
O	-2.296897	1.195924	-1.380206
N	0.489506	1.01079	-2.099077
H	1.454636	0.938217	-1.768386
H	0.470129	0.909485	-3.10759
N	-0.534445	-1.242546	0.612821
O	-1.650438	-1.60963	0.234434
O	0.122647	-1.773656	1.501143
C	-0.471348	1.183799	0.823482
H	-1.553524	1.188149	0.94764
H	-0.166852	2.105678	0.329942
H	0.021959	1.1279	1.796429
Br	3.449427	0.0	0.0
