18

C	-0.521314	-0.035202	-1.435877
C	0.0	0.0	0.0
F	-1.80561	-0.545769	-1.440952
H	1.090107	0.0	0.0
N	-0.702066	1.411938	-1.960498
O	-1.737291	1.682461	-2.562042
O	0.256707	2.152819	-1.796511
N	0.315047	-0.690925	-2.337697
H	-0.207023	-1.213167	-3.024855
H	1.03077	-1.239542	-1.881796
N	-0.373652	-1.347234	0.569883
O	-1.159691	-1.394551	1.514113
O	0.14386	-2.330498	0.043677
C	-0.557119	1.109793	0.86156
H	-1.644429	1.179408	0.786345
H	-0.293426	0.921608	1.900992
H	-0.096891	2.049008	0.560424
Br	3.429298	0.0	0.0
