18

C	-0.388051	-0.06038	-1.491854
C	0.0	0.0	0.0
F	-1.643051	-0.578958	-1.622413
H	1.091094	0.0	0.0
N	-0.473225	1.388913	-1.97983
O	-1.583403	1.903425	-2.046926
O	0.59749	1.930837	-2.226494
N	0.499022	-0.732366	-2.368038
H	1.424328	-0.322147	-2.242343
H	0.567748	-1.686419	-2.025545
N	-0.411966	-1.311591	0.596674
O	-1.066971	-1.30627	1.635232
O	-0.060357	-2.332317	0.008637
C	-0.559379	1.159364	0.789159
H	-0.265647	1.059641	1.832611
H	-0.1225	2.084245	0.410272
H	-1.647352	1.213936	0.726755
Br	3.41372	0.0	0.0
