15
Coordinates from ORCA-job run
  C   -0.38290421577331      0.57101104590758      0.00082492299980
  C   0.30363461921684     -0.14054827859477      1.15093102666469
  Cl  -1.32614374041883      1.89355764144203      0.73806507062552
  H   -0.43027275834340     -0.50919698798676      1.86525664251986
  H   1.00629452722261      0.52801348683574      1.64726229640825
  N   0.67200104164418      1.26331066409859     -0.86843940595201
  O   0.46070347194855      1.30047205591103     -2.07247620657696
  O   1.62108915167814      1.76178741724151     -0.27828892338488
  C   -1.28636599940194     -0.29739186731691     -0.83824309946108
  H   -2.01585462746888     -0.78173710423358     -0.18640887324511
  H   -1.81446447017552      0.30871792228285     -1.57110054852777
  H   -0.70274039942446     -1.05071416193010     -1.36607427374095
  N   1.09254210699191     -1.32689877701636      0.69731728759427
  O   1.21963637757446     -2.23810908585351      1.50724917069481
  O   1.58484491472964     -1.28127397078736     -0.42787508661845
