15
Coordinates from ORCA-job run
  C   -0.39295258909870      0.32331164878269     -0.06024630406477
  C   0.33597238268503     -0.84324487898042      0.57442168990429
  Cl  -1.16204703457021      1.30564576903502      1.18248340530557
  H   0.91132273334896     -1.37719868021478     -0.18269629368487
  H   -0.37227856419090     -1.50980357816938      1.06283107738348
  N   0.60524599195089      1.16910893213583     -0.86742654901185
  O   1.30500313868967      0.50670964843637     -1.62631201382345
  O   0.58183607411394      2.38200846938060     -0.76445616446738
  C   -1.43048035680786     -0.16556059790463     -1.05657798838296
  H   -2.18999767446016     -0.75305124308275     -0.53979160723681
  H   -1.91536465846257      0.69113468812796     -1.52743769340881
  H   -0.95097955422588     -0.77532805793414     -1.82375527665299
  N   1.30928788951366     -0.41555360066803      1.62313654889484
  O   1.97599035944599      0.58628321482501      1.38416146022639
  O   1.38944186206814     -1.12446173376935      2.62066570901933
