15
Coordinates from ORCA-job run
  C   -0.01770402315342      0.52749454205376     -0.13996890826251
  C   0.93671964578399     -0.58904421249065      0.26766985468453
  Cl  0.14294256660688      1.89113784981085      0.98318437880934
  H   1.95131577453392     -0.21522228454732      0.36937936423385
  H   0.88958052984298     -1.40324182052215     -0.45391076248915
  N   0.45730729729872      1.03779483419756     -1.51152518618311
  O   1.47605362879308      0.53599453024592     -1.97836668855370
  O   -0.23070585040858      1.90023965786820     -2.03645578489684
  C   -1.46807169428558      0.12851461707549     -0.28300251883728
  H   -2.03920410190016      0.98341751523685     -0.64059217368374
  H   -1.55683514363510     -0.69398371697170     -0.99719823176260
  H   -1.86550561261399     -0.19966912738481      0.67514253953494
  N   0.53964939786085     -1.15664313058562      1.58851135194247
  O   -0.40988611636070     -1.93920421041909      1.59058048286499
  O   1.19334370163712     -0.81058504356730      2.56855228259880
