15
Coordinates from ORCA-job run
  C   -0.39064209388467      0.56561415599441     -0.00521487675866
  C   0.28045133395425     -0.14141618732970      1.15673301694515
  Cl  -1.36833812928711      1.87158997397276      0.71671055623454
  H   0.96281419836911      0.53482110310551      1.67074952258948
  H   -0.46367433965875     -0.52264072740886      1.85366845039444
  N   0.67300980327185      1.27661091661565     -0.84825103933554
  O   1.60142612143326      1.78636838553622     -0.23539790260721
  O   0.48781970818261      1.31539623432895     -2.05651670150517
  C   -1.26331562522761     -0.31173160350462     -0.86728804994557
  H   -0.65776512382610     -1.05454757962346     -1.38524068170082
  H   -1.99987705092592     -0.80901570214627     -0.23339460167837
  H   -1.78390292702937      0.28997056602414     -1.60909201194916
  N   1.09478782764353     -1.31507678102346      0.71562882459113
  O   1.61258880911225     -1.25675449331626     -0.39746394465615
  O   1.21461748787268     -2.22918826122502      1.52336943938192
