15
Coordinates from ORCA-job run
  C   -0.06729576336113      0.51106377909690     -0.18086116216709
  C   0.96695420831002     -0.44307217223308      0.40537550325701
  Cl  -0.20209116792346      1.95113473098362      0.84603039139758
  H   1.10141073011610     -1.29973441428087     -0.25332083738730
  H   1.90997793380757      0.06599668099184      0.58160066345698
  N   0.48979216588322      0.99276413450107     -1.53158979459267
  O   -0.23789713621523      1.72172249032476     -2.18871290479016
  O   1.60900648588700      0.60250380078285     -1.85197156084044
  C   -1.43228968300772     -0.08302070256806     -0.43998806757458
  H   -1.88986531760538     -0.39953583025324      0.49497127834539
  H   -2.06160063109445      0.66552282750652     -0.91809562697099
  H   -1.33891156189316     -0.95336049001054     -1.09435243051897
  N   0.49943330651924     -0.97458431141318      1.71825662986051
  O   0.99262392757042     -0.48513058769307      2.73053873658340
  O   -0.34024749699304     -1.87326993573553      1.68311918194133
