15
Coordinates from ORCA-job run
  C   -0.38423346492256      0.33807760133280     -0.00452939319816
  C   0.35189096518551     -0.89286393584234      0.48355118173125
  Cl  -1.01035838104345      1.25189593666663      1.36450289383475
  H   -0.33729990067076     -1.57107839508603      0.98302111507624
  H   0.84430146259643     -1.38760029899254     -0.35433798783480
  N   0.57377194194325      1.20840100310607     -0.83398769949759
  O   1.18217658759903      0.58131341480788     -1.69476393773206
  O   0.60565328168887      2.41062381635192     -0.64436265729563
  C   -1.51859560049344     -0.04532155766749     -0.93948567257828
  H   -1.12734590825710     -0.61245637454782     -1.78543156012654
  H   -2.25349919500879     -0.64511419356990     -0.40167551072612
  H   -2.00918085262488      0.85772892809462     -1.30631857399446
  N   1.42238073339076     -0.57027240148887      1.47393710841243
  O   2.10650135438738      0.42221898836087      1.24565704262152
  O   1.55383697622975     -1.34655253152580      2.41422365130746
