15
Coordinates from ORCA-job run
  C   -0.48760273964668      0.52417730868400      0.04917309573342
  C   0.32236657826740     -0.15629104889552      1.15258407626111
  Cl  -1.62723077701518      1.58780416406741      0.88664527562480
  H   -0.36882712573740     -0.68260418613886      1.81104179208392
  H   0.89079566446155      0.58439219226107      1.71309895190768
  N   0.47696745242602      1.37351064465816     -0.78725493725723
  O   0.27704444656733      2.56821050785978     -0.93374373534911
  O   1.39042972803820      0.71460203573097     -1.27695872885265
  C   -1.23083598379526     -0.38197491747378     -0.90918043156429
  H   -1.80671918325767      0.23446537309650     -1.60195771514690
  H   -0.53140851672065     -1.00559061876261     -1.46157565298862
  H   -1.91484798329464     -1.02336014414903     -0.35337731947243
  N   1.29860409561612     -1.18315255360807      0.67565400197696
  O   0.82540260492685     -2.18978522686343      0.15506280760523
  O   2.48686173916399     -0.96240353046659      0.88178851943812
