15
Coordinates from ORCA-job run
  C   -0.39560450115993      0.31904191824896     -0.06316510921011
  C   0.34134727613743     -0.83923706821219      0.57761464539484
  Cl  -1.18010992944128      1.29679408622446      1.17350591536348
  H   0.92731664779055     -1.36798014844922     -0.17497788256724
  H   -0.36309577290595     -1.51222563481351      1.06269918811136
  N   0.59906706181871      1.17250809622563     -0.86699978177987
  O   1.30771126505915      0.51556129618514     -1.62234284755389
  O   0.56607306969508      2.38520270068721     -0.76431133017753
  C   -1.42331620278377     -0.18115505999293     -1.06388839578351
  H   -2.18053082701142     -0.77439961354541     -0.55030656080181
  H   -0.93411921910711     -0.78820929366774     -1.82709448108305
  H   -1.91316079140609      0.67024169613666     -1.53920128700669
  N   1.30329076920446     -0.39927385738750      1.63182277189574
  O   1.37949717048268     -1.10108840106691      2.63464393823047
  O   1.96563398362750      0.60521928342734      1.39200121696781
