16
Coordinates from ORCA-job run
  C   0.75593384064560      0.01611640876961     -0.35510420108457
  C   -0.70630718916392      0.41453026926751     -0.27788382139969
  F   1.04839118055329     -0.43446322318195     -1.58100364046538
  H   -0.84378823961910      1.14115276997423     -1.08600413403840
  N   1.72240142270449      1.15587960774340     -0.07929290654709
  O   1.27442205151379      2.29044446258150     -0.19055433223267
  O   2.87738609102455      0.81866277114398      0.14314161939995
  N   1.07786179370823     -1.06772728410397      0.65371176629956
  O   1.28147048506876     -2.18997051059798      0.21821519509997
  O   1.04996416868624     -0.69328615756806      1.81889018761383
  C   -1.04227319296602      1.07789207054577      0.98104063064669
  N   -1.40144454164997      1.59422895678245      1.97236768775478
  C   -1.60260306023453     -0.80966155593684     -0.51090239160832
  H   -1.53805788182517     -1.50727951878400      0.32544517683285
  H   -1.31513022792190     -1.32394012138915     -1.42832132920893
  H   -2.63822670052434     -0.48157894524651     -0.60174550706257
