16
Coordinates from ORCA-job run
  C   0.67831276252288      0.06823851465049      0.33025817006139
  C   -0.66677470425900      0.29799218525455     -0.32947488284409
  F   0.62028469493335      0.13649306517928      1.65452750259254
  H   -0.50267218122085      0.28668617047477     -1.40925113496266
  N   1.20258365744887     -1.30726311828348     -0.06765573015276
  O   1.36587071642887     -1.45497496731847     -1.27288062072537
  O   1.37740621524777     -2.11770123546685      0.82737301457250
  N   1.75248876749837      1.04165297921256     -0.14868501286829
  O   1.54615536958173      1.61296067580890     -1.21112216121867
  O   2.73389029650402      1.12315917430156      0.57682822503102
  C   -1.14690738757870      1.62427368391503      0.06079150616637
  N   -1.56252210230757      2.67036578875868      0.39386843279460
  C   -1.66103795621773     -0.79590020970420      0.07936141715702
  H   -2.64066358733348     -0.56790471625556     -0.34105594563930
  H   -1.34355422493294     -1.76587164127806     -0.30723550210058
  H   -1.75286033631559     -0.85320634924920      1.16435272213627
