16
Coordinates from ORCA-job run
  C   0.82628665333756      0.15214556500698     -0.34453698291529
  C   -0.67732387616399      0.19758710597302     -0.57365721331396
  F   1.47025253695213      0.91394159267934     -1.23419066557952
  H   -0.82001811532738     -0.23297483896757     -1.57107653887045
  N   1.19717585825475      0.61435479595579      1.05193565710863
  O   0.95453386496778     -0.19695618768079      1.93709902036304
  O   1.65653920171613      1.74029025221627      1.15687620059139
  N   1.41588068528480     -1.24416927716221     -0.48794203002717
  O   2.58173262850421     -1.34689900359105     -0.13238177076137
  O   0.71275483841422     -2.10045344968367     -1.01122306160909
  C   -1.07501701930789      1.60761543745577     -0.62307403826779
  N   -1.43325666549718      2.72548119786009     -0.63983087076609
  C   -1.53502383477807     -0.56877913969452      0.43966479869418
  H   -2.57031685264162     -0.54383966983944      0.09674677870457
  H   -1.48831326987808     -0.11157561611435      1.42653604520522
  H   -1.21588663383738     -1.60676876441367      0.50805467144370
