16
Coordinates from ORCA-job run
  C   0.66214236757955      0.07657518343198      0.35779319081488
  C   -0.66280735380269      0.28640840357117     -0.34769432202060
  F   0.55063207730282      0.10399199245472      1.67972946571490
  H   -0.45783958025744      0.30706403191731     -1.42027916067764
  N   1.24412370965267     -1.27176722950900     -0.05690174407187
  O   1.43368823349273     -1.39102394042641     -1.26125019408637
  O   1.43828325819029     -2.08924321376199      0.82749363269988
  N   1.72288837015284      1.09527218062890     -0.05164797363467
  O   2.65131090330098      1.22057438607713      0.73468944876268
  O   1.56112385139174      1.65450922887336     -1.12830929366718
  C   -1.19244447750131      1.58985730102860      0.05552504138503
  N   -1.64454192268423      2.61836266653456      0.39614238771529
  C   -1.64111866270020     -0.84329479505745     -0.00380676420781
  H   -2.60870247440883     -0.63378921426262     -0.46019038012132
  H   -1.27995702556136     -1.79511133660070     -0.39727259379857
  H   -1.77578127414758     -0.92738564489955      1.07497925919340
