16
Coordinates from ORCA-job run
  C   0.85195291915287      0.11998560447081     -0.33073772593852
  C   -0.64198846731201      0.24250057298063     -0.59514871391941
  F   1.55514815588817      0.61455891389244     -1.35155662200875
  H   -0.74193399504158     -0.11929587848103     -1.62659019775175
  N   1.34676679104235      0.79331312905255      0.93774945669248
  O   0.50996725399926      1.05009257132129      1.79322824231856
  O   2.55191329683717      0.99130325159471      0.97880851090239
  N   1.19787838743140     -1.35653008444949     -0.18915900401029
  O   1.35077834966772     -1.78860717400646      0.94532590248729
  O   1.21876047298537     -1.97360704329337     -1.24448883900695
  C   -1.00748315763574      1.65966164475077     -0.59072523153491
  N   -1.32293008447519      2.79033922008444     -0.60595552059112
  C   -1.54310661739988     -0.60027668098730      0.31293672473457
  H   -1.43372849341210     -0.31300015465970      1.35550919019156
  H   -2.58021181046353     -0.45080452733286      0.01019889545522
  H   -1.31178300126428     -1.66063336493745      0.19960493197963
