16
Coordinates from ORCA-job run
  C   0.84400786215141      0.04321377425523     -0.33246392394301
  C   -0.64379976232697      0.19627315171297     -0.61312574059523
  F   1.57414783033210      0.64882801102821     -1.27431333507844
  H   -0.80176958563714     -0.31873933074076     -1.56717416997635
  N   1.22332963270248      0.61434220329297      1.02032383520128
  O   0.88774751523237     -0.07561908816025      1.97539550227851
  O   1.78061543767454      1.70016852611116      1.02505594716165
  N   1.30827676050603     -1.40681812630456     -0.31457619771547
  O   0.54300649162563     -2.24768367951983     -0.77121429519403
  O   2.45151244583281     -1.57360399569452      0.08717821213047
  C   -0.91091531131445      1.62373259030055     -0.81142942862704
  N   -1.16432461555986      2.76264873604357     -0.94189862113037
  C   -1.58992259372129     -0.38596046401538      0.44345681553708
  H   -2.61028891705996     -0.30894288164222      0.06557148202787
  H   -1.52681963534769      0.16475302991292      1.38036345363154
  H   -1.36480355509000     -1.43459245658006      0.62685046429154
