16
Coordinates from ORCA-job run
  C   0.65943699524669      0.07595255345290      0.36609629108899
  C   -0.65653762594544      0.29266043204636     -0.35422035970091
  F   0.53388410361951      0.10433359604798      1.68712225931046
  H   -0.43801354018243      0.31755224230762     -1.42402530991638
  N   1.23528122228614     -1.27641739318962     -0.04280098686959
  O   1.38600930811580     -2.10671604541196      0.83811339341570
  O   1.45929457141895     -1.38687482423689     -1.24213042166169
  N   1.73193377377696      1.08662699121515     -0.03061585922244
  O   2.67277053802091      1.17082108186483      0.74656653796070
  O   1.56599360412640      1.68256959524281     -1.08671217835372
  C   -1.18980181784976      1.59441508162133      0.04905229159272
  N   -1.64822724427769      2.61954207103661      0.39099167303046
  C   -1.64132571674817     -0.83717936304631     -0.02849539291327
  H   -2.60467737944213     -0.61963488304782     -0.49001828757469
  H   -1.78434198950556     -0.93117472707745      1.04839311982644
  H   -1.28067880266017     -1.78647640882554     -0.42831677001277
