16
Coordinates from ORCA-job run
  C   0.66722986481036      0.08020899234627      0.35022572610338
  C   -0.67925754331555      0.28487048305284     -0.31500224910673
  F   0.58325358447028      0.01952510832457      1.67351832585113
  H   -0.49742846757592      0.38687248277585     -1.38719533929384
  N   1.28602157529986     -1.21623009603027     -0.16202588790372
  O   1.49885192823029     -2.09401115474664      0.65800184180625
  O   1.47712125222603     -1.23972772469292     -1.37188134750157
  N   1.68288653044789      1.16072011656003     -0.01167313867757
  O   2.64476222942434      1.23548629029512      0.74026775560438
  O   1.45639792858140      1.81675012641431     -1.01971359378671
  C   -1.25172529777992      1.53490932593740      0.18652609140548
  N   -1.74023381655737      2.51582538886386      0.60740022448309
  C   -1.60596684915904     -0.90408879004367     -0.03280876211783
  H   -1.21846697219555     -1.81104782778092     -0.49999047382441
  H   -2.59095293335731     -0.70097954559694     -0.45335454190356
  H   -1.71249301354980     -1.06908317567891      1.03970536886225
