16
Coordinates from ORCA-job run
  C   0.65821154506203      0.06653907100845      0.36532994469352
  C   -0.65520541814340      0.29235381461729     -0.35676476559866
  F   0.53050796629634      0.09497841735533      1.68561683605972
  H   -0.43693341066519      0.30501914873638     -1.42675039063558
  N   1.23105255530519     -1.28845092991830     -0.04200110187923
  O   1.41929546028543     -2.10202443796213      0.84743318238171
  O   1.42172661630955     -1.41588142336214     -1.24532709648496
  N   1.73447652056041      1.07491842466428     -0.03124087669297
  O   2.64195922587565      1.21075044639086      0.77719309777067
  O   1.60345980469557      1.61535457953057     -1.12165249729826
  C   -1.16940739956446      1.60536754833310      0.03496292316048
  N   -1.60901597510377      2.64163977792973      0.36802527134064
  C   -1.65388550599165     -0.82125894833584     -0.01979561822971
  H   -2.61227397993544     -0.60082802589779     -0.49018050266033
  H   -1.80413839467461     -0.89737504849866      1.05744508872811
  H   -1.30082961031165     -1.78010241459113     -0.40329349465515
