16
Coordinates from ORCA-job run
  C   0.81570436456434      0.13255538239425     -0.37714770574338
  C   -0.69387359654112      0.16585045014755     -0.56328527713922
  F   1.43138904096255      0.82989024695280     -1.33714299303465
  H   -0.86365807375741     -0.31200919652572     -1.53454858406265
  N   1.23181732051498      0.68795019078669      0.97165590679071
  O   1.72563979227567      1.80382551366925      0.98241784245229
  O   0.99019872525795     -0.04931449746542      1.91968418065499
  N   1.39885882882795     -1.27249194815674     -0.44545521890056
  O   2.56243918858968     -1.36642625768647     -0.08028129974957
  O   0.69201105738648     -2.14696766529492     -0.93237027531793
  C   -1.09524780395889      1.57168230664721     -0.66796114566919
  N   -1.45578095133833      2.68757965405334     -0.72428060799360
  C   -1.52267046239898     -0.55200846541423      0.50821000325366
  H   -1.19990785583472     -1.58558653515527      0.61724924233674
  H   -1.45034420031437     -0.04895913788627      1.47072124818755
  H   -2.56657537423578     -0.54457004106606      0.19153468393481
