16
Coordinates from ORCA-job run
  C   0.84580249290400      0.11722122234935     -0.34845518585273
  C   -0.65317747112175      0.21790108077304     -0.59242967358690
  F   1.52778292442828      0.58440006916052     -1.39621378385765
  H   -0.76574506524697     -0.17727982865954     -1.61018334899134
  N   1.35534547262161      0.83506080437633      0.88894038197871
  O   2.55952251160329      1.04346529153464      0.90341684134895
  O   0.53043455801630      1.11545982689567      1.74868592325799
  N   1.20690089355523     -1.35137387930502     -0.16461547951535
  O   1.37388962582814     -1.74568366482223      0.98154975759056
  O   1.22425543447251     -2.00113829580256     -1.20014990579879
  C   -1.03305167627611      1.63078127480834     -0.62587315412059
  N   -1.36269572937532      2.75669191501663     -0.66704872722107
  C   -1.53175811452959     -0.60395091271740      0.35612972081975
  H   -1.29591481179557     -1.66577163903970      0.26880880577395
  H   -1.40450951463096     -0.28614789811695      1.38781878407508
  H   -2.57508153045309     -0.46863536645112      0.06861904409942
