16
Coordinates from ORCA-job run
  C   0.65640458974077      0.06569525136409      0.37271609346422
  C   -0.64840560313546      0.30012760690382     -0.36210320271746
  F   0.51588468209023      0.09320013376435      1.69219545786696
  H   -0.41855651605281      0.32049933724772     -1.42973084891921
  N   1.22022867577909     -1.29289301539642     -0.03203153795982
  O   1.46002479029648     -1.40294103770857     -1.22836031071504
  O   1.34682544190528     -2.12783384825527      0.84838457664900
  N   1.74540765521414      1.06438194714491     -0.00975182355776
  O   1.60043145837633      1.66116463699043     -1.06824061183479
  O   2.67604401619354      1.13956319337179      0.78031888057177
  C   -1.16745402877309      1.60998219644138      0.03396071923556
  N   -1.61452591352449      2.64136601513480      0.37183652965368
  C   -1.65302383705845     -0.81450088327777     -0.04480936456722
  H   -1.81440147280609     -0.89922064973228      1.03025255310896
  H   -1.29906022068727     -1.77142909387066     -0.43236267066157
  H   -2.60582371755818     -0.58716179012231     -0.52327443961729
