16
Coordinates from ORCA-job run
  C   0.77420099590360      0.03081170902299     -0.31683372410016
  C   -0.69393408776710      0.41562330230421     -0.31273608945111
  F   1.14432427019383     -0.36084849768258     -1.54260973027553
  H   -0.79339810362521      1.14190407035676     -1.12677273268705
  N   1.70761600873991      1.16789040815848      0.06474727932397
  O   2.81899893213306      0.83709900786792      0.45498133555958
  O   1.28587368612148      2.29863095307176     -0.14450158471605
  N   1.04555885957269     -1.09471835502808      0.65935924887434
  O   1.37451109977493     -2.17363707799712      0.19342967192701
  O   0.85923443874807     -0.79386643915884      1.83127671710876
  C   -1.09897253799414      1.08074904117435      0.92463135508745
  N   -1.50522518541429      1.60942908279496      1.89091901835378
  C   -1.56417720034246     -0.81681160651261     -0.59275070344651
  H   -1.54650075652414     -1.50519380887529      0.25347003966410
  H   -2.59519567483950     -0.50025327765179     -0.75159620189112
  H   -1.21491474468071     -1.33580851184512     -1.48601389933146
