16
Coordinates from ORCA-job run
  C   0.76577226482175      0.03974330169148     -0.33080923322617
  C   -0.69937467870064      0.42994701144805     -0.27115280410017
  F   1.09496744657221     -0.33176083164380     -1.57399678054980
  H   -0.81552879370902      1.20739634334594     -1.03407610314233
  N   1.71977795384174      1.16162539275678      0.04355879398920
  O   2.86986800283977      0.81343175702790      0.27476315758058
  O   1.27108203988443      2.30025786378588     -0.00831784766254
  N   1.06316695823350     -1.10458234509233      0.61627369544539
  O   1.00051934536567     -0.80438119588194      1.80146167734608
  O   1.28384506086092     -2.19672544240193      0.11709582790937
  C   -1.07445616341489      1.01019232599840      1.01747574467825
  N   -1.46679022122077      1.45921858888105      2.02878434816877
  C   -1.58449536294045     -0.77801908418806     -0.60846228281681
  H   -2.61856926602494     -0.44658764925601     -0.70462586948167
  H   -1.27034761593673     -1.22983988248954     -1.54965091212941
  H   -1.53943697047256     -1.52891615398187      0.18167858799123
