16
Coordinates from ORCA-job run
  C   0.67557849897246      0.09164374731386      0.32984046554830
  C   -0.69173897447992      0.27340915128966     -0.29857869962917
  F   0.63010621901506      0.04454373251275      1.65551693223078
  H   -0.54206087896682      0.36533079207798     -1.37663842032782
  N   1.29508339299072     -1.20317361055545     -0.18600028029775
  O   1.54158017504990     -2.06916061788978      0.63715142977062
  O   1.45253467778065     -1.23777341106700     -1.40039693590244
  N   1.66760329876043      1.17978832229723     -0.07275742948680
  O   2.64749769893618      1.27721097978324      0.65280918580258
  O   1.40717977655830      1.81794632786340     -1.08403757214460
  C   -1.26361790851148      1.52273218581224      0.20558317314220
  N   -1.75037746125890      2.50330523544976      0.62928113195778
  C   -1.59584700697195     -0.92271838664109      0.02345919181848
  H   -1.21102922510728     -1.83040773879663     -0.44459964670980
  H   -2.59476320091678     -0.73595311821848     -0.37099470872704
  H   -1.66972908185057     -1.07672359123168      1.10036218295468
