16
Coordinates from ORCA-job run
  C   0.78418239684534      0.20663905105698     -0.43829142084191
  C   -0.73580839682364      0.16930752158873     -0.50464917076482
  F   1.29197069681246      0.76788610007389     -1.53760214418315
  H   -0.93067927518713     -0.21092868224823     -1.51574228889675
  N   1.36857445782297      0.93414039878233      0.75956960164356
  O   0.62282764916673      1.13397342056181      1.70937739364488
  O   2.54856777940572      1.23391781883114      0.65171893810143
  N   1.29889484931511     -1.22461870653751     -0.35479718686504
  O   1.61462341818472     -1.63805884629677      0.75275536888721
  O   1.27429190721822     -1.83532726711822     -1.41355319871092
  C   -1.24682657630602      1.53946998752323     -0.44638932100761
  N   -1.68479714496918      2.62807738421502     -0.41311908794023
  C   -1.41671654029441     -0.75450991474940      0.51031637073681
  H   -1.19547813086069     -0.45194519689655      1.53069880324220
  H   -1.09870448475309     -1.78717804776610      0.35832127225526
  H   -2.49492260557712     -0.70984502102036      0.35238607069907
