16
Coordinates from ORCA-job run
  C   0.78344923523799      0.03614286635655     -0.28618319449440
  C   -0.68184281915115      0.43005747964773     -0.31333328930370
  F   1.18261123172310     -0.34274763297724     -1.50646857664658
  H   -0.75074851060505      1.20328018742667     -1.08626951194309
  N   1.71742541184943      1.15759069471205      0.13667272849640
  O   2.85112553233006      0.80742444182022      0.43590800254252
  O   1.27587154049398      2.29709742728876      0.05305320489371
  N   1.02270824689506     -1.10375535373511      0.68244096352754
  O   1.27040266892637     -2.19883389013720      0.20282722740457
  O   0.89135709856720     -0.79697147484376      1.86029517755400
  C   -1.12931021543611      1.01869052682575      0.94795957023361
  N   -1.57714668708395      1.47382989911910      1.93314712863817
  C   -1.54851976715685     -0.77797106419806     -0.69481062189898
  H   -1.55171142471094     -1.52420652775302      0.10105346087752
  H   -1.18107568840563     -1.23621546312087     -1.61329199706001
  H   -2.57459585347350     -0.44541211643158     -0.85300027282127
