16
Coordinates from ORCA-job run
  C   0.81226124470468      0.21032084105343     -0.38660324739693
  C   -0.70282524579452      0.21491602667180     -0.53415572052063
  F   1.39014380659131      0.80732310878558     -1.43101015919175
  H   -0.85152274875685     -0.09909186269999     -1.57512573299926
  N   1.34554524670466      0.86669504905445      0.87405718407511
  O   0.56763595126949      0.97636261723801      1.81257009108578
  O   2.52111255791570      1.19830611404752      0.82690372322600
  N   1.28923566749190     -1.23647655003103     -0.34622873667164
  O   1.57999299394726     -1.70077696406614      0.74734856076447
  O   1.26423644845520     -1.80494606322669     -1.42865627198776
  C   -1.18540077166532      1.59141131672793     -0.41463100374049
  N   -1.59918902203810      2.68598983170937     -0.32121119643848
  C   -1.45913390924383     -0.74933254561188      0.38527771449636
  H   -1.30054524198597     -0.50286320579788      1.43191893149500
  H   -2.52414147802899     -0.67998078837999      0.16064373594022
  H   -1.14540549956662     -1.77785692547448      0.19990212786401
