16
Coordinates from ORCA-job run
  C   0.81489230317224      0.21255725734779     -0.37687449669279
  C   -0.69922659308602      0.22155187918758     -0.53587530308827
  F   1.40190144530240      0.82109172653789     -1.40939076266603
  H   -0.84061928270020     -0.08039231951126     -1.58146287240934
  N   1.33860974718265      0.85530026769000      0.89559378296554
  O   2.51615265015193      1.18019200565553      0.86313007510269
  O   0.55016337165245      0.96639800673259      1.82516372387484
  N   1.28895713013412     -1.23457906302160     -0.34908399246967
  O   1.56190246882311     -1.71310537908198      0.74338446707920
  O   1.28043869211591     -1.78877346309151     -1.43895824263546
  C   -1.17918988716610      1.59806196554331     -0.40693846856506
  N   -1.58717028102956      2.69516877550795     -0.31809063993288
  C   -1.46237573968861     -0.75323303110797      0.36664864972533
  H   -1.29887594993145     -0.53027638894016      1.41793560306620
  H   -2.52750035899769     -0.66957268798135      0.14719986051390
  H   -1.15805971593517     -1.78038955146682      0.15861861613180
