16
Coordinates from ORCA-job run
  C   0.68518684640395      0.04526363596424      0.32191243428739
  C   -0.67056155154063      0.31723622734287     -0.29942667798420
  F   0.65051494891804      0.03503476195001      1.64833857120644
  H   -0.52566351376555      0.36460895170167     -1.38096338074700
  N   1.19571057283759     -1.30753789423569     -0.16586832653169
  O   1.38962471213831     -2.16607391795255      0.67895641200451
  O   1.32908321443260     -1.38898966918831     -1.38084115109867
  N   1.75246397248612      1.04457878941100     -0.11878420943341
  O   2.72730374929187      1.11864457811472      0.61617626603172
  O   1.54656230990863      1.64160458181405     -1.16711219668320
  C   -1.13508453809725      1.62297887913708      0.17077348758281
  N   -1.53702765961497      2.65286373524157      0.56539176752779
  C   -1.66388919277995     -0.79223091451271      0.06649716457324
  H   -2.64831733235428     -0.53861586967285     -0.32694186221955
  H   -1.73991139845074     -0.90656042795184      1.14813143352899
  H   -1.35699513981374     -1.74180544716329     -0.37523973204518
