16
Coordinates from ORCA-job run
  C   0.76053126877949      0.01422334316069     -0.34743439880285
  C   -0.70815049695033      0.39233641655460     -0.26291549760301
  F   1.07688270528050     -0.30146343623622     -1.60789211836254
  H   -0.82412191043685      1.14050612214372     -1.05625559562626
  N   1.64275191865456      1.19363169292950      0.05568442957062
  O   2.37233340192037      1.06196217556669      1.02787627258101
  O   1.51198745459960      2.16976642544301     -0.66975940204347
  N   1.14320356786644     -1.14768301710346      0.54734098945352
  O   1.99262547054008     -1.91035986185978      0.11148664286947
  O   0.57114413133593     -1.18943837872600      1.62872952347392
  C   -1.03229738890738      1.05087716003401      1.00164279616174
  N   -1.34279407163310      1.61114028571124      1.98555104502097
  C   -1.61815202476789     -0.80689056704291     -0.54804841427920
  H   -1.31400770454683     -1.29713860231668     -1.47420141365560
  H   -1.58689437556880     -1.52237113492784      0.27306386965076
  H   -2.64504194616577     -0.45909862333059     -0.66386872840909
