16
Coordinates from ORCA-job run
  C   0.81456835450910      0.22438421982182     -0.36919995183213
  C   -0.69894721821762      0.23063239776994     -0.53055064017940
  F   1.40064274830576      0.86250574280798     -1.38436373786881
  H   -0.83697139987863     -0.05397439733084     -1.58163803583539
  N   1.33560562860848      0.83405835774346      0.91986907340771
  O   0.54172718643915      0.93844570480603      1.84569519510256
  O   2.51824937365020      1.14168915879241      0.90328277130443
  N   1.29457958249700     -1.22141586902198     -0.37905512777167
  O   1.56133371308217     -1.72903474509396      0.70186031796069
  O   1.29770582685811     -1.74488698118090     -1.48391969986351
  C   -1.18473784637317      1.60308472961733     -0.38130633981066
  N   -1.59948875996252      2.69652347705250     -0.27979776261574
  C   -1.46119850980193     -0.76216841890696      0.35271782394667
  H   -1.30851941200970     -0.55097090284841      1.40815348430306
  H   -2.52497794687092     -0.68456655331088      0.12429612624811
  H   -1.14657132083547     -1.78430592071755      0.13495650350408
