16
Coordinates from ORCA-job run
  C   0.74227420445595      0.09288225205152     -0.51567848201512
  C   -0.77849083141774      0.09307111785584     -0.46269710461596
  F   1.18437492189389      0.69252654772060     -1.62519768397981
  H   -1.08818311347469     -0.50328738542841     -1.32812851258606
  N   1.34654810906120      0.79017174619810      0.68888764182555
  O   1.30395168252097      0.14120991796029      1.72708367878817
  O   1.77137258059285      1.92127734108649      0.51594031738215
  N   1.34554710629575     -1.30518072907729     -0.52836289146677
  O   0.58907221920986     -2.24243654924155     -0.75293877825775
  O   2.56012785469337     -1.33941991842581     -0.38776704292260
  C   -1.22756004349237      1.47263517101037     -0.67141397351848
  N   -1.61882869814651      2.57171197039369     -0.80273680362839
  C   -1.40653006314026     -0.48977215088032      0.80866399927053
  H   -1.19828226767815      0.13363904536494      1.67652115750846
  H   -1.04022615195476     -1.49754748639480      0.99335206897508
  H   -2.48716750941936     -0.53148089019367      0.66547240924102
