16
Coordinates from ORCA-job run
  C   0.79360285077804      0.22301535886513     -0.41313039472305
  C   -0.72510824495282      0.19695012258449     -0.51038806389101
  F   1.32501110037194      0.82985096098823     -1.47639367722010
  H   -0.90182755436452     -0.13158146417306     -1.54257187163478
  N   1.35681440606205      0.89268256071153      0.82772435060259
  O   0.59799576474128      1.03116077767932      1.77821350161805
  O   2.53417836915816      1.21146860126889      0.75089272637480
  N   1.30015028370857     -1.21358789318414     -0.38530060502523
  O   1.27438180218045     -1.77986297632614     -1.46854343801665
  O   1.61258947113996     -1.67386496573290      0.70440657256059
  C   -1.23010254894992      1.56544934179090     -0.39238847087323
  N   -1.66047391419779      2.65451561440104     -0.31032616379032
  C   -1.43001786164678     -0.77263102020479      0.44366572503253
  H   -1.11034072114776     -1.79763189761090      0.24926064195959
  H   -2.50433035145556     -0.71795438217024      0.26381708914960
  H   -1.23152285142530     -0.51997873888739      1.48206207787664
