16
Coordinates from ORCA-job run
  C   0.80455507751295      0.22415427808419     -0.39159235021482
  C   -0.71218542416948      0.21864490291995     -0.51998174661637
  F   1.36467144725974      0.84831099890421     -1.42993456806825
  H   -0.87190238460785     -0.07981987458918     -1.56399915597533
  N   1.34925474731304      0.85907468142954      0.87569353613827
  O   2.52920740258883      1.17364695684274      0.82792830367866
  O   0.57486356433719      0.97399372422053      1.81653512454996
  N   1.29350072959376     -1.21850937692058     -0.38638729261544
  O   1.58062480514071     -1.70692184328802      0.69814540273944
  O   1.27955218710620     -1.76067890766449     -1.48221636478337
  C   -1.20405888486512      1.58937240841031     -0.37610740047011
  N   -1.62363944700816      2.68091336741512     -0.27406268724997
  C   -1.44690554488242     -0.76791494627781      0.39308552882349
  H   -2.51654420581413     -0.69797394475053      0.19193134341679
  H   -1.13295276872819     -1.79057549210161      0.17815306981586
  H   -1.26804130077706     -0.54471693263437      1.44180925683117
