16

C	-0.353464	0.011625	-1.456631
C	0.0	0.0	0.0
Br	-2.273413	0.155769	-1.850845
H	1.094012	0.0	0.0
H	0.127068	0.843014	-1.960244
N	0.179496	-1.236941	-2.112623
O	-0.44591	-2.285451	-1.98482
O	1.244144	-1.10248	-2.708233
C	-0.522636	-1.139088	0.835336
H	-0.140181	-1.029201	1.848599
H	-1.61511	-1.180908	0.868423
H	-0.141459	-2.076372	0.432198
N	-0.368084	1.316744	0.558576
O	-0.73989	1.372204	1.732453
O	-0.220195	2.310587	-0.158826
F	2.481758	0.0	0.0
