16

C	-0.599361	-0.051015	-1.378622
C	0.0	0.0	0.0
Br	0.059205	-1.594214	-2.36211
H	1.089351	0.0	0.0
H	-1.686992	-0.108824	-1.409185
N	-0.267346	1.156378	-2.228626
O	-1.048983	1.37697	-3.151951
O	0.733687	1.800888	-1.961511
C	-0.391706	-1.195747	0.856342
H	0.01475	-1.032659	1.853337
H	0.07257	-2.092721	0.451997
H	-1.477928	-1.340612	0.920653
N	-0.515073	1.211804	0.673328
O	-1.329918	1.929328	0.07138
O	-0.118222	1.441362	1.812856
F	2.507644	0.0	0.0
