16

C	-0.41125	-0.019478	-1.449988
C	0.0	0.0	0.0
Br	0.311239	1.473368	-2.433198
H	1.091129	0.0	0.0
H	-0.005286	-0.925124	-1.897897
N	-1.911267	-0.116018	-1.681675
O	-2.567754	0.871827	-1.977534
O	-2.364026	-1.249248	-1.505182
C	-0.500605	-1.181914	0.809072
H	-0.032035	-1.126295	1.794921
H	-0.167664	-2.108392	0.337033
H	-1.586666	-1.203118	0.916049
N	-0.503907	1.248973	0.648911
O	0.311512	2.059207	1.080608
O	-1.73221	1.381852	0.738708
F	2.546197	0.0	0.0
