16

C	-0.61962	-0.039429	-1.371655
C	0.0	0.0	0.0
Br	-0.023829	-1.604947	-2.360495
H	1.089324	0.0	0.0
H	-1.708966	-0.066129	-1.379079
N	-0.271226	1.148201	-2.241454
O	0.80185	1.702182	-2.063759
O	-1.11221	1.442008	-3.090363
C	-0.344505	-1.222457	0.840014
H	0.012171	-1.03451	1.851282
H	0.204915	-2.077133	0.451053
H	-1.417783	-1.449363	0.863455
N	-0.508785	1.201031	0.690495
O	-0.201206	1.362637	1.870255
O	-1.215028	1.998982	0.052709
F	2.499663	0.0	0.0
