16

C	-0.423091	0.163413	-1.43501
C	0.0	0.0	0.0
Br	-2.311625	0.637623	-1.662899
H	1.097573	0.0	0.0
H	0.151827	0.9577	-1.90886
N	-0.118486	-1.102667	-2.22343
O	-0.949336	-1.548942	-3.009386
O	1.001736	-1.559437	-2.036211
C	-0.56284	-1.199253	0.717266
H	-1.653834	-1.174702	0.79969
H	-0.25424	-2.103349	0.189136
H	-0.135868	-1.243433	1.717945
N	-0.307799	1.260704	0.700314
O	-0.112937	2.315031	0.08903
O	-0.658672	1.207891	1.88179
F	2.493552	0.0	0.0
