16

C	-0.357074	-0.03176	-1.449866
C	0.0	0.0	0.0
Br	-2.279264	-0.258314	-1.842142
H	1.096959	0.0	0.0
H	-0.063915	0.888249	-1.940356
N	0.373064	-1.126224	-2.180897
O	1.120316	-0.754187	-3.081483
O	0.169869	-2.29099	-1.85648
C	-0.484756	-1.120006	0.885606
H	-0.178364	-2.067676	0.447042
H	-0.008881	-1.02048	1.859778
H	-1.571019	-1.114769	1.015521
N	-0.389766	1.320265	0.536711
O	-0.657375	1.397054	1.738297
O	-0.36594	2.299179	-0.216524
F	2.474194	0.0	0.0
