16

C	0.0	0.0	0.0
C	-0.322153	0.170791	-1.513803
Cl	1.781859	0.0	0.0
H	0.315955	1.000437	-1.839818
N	-0.468289	1.184163	0.675041
H	-0.212341	1.109286	1.656544
H	-1.499873	1.066123	0.619452
N	-0.50797	-1.273132	0.445784
H	-0.253842	-1.3987	1.421493
H	-1.539525	-1.096679	0.405748
C	-1.69807	0.599123	-1.900712
N	-2.45592	1.009462	-2.712478
N	0.075234	-1.041158	-2.230664
H	-0.234769	-1.825035	-1.664705
H	-0.412572	-1.066018	-3.117003
H	-2.82213	0.0	0.0
