16

C	0.0	0.0	0.0
C	-0.477743	-0.058577	-1.470281
Cl	1.788908	0.0	0.0
H	-1.580178	-0.095377	-1.352575
N	-0.479464	1.262476	0.521034
H	-0.198407	1.333632	1.495283
H	-1.509905	1.12286	0.505464
N	-0.470395	-1.201046	0.636312
H	-0.230159	-1.1615	1.623217
H	-1.500688	-1.106068	0.565998
C	-0.032495	-1.291096	-2.122999
N	0.325994	-2.240985	-2.713246
N	-0.125146	1.086443	-2.297806
H	-0.46595	1.902133	-1.797867
H	0.88814	1.163929	-2.310626
H	-2.974481	0.0	0.0
