16

C	0.0	0.0	0.0
C	-0.513764	0.024445	-1.436201
Cl	1.861569	0.0	0.0
H	-1.62443	0.065507	-1.219442
N	-0.42515	1.195219	0.60928
H	-0.133815	1.997345	0.071632
H	-0.112366	1.23073	1.568501
N	-0.503179	-1.085167	0.766513
H	-0.2823	-1.963824	0.309551
H	-1.53665	-0.92414	0.713307
C	-0.20523	-1.228812	-2.133438
N	0.027913	-2.204754	-2.747736
N	-0.088864	1.216635	-2.158236
H	0.837698	1.075826	-2.543463
H	-0.732873	1.395946	-2.917415
H	-3.056913	0.0	0.0
