16

C	0.0	0.0	0.0
C	-0.280968	0.234673	-1.539926
Cl	1.827389	0.0	0.0
H	0.455729	-0.369787	-2.076511
N	-0.486745	0.997598	0.900614
H	-1.512857	0.907683	0.861591
H	-0.227372	1.926849	0.584282
N	-0.500756	-1.302922	0.326171
H	-0.247487	-1.473914	1.296649
H	-1.525821	-1.184814	0.311379
C	0.038143	1.639984	-1.851276
N	0.292033	2.75649	-2.111249
N	-1.595729	-0.095737	-2.046263
H	-1.611578	-1.102493	-2.174923
H	-2.318015	0.093019	-1.309585
H	-3.168407	0.0	0.0
