16

C	-0.518078	-0.040838	-1.435709
C	0.0	0.0	0.0
Br	-0.207102	1.881523	-2.091762
H	1.088457	0.0	0.0
H	-0.40304	0.846885	0.550721
C	0.308144	-0.921685	-2.348041
H	0.178518	-1.957817	-2.031051
H	-0.018585	-0.809704	-3.385435
H	1.363018	-0.658202	-2.259434
N	-1.89095	-0.376445	-1.470514
H	-2.448377	0.234658	-0.886854
H	-2.252643	-0.369629	-2.415161
N	-0.481599	-1.212648	0.719426
O	-1.338777	-1.045727	1.591549
O	-0.018415	-2.301331	0.39335
Br	3.533798	0.0	0.0
