16

C	-0.343798	-0.11732	-1.481961
C	0.0	0.0	0.0
Br	-2.321488	-0.314661	-1.661648
H	1.092276	0.0	0.0
H	-0.39301	0.910112	0.447676
C	0.064727	1.185404	-2.146214
H	-0.473687	2.034625	-1.723335
H	1.139197	1.326653	-1.983397
H	-0.136963	1.119154	-3.21611
N	0.272668	-1.215881	-2.184072
H	1.280767	-1.045726	-2.139482
H	0.104788	-2.062529	-1.650244
N	-0.476823	-1.110008	0.853887
O	-0.358812	-2.264908	0.442007
O	-0.944201	-0.809454	1.950409
Br	3.456096	0.0	0.0
