16

C	-0.438063	0.250766	-1.432204
C	0.0	0.0	0.0
Br	-2.49882	0.669846	-1.381395
H	1.093102	0.0	0.0
H	-0.38073	-0.952491	0.366017
C	0.219354	1.432717	-2.108019
H	1.302155	1.281401	-2.028231
H	-0.047763	2.36574	-1.619883
H	-0.081227	1.474023	-3.159212
N	-0.208568	-0.928253	-2.152893
H	-0.432169	-0.833946	-3.134208
H	-0.661779	-1.740879	-1.757431
N	-0.448802	1.011956	0.984157
O	-0.264394	2.198035	0.724111
O	-0.946309	0.59174	2.028696
Br	3.487629	0.0	0.0
