16

C	-0.451098	-0.0368	-1.469684
C	0.0	0.0	0.0
Br	-0.269784	-1.886878	-2.14088
H	1.089354	0.0	0.0
H	-0.356113	0.946409	0.417894
C	-1.890291	0.390064	-1.684876
H	-2.576072	-0.244395	-1.126621
H	-2.01014	1.420427	-1.329301
H	-2.124782	0.352423	-2.74878
N	0.434382	0.783665	-2.265276
H	1.403359	0.559623	-2.03133
H	0.283543	1.755113	-2.007999
N	-0.586125	-1.055178	0.856262
O	-1.775608	-0.912076	1.167185
O	0.115643	-2.002889	1.191687
Br	3.531877	0.0	0.0
