16

C	-0.331367	-0.003593	-1.484849
C	0.0	0.0	0.0
Br	-2.31573	-0.166318	-1.723741
H	1.09252	0.0	0.0
H	-0.390371	-0.898534	0.469755
C	0.1057	1.240298	-2.242017
H	-0.422078	2.136118	-1.923486
H	1.177029	1.373416	-2.060928
H	-0.068974	1.083958	-3.310278
N	0.267161	-1.225742	-1.96855
H	0.243073	-1.232143	-2.982522
H	1.245601	-1.229207	-1.672253
N	-0.518487	1.14943	0.765184
O	-1.280895	0.902416	1.702724
O	-0.152066	2.279266	0.443899
Br	3.463192	0.0	0.0
