16

C	-0.449269	0.043947	-1.441891
C	0.0	0.0	0.0
Br	-2.602495	0.202014	-1.327272
H	1.09395	0.0	0.0
H	-0.364069	0.872732	0.535648
C	-0.024056	1.35726	-2.061959
H	1.069571	1.388925	-2.024742
H	-0.437963	2.203901	-1.5157
H	-0.361208	1.415621	-3.099301
N	-0.066258	-1.037103	-2.201694
H	-0.366357	-0.998795	-3.163289
H	-0.207035	-1.931967	-1.757766
N	-0.470901	-1.168755	0.777535
O	-0.814643	-0.965036	1.938866
O	-0.457721	-2.27968	0.242502
Br	3.463235	0.0	0.0
