15

C	0.0	0.0	0.0
C	-0.569505	0.174176	-1.408769
F	1.345275	0.0	0.0
H	-1.363125	0.925173	-1.386421
H	-0.38821	-0.907507	0.454244
N	-0.365005	1.129	0.941183
O	-0.672535	2.221143	0.482039
O	-0.215006	0.858198	2.13086
N	-0.972179	-1.126186	-1.885575
H	-1.876456	-1.268481	-1.430957
H	-1.139847	-1.061796	-2.882345
N	0.488576	0.752812	-2.318218
O	1.025237	1.791296	-1.947163
O	0.702981	0.193675	-3.392172
Cl	-3.332407	0.0	0.0
