15

C	0.0	0.0	0.0
C	-0.612858	-0.030169	-1.383376
F	1.354881	0.0	0.0
H	-1.64188	0.343706	-1.266355
H	-0.381354	-0.851382	0.559913
N	-0.391356	1.220915	0.81178
O	-1.060081	2.107956	0.304913
O	0.030363	1.196156	1.966622
N	-0.639745	-1.36449	-1.881329
H	-1.453618	-1.502054	-2.464642
H	0.193858	-1.577996	-2.410013
N	0.126861	0.920415	-2.320239
O	0.142214	0.619303	-3.514503
O	0.636683	1.930328	-1.846367
Cl	-3.548144	0.0	0.0
