15

C	0.0	0.0	0.0
C	-0.387666	0.104141	-1.471478
F	1.362034	0.0	0.0
H	0.1784	0.939371	-1.882159
H	-0.400317	-0.859174	0.531807
N	-0.415718	1.237616	0.743876
O	-0.803986	1.083923	1.89746
O	-0.254831	2.309418	0.163699
N	-1.736081	0.136048	-1.841571
H	-2.440029	-0.154776	-1.1508
H	-2.009496	1.034139	-2.205896
N	0.285679	-1.123199	-2.10748
O	0.054857	-2.21559	-1.594639
O	0.961579	-0.935593	-3.116779
Cl	-4.211457	0.0	0.0
