15

C	0.0	0.0	0.0
C	-0.489785	0.243484	-1.428609
F	1.359737	0.0	0.0
H	0.38149	0.594822	-1.993697
H	-0.398486	-0.890876	0.475616
N	-0.355462	1.172563	0.88612
O	0.191179	2.236413	0.614143
O	-1.094765	0.946038	1.839403
N	-1.564331	1.12673	-1.551101
H	-2.414775	0.801554	-1.058216
H	-1.774411	1.306631	-2.522526
N	-0.714742	-1.167768	-2.072433
O	-1.389409	-1.181155	-3.095036
O	-0.137857	-2.136975	-1.581573
Cl	-4.015334	0.0	0.0
