15

C	0.0	0.0	0.0
C	-0.672756	-0.164071	-1.345225
F	1.354771	0.0	0.0
H	-1.661	0.307449	-1.240701
H	-0.381864	-0.778096	0.655939
N	-0.367741	1.310179	0.68522
O	-0.978481	2.174221	0.075608
O	0.042733	1.392746	1.841249
N	-0.833746	-1.550839	-1.661952
H	-1.792719	-1.709839	-1.935466
H	-0.214118	-1.826169	-2.409748
N	0.072377	0.589023	-2.426308
O	0.710833	1.584555	-2.103968
O	-0.025347	0.164659	-3.57799
Cl	-3.558897	0.0	0.0
