15

C	0.0	0.0	0.0
C	-0.377922	0.194827	-1.470135
F	1.353607	0.0	0.0
H	0.190773	1.054132	-1.8262
H	-0.408562	-0.889205	0.474009
N	-0.397881	1.188019	0.837168
O	-0.137562	1.075977	2.031488
O	-0.852772	2.180087	0.280724
N	-1.716459	0.235872	-1.891645
H	-1.986435	1.17879	-2.125145
H	-2.418039	-0.107038	-1.223508
N	0.310331	-0.985487	-2.17065
O	0.097536	-2.10594	-1.714463
O	0.977697	-0.735753	-3.170069
Cl	-4.119523	0.0	0.0
