15

C	0.0	0.0	0.0
C	-0.680751	-0.12954	-1.345919
F	1.355026	0.0	0.0
H	-1.671768	0.32998	-1.208507
H	-0.380733	-0.787656	0.647996
N	-0.344712	1.31461	0.696881
O	0.117169	1.411289	1.832126
O	-0.998883	2.16432	0.10982
N	-0.827519	-1.515169	-1.704341
H	-0.314442	-1.713996	-2.552559
H	-1.812849	-1.689105	-1.865002
N	0.035844	0.663969	-2.411553
O	0.695241	1.637862	-2.063793
O	-0.114631	0.298578	-3.577911
Cl	-3.576275	0.0	0.0
