15

C	-0.551374	0.021288	-1.412079
C	0.0	0.0	0.0
Br	0.203629	1.496052	-2.437847
H	1.092124	0.0	0.0
H	-0.319616	0.942013	0.459565
N	-0.208502	-1.305188	-2.111475
O	-1.061159	-2.18352	-1.984705
O	0.876053	-1.416749	-2.653098
C	-2.004208	0.167318	-1.452973
N	-3.167678	0.336321	-1.412591
C	-0.483146	-1.190921	0.820007
H	-0.054525	-2.122215	0.444627
H	-1.571954	-1.293372	0.854352
H	-0.108705	-1.05972	1.838491
H	2.842075	0.0	0.0
