15

C	-0.481547	-0.033673	-1.423442
C	0.0	0.0	0.0
Br	0.128704	-1.653335	-2.335261
H	1.093182	0.0	0.0
H	-0.341584	-0.922094	0.4807
N	-2.017842	-0.061041	-1.423482
O	-2.558115	-1.075883	-1.003505
O	-2.591695	0.979927	-1.738594
C	-0.054038	1.114588	-2.214653
N	0.297225	2.038742	-2.85042
C	-0.480938	1.237291	0.747672
H	-0.170375	2.149179	0.231478
H	0.003403	1.242331	1.727226
H	-1.56518	1.270428	0.893521
H	2.777466	0.0	0.0
