15

C	-0.462802	0.024338	-1.436979
C	0.0	0.0	0.0
Br	0.275456	-1.447604	-2.480756
H	1.092932	0.0	0.0
H	-0.316308	0.952933	0.44074
N	-1.998054	-0.072065	-1.450456
O	-2.526377	-1.17067	-1.56866
O	-2.578455	0.985645	-1.207825
C	-0.108578	1.266857	-2.116239
N	0.155075	2.265103	-2.678309
C	-0.522354	-1.176408	0.806484
H	-1.603727	-1.143744	0.976915
H	-0.276133	-2.123111	0.321768
H	-0.017454	-1.165915	1.776359
H	2.771839	0.0	0.0
