15

C	-0.466551	0.024582	-1.435004
C	0.0	0.0	0.0
Br	0.269424	-1.446662	-2.482696
H	1.092999	0.0	0.0
H	-0.314931	0.952538	0.442936
N	-2.002292	-0.079278	-1.448015
O	-2.52248	-1.183583	-1.538889
O	-2.591466	0.979353	-1.23249
C	-0.118342	1.268766	-2.113898
N	0.150179	2.268874	-2.670302
C	-0.51464	-1.177824	0.810149
H	-0.279099	-2.123372	0.31816
H	0.005692	-1.172318	1.771485
H	-1.592891	-1.142722	0.996316
H	2.766247	0.0	0.0
