15

C	-0.482243	0.006993	-1.453828
C	0.0	0.0	0.0
Br	0.161822	-1.682093	-2.275824
H	1.099783	0.0	0.0
C	-1.93627	0.012385	-1.574382
N	-3.105715	0.003346	-1.695845
C	0.134628	1.089099	-2.218937
N	0.677633	1.929441	-2.836493
N	-0.657209	-1.036811	0.760106
H	-0.350197	-1.944045	0.433696
H	-0.374079	-0.938846	1.728487
N	-0.414734	1.278275	0.659259
O	-0.993524	2.148406	-0.000455
O	-0.019861	1.405533	1.818775
Br	2.747568	0.0	0.0
