15

C	-0.472942	0.002675	-1.486606
C	0.0	0.0	0.0
Br	0.335563	-1.579123	-2.355786
H	1.089952	0.0	0.0
C	-1.919741	-0.147876	-1.590619
N	-3.084324	-0.312114	-1.64541
C	-0.017863	1.189317	-2.203066
N	0.36027	2.153263	-2.762405
N	-0.527949	-1.013389	0.832403
H	-0.097554	-1.909049	0.645118
H	-1.538775	-1.073004	0.810735
N	-0.431984	1.33267	0.552468
O	0.427365	2.19978	0.675275
O	-1.615543	1.434883	0.886725
Br	2.75581	0.0	0.0
