15

C	-0.395861	0.00249	-1.468042
C	0.0	0.0	0.0
Br	-2.366666	-0.298616	-1.756385
H	1.092579	0.0	0.0
C	-0.049934	1.237667	-2.165579
N	0.255886	2.229265	-2.717814
C	0.235425	-1.152319	-2.108176
N	0.75501	-2.089007	-2.592507
N	-0.476928	-1.072205	0.792504
H	-1.421531	-1.361964	0.57751
H	0.182109	-1.838834	0.792868
N	-0.422254	1.272013	0.683379
O	-1.349863	1.945389	0.164999
O	0.32439	1.705655	1.545396
Br	3.170156	0.0	0.0
