15
Coordinates from ORCA-job run
  C   0.93139173360140     -0.31074837919652     -0.44261733340723
  C   -0.44521047682917      0.18795101976861     -0.06125448650531
  F   0.96163462063418     -0.70593455380943     -1.74990099978431
  H   -0.65031923966027      1.02502496095347     -0.73480369668332
  H   1.29792614679269     -1.12131239197527      0.18977041739806
  N   1.92241123917448      0.81042003294086     -0.28863993424777
  O   1.72826357173769      1.80338599912051     -0.98119184511199
  O   2.83871854055972      0.63825043934423      0.50830540083009
  N   -0.33495644480144      0.71472733628200      1.29304928866671
  H   -1.02320182920063      1.43658313965222      1.45516671285532
  H   -0.48343180611548     -0.01758611311025      1.97696285600537
  C   -1.48591905732831     -0.90830122922186     -0.25985902614562
  H   -1.50477989998474     -1.26405061866505     -1.29149648180738
  H   -2.47794229855452     -0.52776453437639     -0.00722920374538
  H   -1.27358480002559     -1.76064510770713      0.39373833168276
