15
Coordinates from ORCA-job run
  C   0.89276297548219     -0.28344300852884     -0.48942687708662
  C   -0.48580445818550      0.15593569086344     -0.06179625605830
  F   0.94029528496924     -0.54394940032718     -1.83242083636432
  H   -0.78559407239330      0.97224502741627     -0.73036219514688
  H   1.25340148933595     -1.14719228901130      0.06852473959630
  N   1.90239455700719      0.81018395996074     -0.24377933673442
  O   3.02597265207607      0.45663161548166      0.10126330527636
  O   1.53714542669293      1.96596837265920     -0.45261567958947
  N   -0.36803138713777      0.56003959082742      1.33626588786549
  H   -1.24730285164260      0.42515991451298      1.81750276510128
  H   -0.12576822662925      1.54090119341517      1.39802896653247
  C   -1.45038091699304     -1.01039730679648     -0.20504276969455
  H   -1.43838910329602     -1.40850553540271     -1.22018122008756
  H   -2.46903524099088     -0.68524481885006      0.01963083040138
  H   -1.18166612829519     -1.80833300622032      0.49240867598885
