15
Coordinates from ORCA-job run
  C   0.86572746056261     -0.26334641627174     -0.48634015655041
  C   -0.54353836702001      0.15389864227172     -0.07689156595148
  F   0.91190539778637     -0.56742169889479     -1.81313892713315
  H   -0.82847752780934      0.94801599777967     -0.77560007004370
  H   1.26541039792187     -1.09594873051496      0.09566578342876
  N   1.79487938583770      0.89229159162945     -0.24386605478164
  O   1.73724199631451      1.82552401514209     -1.03650492772069
  O   2.48304611248817      0.83384184530426      0.77353958080763
  N   -0.63353227079821      0.68738822129212      1.26937592344649
  H   -0.27071185366227      0.03171432683181      1.95092348526131
  H   -0.13085746188544      1.55977804074845      1.36883124600778
  C   -1.48394456606266     -1.03130236731722     -0.23502267828498
  H   -2.50259019744262     -0.70955530919542     -0.01817660949202
  H   -1.22168686670868     -1.82471600382843      0.47215230364409
  H   -1.44387163952199     -1.44116215497702     -1.24494733263799
