15
Coordinates from ORCA-job run
  C   0.94526974547532      0.63071444895110     -0.17857208502046
  C   -0.52326303936984      0.25271516681489     -0.23154686537852
  F   1.34389132405651      0.81100887056946      1.10882565968698
  H   -0.77546668746644      0.16036872846651     -1.29170932193084
  H   1.15799658111187      1.53053281850255     -0.75543308357340
  N   1.76599205340267     -0.47849136680396     -0.78341688149062
  O   2.46375249317377     -1.16344704085841     -0.04875884782144
  O   1.61593273320169     -0.61166192993395     -1.99484592117653
  N   -1.24474314037107      1.40484757096916      0.29910677627950
  H   -2.23299950533955      1.31195904082332      0.10118771241361
  H   -1.13535050224218      1.43958322269707      1.30610005179995
  C   -0.78753948038244     -1.07269522017993      0.48050051702329
  H   -1.86037751886486     -1.27671645490912      0.48146119247222
  H   -0.28862338421796     -1.91301585366083     -0.00840221535582
  H   -0.44447167216749     -1.02670200144784      1.51650331207210
