15
Coordinates from ORCA-job run
  C   0.86847580940715      0.61646992082701     -0.10141979022843
  C   -0.59284159416490      0.18569714280230     -0.21840468862177
  F   1.23161810738125      0.72973027272530      1.20426513112157
  H   -0.81777945838681      0.13444374701679     -1.28762133451952
  H   1.07349632473839      1.55934062377851     -0.61273191280763
  N   1.75069765218732     -0.40890755951531     -0.76158099968046
  O   1.64603553035563     -0.44390485092381     -1.98501185727813
  O   2.44074687837742     -1.13409078825704     -0.05915690493960
  N   -1.48923464103404      1.15771100926307      0.38761429869054
  H   -1.24894220232136      1.28933044127512      1.36308819470003
  H   -1.42655202194677      2.05593475108034     -0.07676691473261
  C   -0.81054331564937     -1.18090943164623      0.41543722896800
  H   -1.87167529948646     -1.42304807429175      0.36200999072003
  H   -0.50787100013945     -1.17313579329063      1.46494563731114
  H   -0.24663076931799     -1.96366141084367     -0.09466607870316
