15
Coordinates from ORCA-job run
  C   0.74521855333893      0.30142083004758     -0.86924945133835
  C   -0.62333279853466      0.19144860727200     -0.22140546279147
  F   0.92613248455114      1.57124983214037     -1.33367293060668
  H   -1.30952636476049      0.55089256499622     -1.00715050049869
  H   0.89454048519628     -0.40553734309043     -1.68633656290589
  N   1.83176744570031      0.01827848659077      0.13561880338838
  O   2.42795371063023      0.96231668150697      0.62889000788715
  O   2.00285473417449     -1.17395239605618      0.37600616951206
  N   -0.61612229786729      1.02228478278827      0.97356524821773
  H   -1.51855937997489      0.97779432457952      1.42970076434021
  H   -0.43318253481752      1.98972946364623      0.73460058335046
  C   -1.00302822856426     -1.23547248014856      0.13997728135546
  H   -0.92699116522650     -1.90034001484021     -0.72313628000623
  H   -2.03866705803697     -1.25713459515110      0.48895828479160
  H   -0.36005758580881     -1.61297874428144      0.93363404530427
