13

C	0.0	0.0	0.0
C	-0.434758	-0.059608	-1.472021
Cl	1.787429	0.0	0.0
H	0.033631	-0.973242	-1.874644
H	-0.339488	-0.884243	0.530418
C	-0.443113	1.205911	0.696824
N	-0.621122	2.188556	1.314489
N	0.025596	1.145529	-2.16963
H	-0.550253	1.244067	-2.996725
H	0.989572	1.031771	-2.459792
C	-1.902822	-0.190814	-1.712776
N	-2.652042	-0.341474	-2.625549
F	-2.44638	0.0	0.0
