13

C	0.0	0.0	0.0
C	-0.473856	0.068213	-1.48779
Cl	1.77689	0.0	0.0
H	0.42159	0.076706	-2.117478
H	-0.346966	-0.914153	0.470152
C	-0.441748	1.134765	0.808939
N	-0.591757	2.032571	1.55106
N	-1.220217	1.284682	-1.743855
H	-1.481683	1.297529	-2.72359
H	-2.060181	1.118407	-1.157235
C	-1.201666	-1.174442	-1.832816
N	-1.681218	-2.144128	-2.294654
F	-2.485925	0.0	0.0
