13

C	0.0	0.0	0.0
C	-0.470002	-0.074039	-1.486269
Cl	1.776927	0.0	0.0
H	0.429208	-0.118399	-2.110575
H	-0.347748	-0.863255	0.557939
C	-0.439635	1.210441	0.69497
N	-0.602866	2.176262	1.342986
N	-1.223173	1.108383	-1.862627
H	-1.483571	1.019548	-2.839826
H	-2.061802	0.989672	-1.262607
C	-1.171578	-1.358603	-1.708704
N	-1.602529	-2.396588	-2.055571
F	-2.481488	0.0	0.0
