13

C	0.0	0.0	0.0
C	-0.566779	-0.095617	-1.428623
Cl	1.781936	0.0	0.0
H	-1.63998	0.178739	-1.189218
H	-0.374326	-0.851947	0.560099
C	-0.420119	1.233083	0.672827
N	-0.59581	2.243735	1.244018
N	-0.587286	-1.449325	-1.95779
H	-1.35444	-1.908864	-1.479034
H	0.276623	-1.936029	-1.742255
C	0.086561	0.832367	-2.343933
N	0.589016	1.594866	-3.084174
F	-2.620254	0.0	0.0
