13

C	0.0	0.0	0.0
C	-0.436068	-0.219417	-1.512629
Cl	1.780778	0.0	0.0
H	0.489997	-0.224023	-2.098629
H	-0.365444	-0.790338	0.646134
C	-0.450615	1.297686	0.493731
N	-0.605995	2.395367	0.883904
N	-1.341673	0.735075	-2.108297
H	-2.118631	0.719643	-1.415697
H	-0.89648	1.647139	-2.094369
C	-0.989553	-1.575752	-1.621377
N	-1.309862	-2.698699	-1.739407
F	-2.460393	0.0	0.0
