13

C	0.0	0.0	0.0
C	-0.359012	0.154462	-1.515345
Cl	1.775576	0.0	0.0
H	0.375509	-0.459564	-2.052399
H	-0.343199	-0.950054	0.39419
C	-0.476235	1.104385	0.822639
N	-0.603845	2.0642	1.491523
N	-0.201858	1.515455	-2.011071
H	-0.872154	2.105201	-1.527319
H	0.730098	1.842637	-1.775881
C	-1.674242	-0.363407	-1.93887
N	-2.436371	-0.810337	-2.721709
F	-2.331369	0.0	0.0
