15

C	0.0	0.0	0.0
C	-0.288458	0.014324	-1.561643
Br	1.962462	0.0	0.0
H	-1.374121	0.129756	-1.622075
C	-0.498393	1.207911	0.668853
N	-0.571981	2.234474	1.253514
C	-0.628354	-1.185789	0.598402
N	-0.673389	-2.255168	1.113698
C	0.111813	-1.288477	-2.25892
H	-0.204368	-1.246244	-3.305057
H	1.19021	-1.451675	-2.226667
H	-0.391861	-2.131436	-1.776759
C	0.296089	1.172243	-2.230675
N	0.734307	2.070679	-2.850725
H	-2.127509	0.0	0.0
