15

C	0.0	0.0	0.0
C	-0.318667	0.066169	-1.54781
Br	1.961867	0.0	0.0
H	-1.396641	0.255467	-1.576205
C	-0.480936	1.203154	0.680199
N	-0.527195	2.236452	1.252391
C	-0.591658	-1.198846	0.590641
N	-0.605692	-2.279359	1.082676
C	-0.033682	-1.248227	-2.271296
H	-0.316508	-1.149582	-3.322034
H	-0.632882	-2.040522	-1.818991
H	1.019745	-1.522621	-2.216422
C	0.346059	1.192322	-2.197328
N	0.800413	2.088148	-2.808934
H	-2.122977	0.0	0.0
