15

C	0.0	0.0	0.0
C	-0.30254	0.056463	-1.547725
Br	1.965381	0.0	0.0
H	0.506684	-0.507504	-2.02769
C	-0.566819	1.122942	0.729912
N	-0.582993	2.136218	1.348766
C	-0.425885	-1.270743	0.582073
N	-0.51924	-2.3462	1.060407
C	-0.283183	1.500082	-2.046686
H	-1.133708	2.041956	-1.629392
H	0.638631	1.994242	-1.737768
H	-0.348984	1.51443	-3.137197
C	-1.555117	-0.590645	-1.951267
N	-2.402598	-1.126211	-2.574956
H	-1.965758	0.0	0.0
