15

C	0.0	0.0	0.0
C	-0.302789	-0.073084	-1.546573
Br	1.965799	0.0	0.0
H	0.518354	-0.655318	-1.981081
C	-0.544769	1.189695	0.635134
N	-0.579242	2.248851	1.168347
C	-0.440907	-1.20717	0.693132
N	-0.507968	-2.235586	1.270671
C	-0.309532	1.325356	-2.161557
H	0.604678	1.858358	-1.894569
H	-0.376806	1.250034	-3.249681
H	-1.168598	1.885185	-1.787807
C	-1.540333	-0.777147	-1.896631
N	-2.373571	-1.388628	-2.466538
H	-1.966967	0.0	0.0
