15

C	0.0	0.0	0.0
C	-0.299237	0.033027	-1.549947
Br	1.965875	0.0	0.0
H	0.502861	-0.551018	-2.017556
C	-0.568355	1.140428	0.703781
N	-0.601821	2.168369	1.297044
C	-0.44559	-1.254317	0.6004
N	-0.516592	-2.322712	1.099354
C	-0.262342	1.466671	-2.077867
H	0.661191	1.959899	-1.772135
H	-0.322211	1.458158	-3.169425
H	-1.11032	2.02534	-1.678606
C	-1.560984	-0.603288	-1.941695
N	-2.421018	-1.130575	-2.555896
H	-1.967557	0.0	0.0
