9
Coordinates from ORCA-job run
  C   -0.58867468383623      0.54126392150503     -0.27613742476443
  C   0.15534209501571     -0.45169679369379      0.22699285038231
  H   -0.10891164993396      1.41460496993306     -0.70728878336793
  H   -0.21027900124651     -1.36473461232544      0.67888947979958
  C   -2.01237446715722      0.47202908518324     -0.25620354368629
  N   -3.18815329709423      0.42876397390392     -0.24713722220167
  N   1.61472970258432     -0.35937738180577      0.19594428039321
  O   2.12912480280174      0.63819461130013     -0.29915527445462
  O   2.21019649886639     -1.32004777400040      0.68409563789985
