9
Coordinates from ORCA-job run
  C   -0.98866954239764     -0.33425315098164     -0.01715329409517
  C   0.20175178174137     -0.58296712645039      0.54787372509298
  H   -1.81428287302367     -0.97902064183271      0.27139932187107
  H   0.36496630926954     -1.37986101209150      1.26134907376102
  C   -1.29232127211748      0.68875137081141     -0.96357187195706
  N   -1.65985213371936      1.48776022780964     -1.74514983982947
  N   1.41511981980582      0.18153778680013      0.27539068468332
  O   1.35543421458258      1.12116159385080     -0.51121552628899
  O   2.41685369585884     -0.20210904791575      0.88107772676232
