9
Coordinates from ORCA-job run
  C   -0.78884283499545     -0.18914030898071     -0.24206694054707
  C   0.37211110894280      0.33176074455123      0.17449456779881
  H   -0.84593546732859     -1.23780842802604     -0.51745913934944
  H   0.54632345265390      1.35751551393627      0.47288032645647
  C   -1.96241083542199      0.61522630584958     -0.32942041976553
  N   -2.93865280728794      1.26751965812035     -0.40625112836074
  N   1.56406714641565     -0.51161954149067      0.25755350244316
  O   2.58231119740660      0.05847645050292      0.64987284049458
  O   1.47002903961501     -1.69293039446292     -0.05960360917024
