9
Coordinates from ORCA-job run
  C   -0.73296681625679     -0.10922943343206     -0.40822395741402
  C   0.29950688210122      0.20766985539831      0.38313082067964
  H   -0.58688796861519     -0.78156117260648     -1.24812032759449
  H   0.27318748373342      0.86289254173843      1.24426948661521
  C   -2.03231915631936      0.42488108920577     -0.16659006458331
  N   -3.11012924398978      0.85778240718995      0.02135396477042
  N   1.62395823777731     -0.35250956464318      0.11611759542363
  O   2.50720926081104     -0.00351178714040      0.89960558512039
  O   1.75944132075814     -1.10841393571032     -0.84054310301747
