9
Coordinates from ORCA-job run
  C   -0.73408575887178     -0.06999862319695     -0.41493927991860
  C   0.30529483005439      0.18763257731277      0.38870649465694
  H   -0.61052936066491     -0.73181399435798     -1.26680287001002
  H   0.30097243891564      0.82687447126362      1.26202093431807
  C   -2.01138818817912      0.51354487377040     -0.17034905212207
  N   -3.07104823839051      0.98848972763775      0.01949397690227
  N   1.60692002537807     -0.42240378758965      0.11874299018686
  O   2.49871842165799     -0.12585275119160      0.91415488528787
  O   1.71714583010023     -1.16547249364837     -0.85102807930132
