9
Coordinates from ORCA-job run
  C   -0.67130520362859      0.08578478616960     -0.50789300673142
  C   0.23106951184169     -0.02438925421052      0.47511964583744
  H   -0.35461827078176      0.02401369579552     -1.54455424585714
  H   0.03403495127201      0.02030628498203      1.53844815397359
  C   -2.05247168691485      0.28382870872961     -0.21643414746866
  N   -3.19569858047584      0.44677744011008      0.00923308413512
  N   1.64312370417101     -0.22720197496673      0.15145467798064
  O   1.97096561862644     -0.29342393370574     -1.02876902454798
  O   2.39489995588988     -0.31569575290385      1.12239486267839
