9
Coordinates from ORCA-job run
  C   -0.63979283155940      0.44184828034399     -0.33401166950292
  C   0.19902570428926     -0.38252420975560      0.30599998925648
  H   -0.24772166406214      1.21404746073698     -0.98870817001979
  H   -0.07520248992006     -1.18404770865346      0.97963804799014
  C   -2.05074942081347      0.32307338819740     -0.16982463920620
  N   -3.21734695216904      0.23619894227138     -0.04378490802739
  N   1.64336687347246     -0.24248433127049      0.12233408572098
  O   2.05715287717840      0.63939956454820     -0.62330959119198
  O   2.33126790358399     -1.04651138641840      0.75166685498070
