9
Coordinates from ORCA-job run
  C   -0.98870340855986     -0.32611124714757     -0.08099945529968
  C   0.24397515644310     -0.75455155973637      0.22779551473319
  H   -1.79064555471421     -1.05755384876291     -0.03167793109788
  H   0.46245977166829     -1.77418379083461      0.51621408014073
  C   -1.36503381009372      0.99359056085318     -0.47021520871003
  N   -1.79313656424607      2.03860053796780     -0.80003989028846
  N   1.43450156370183      0.09012126562682      0.21283468444249
  O   2.48011859568570     -0.48192449595910      0.52397972109001
  O   1.31546425011493      1.27101257799275     -0.09789151501037
