9
Coordinates from ORCA-job run
  C   -0.98471176401912     -0.34297608577972     -0.04976401516643
  C   0.28225850688898     -0.77485703448782      0.03053324149414
  H   -1.76256271311381     -1.10109081089357     -0.07699555900663
  H   0.55141817300954     -1.82212570749514      0.06929511138903
  C   -1.42683083926671      1.01218978993184     -0.10190944791387
  N   -1.90975763545645      2.08388903604126     -0.15177211067684
  N   1.44709812184329      0.10369425127071      0.07976702437698
  O   1.27350271282897      1.31666627943965      0.01841715154053
  O   2.52958543728532     -0.47538971802720      0.18142860396309
