9
Coordinates from ORCA-job run
  C   -0.77766454860333     -0.18294649320879     -0.27831976575009
  C   0.35242720809964      0.31057828114879      0.24318554947749
  H   -0.77042261368944     -1.14961914248598     -0.77260329854821
  H   0.46527254187442      1.25736565871667      0.75546516894792
  C   -2.00106694509781      0.54415871627322     -0.19675414703691
  N   -3.01778463801467      1.13331486729420     -0.13630499213707
  N   1.59616599758848     -0.45311700670180      0.14677146727016
  O   1.57346782508188     -1.54267286438098     -0.41633051125519
  O   2.58060517276084      0.08393798334468      0.65489052903191
