9
Coordinates from ORCA-job run
  C   -0.97856872134980     -0.33751481491516     -0.13718289506279
  C   0.25946697909715     -0.76984357386183      0.14357313560528
  H   -1.76186375124306     -1.08883494626813     -0.18746655017053
  H   0.49928398776447     -1.81040195435627      0.31804915981074
  C   -1.38164817547232      1.00914196677128     -0.37893465347301
  N   -1.83075642421407      2.07501678084674     -0.59448379941551
  N   1.42812689031986      0.09839505222777      0.24876233579948
  O   1.28523141935520      1.30352064712872      0.06895463385529
  O   2.48172779574255     -0.48047915757311      0.51772863305106
