9
Coordinates from ORCA-job run
  C   -0.67400757938008      0.30737490584176     -0.40945279924438
  C   0.24511071531401     -0.18808410802597      0.42867588576933
  H   -0.41317764226274      0.50768722050072     -1.44426725126190
  H   0.10125625591486     -0.42502478857815      1.47499619733507
  C   -2.00084768061756      0.57738236980712      0.03528466359033
  N   -3.09917768436349      0.80506069539538      0.39050039935964
  N   1.60096512180997     -0.45708183177762     -0.04944774811537
  O   2.37428359472040     -0.90632338861233      0.79657138255668
  O   1.86659489886463     -0.22199107455090     -1.22386072998940
