9
Coordinates from ORCA-job run
  C   -0.59876424823718      0.27420440336554     -0.53092855520137
  C   0.16598674487989     -0.19457551700695      0.46317068702309
  H   -0.14420227207907      0.57305139858160     -1.47056489905383
  H   -0.17399285434593     -0.52065890057376      1.43774096438893
  C   -2.01103652430745      0.39043464051643     -0.37693060659350
  N   -3.17776244738757      0.49058945433675     -0.26217461933651
  N   1.61308415287996     -0.30511928019976      0.28139175370253
  O   2.09851887983689      0.04490374962018     -0.78944458135616
  O   2.22916856876046     -0.75282994864004      1.24873985642682
