9
Coordinates from ORCA-job run
  C   -0.99161937283275     -0.32414874648333     -0.04150292735579
  C   0.24892806850168     -0.74971563657093      0.23819883423114
  H   -1.79378346134904     -1.05105430865454      0.05166366376933
  H   0.47344540435492     -1.76285195962513      0.54451909580547
  C   -1.37615194140871      0.98708840735133     -0.45077629729391
  N   -1.81157490115983      2.02531921436383     -0.79238740622026
  N   1.44088038641830      0.08975362436683      0.16485565791829
  O   2.49456797535002     -0.47920587947292      0.45372878674150
  O   1.31530784212541      1.26381528472485     -0.16829940759578
