9
Coordinates from ORCA-job run
  C   -0.63135024603122      0.37634136991887     -0.41892157782729
  C   0.20701216808239     -0.24045869558359      0.42331505556453
  H   -0.28891769743442      0.67044356992691     -1.40638619721756
  H   -0.02032172634247     -0.57827166212166      1.42618068441353
  C   -1.97692672899755      0.65549594418028     -0.04031477523437
  N   -3.09008784680342      0.89190589249068      0.25864329181949
  N   1.58345662855422     -0.51645090859110      0.01240469235454
  O   1.94112216922966     -0.17242127521654     -1.10945752469230
  O   2.27701327974281     -1.08558423500384      0.85553635081944
