9
Coordinates from ORCA-job run
  C   -1.02070855580235     -0.11499057128168      0.18706360183745
  C   0.18482596865514     -0.32401251953409      0.73591080209564
  H   -1.88660399734092     -0.40464274746552      0.77598612353634
  H   0.32306704898714     -0.75755917037223      1.71758143918533
  C   -1.29301499221609      0.44947947507025     -1.09429376355214
  N   -1.64007344636840      0.89922275136048     -2.12455937352256
  N   1.45043372796883      0.00549564887065      0.08723547636393
  O   2.45591499085615     -0.25449420387796      0.74970625443627
  O   1.42615925526049      0.50150133723009     -1.03463056038027
