9
Coordinates from ORCA-job run
  C   -0.74809538006657     -0.05934640797561     -0.39129920287601
  C   0.31478545413157      0.16321673994550      0.39193548679394
  H   -0.63921207516880     -0.63884301259092     -1.30292712317797
  H   0.32552429170276      0.72378323789746      1.31785644107682
  C   -2.03182300816438      0.45577042369827     -0.04686939295840
  N   -3.09735104352763      0.87416557884017      0.22514525340206
  N   1.62292343521580     -0.37483209427028      0.01945413371284
  O   2.53682676003636     -0.11798038517774      0.80336928270307
  O   1.71642156584091     -1.02493408036685     -1.01666487867635
