9
Coordinates from ORCA-job run
  C   -0.62868964389802      0.46944788553132     -0.31728771449466
  C   0.19249897032244     -0.37871283035124      0.31436409228342
  H   -0.23030749320809      1.17295483752198     -1.04193105307397
  H   -0.09041979326691     -1.11957131299551      1.05109075964819
  C   -2.02949018811404      0.46524093201644     -0.05333576605218
  N   -3.18748904712703      0.47343515752883      0.15491527436944
  N   1.62678421790351     -0.35722492574878      0.02830830047716
  O   2.04857576733614      0.44756926850864     -0.79589749794157
  O   2.29853721005199     -1.17313901201168      0.65977360478417
