9
Coordinates from ORCA-job run
  C   -0.98855203345735     -0.33345644137202     -0.04657721445797
  C   0.17820424891716     -0.56723371484615      0.57167862956680
  H   -1.82697875634429     -0.96690906503199      0.22918513979261
  H   0.31123907468935     -1.34184324408514      1.31534187239011
  C   -1.25129381835125      0.66258906481024     -1.03338289729210
  N   -1.58587653147778      1.44040835085405     -1.85031713340649
  N   1.40393736893751      0.18605361793164      0.32431294429633
  O   1.38270848444250      1.09141377710641     -0.50330002439804
  O   2.37561196264415     -0.17102234536704      0.99205868350875
