15

C	-0.561362	-0.000687	-1.412902
C	0.0	0.0	0.0
Cl	0.110462	1.354587	-2.392025
H	1.101157	0.0	0.0
H	-1.640535	0.184195	-1.372935
C	-0.328931	-1.248821	-2.13653
N	-0.195875	-2.266054	-2.709192
C	-0.514207	-1.211078	0.756072
H	-1.609836	-1.216455	0.842212
H	-0.087797	-1.193878	1.763931
H	-0.181907	-2.139287	0.28774
N	-0.51629	1.232629	0.644526
H	0.158128	1.956632	0.40841
H	-0.395948	1.096721	1.644154
F	2.658396	0.0	0.0
