15

C	-0.302548	0.007466	-1.508449
C	0.0	0.0	0.0
Cl	0.127532	-1.533324	-2.335949
H	1.095586	0.0	0.0
H	0.345706	0.765117	-1.954352
C	-1.701191	0.311284	-1.818132
N	-2.826132	0.600555	-2.001071
C	-0.66135	-1.133548	0.749122
H	-1.758355	-1.071049	0.711858
H	-0.351408	-2.105423	0.361172
H	-0.353152	-1.06586	1.794054
N	-0.370801	1.2924	0.576898
H	-1.247562	1.659868	0.221125
H	0.380462	1.945327	0.389285
F	2.641407	0.0	0.0
