15

C	-0.490574	-0.020531	-1.444964
C	0.0	0.0	0.0
Cl	-0.038413	-1.519831	-2.330509
H	1.099606	0.0	0.0
H	0.000159	0.80349	-1.962881
C	-1.94425	0.144734	-1.534539
N	-3.112745	0.26916	-1.553514
C	-0.551108	-1.130189	0.845938
H	-0.304864	-2.105623	0.420979
H	-0.086646	-1.074914	1.833977
H	-1.642332	-1.067787	0.966074
N	-0.371828	1.334729	0.494933
H	-1.136856	1.285712	1.1577
H	0.446152	1.704304	0.965712
F	2.646504	0.0	0.0
