15

C	-0.330909	0.014631	-1.501123
C	0.0	0.0	0.0
Cl	0.151524	-1.491033	-2.35982
H	1.095636	0.0	0.0
H	0.265581	0.807187	-1.953379
C	-1.751079	0.247472	-1.76921
N	-2.898809	0.458946	-1.904698
C	-0.632099	-1.152176	0.749598
H	-0.316313	-2.114658	0.342194
H	-1.72999	-1.104859	0.739218
H	-0.298669	-1.093223	1.786871
N	-0.383128	1.279379	0.596749
H	0.352095	1.94949	0.40351
H	-1.273003	1.634809	0.258864
F	2.639742	0.0	0.0
