13
Coordinates from ORCA-job run
  C   0.60700268608546     -0.28325891702662      0.57805239001209
  C   -0.39021006867105     -0.09018680419829     -0.56914747548695
  Cl  0.89062575815919     -2.02664052671157      0.76699989960321
  H   -0.01827388977551     -0.59076776934676     -1.46349121205049
  H   0.14123596629445      0.05473950622240      1.50924667459092
  N   1.83928518459044      0.36779423816527      0.20180126299759
  H   1.75261142111276      1.36960392305201      0.33823166316804
  H   2.59903198837814      0.03465975317660      0.78202845673651
  C   -0.60931364095698      1.33217361564570     -0.80382797666352
  N   -0.73748276161942      2.48870431893518     -0.96258064071873
  N   -1.70852398284022     -0.73000647248224     -0.21551749536727
  O   -2.23821215688808     -0.33510804143427      0.81765164534397
  O   -2.12577650386920     -1.59170682399742     -0.97944719216536
