13
Coordinates from ORCA-job run
  C   0.92505250247331      0.31739080572154      0.07900919029938
  C   -0.50326985147289      0.49863494590514     -0.43784427031683
  Cl  1.38475773551122      1.90162388735785      0.86726092831722
  H   -0.55653838747741      1.37046145212996     -1.09268300537460
  H   1.58874172026820      0.22406236570771     -0.77856824924294
  N   1.00828996460226     -0.82830497674324      0.89232327829093
  H   1.96353251256032     -1.08547399887946      1.09851849185456
  H   0.48398317000505     -0.73896893853602      1.75439701913797
  C   -1.46693703878547      0.60246823007608      0.64885889469695
  N   -2.20584194864739      0.69951031357274      1.55602262237863
  N   -0.81342789630739     -0.70261764271277     -1.31248557181110
  O   -1.69105786510456     -1.47534966399570     -0.95840107749764
  O   -0.11528461762523     -0.78443677960381     -2.31640825073254
