13
Coordinates from ORCA-job run
  C   0.57793319016480     -0.30728194315132      0.59507502384494
  C   -0.33151884587571     -0.04668056229479     -0.61021447755740
  Cl  0.99283241877432     -2.03434347876689      0.60261207578500
  H   0.15710231203171     -0.40053186554533     -1.51850699552117
  H   0.00817539467277     -0.12409669440012      1.51162429276633
  N   1.77736700386231      0.47632284122477      0.41622487428518
  H   1.59396903145891      1.44318704594986      0.66433415935777
  H   2.51151675383033      0.12945924586694      1.02093817759742
  C   -0.65182268894162      1.37329509916492     -0.69485657128212
  N   -0.86819303456572      2.52713262452687     -0.72621802726813
  N   -1.61487657959186     -0.82295588789445     -0.46124688185783
  O   -2.26243702220694     -0.60138892695908      0.55610080942475
  O   -1.88904793361330     -1.61211749772138     -1.35686645957474
