13
Coordinates from ORCA-job run
  C   0.90682480184047      0.35329097365359      0.12626761317801
  C   -0.51486265225006      0.50387451287132     -0.41824139031984
  Cl  1.26980794110017      1.90008950775581      1.03149112202164
  H   -0.59198156363634      1.41390288508260     -1.01627247426303
  H   1.59628981974335      0.34904526535009     -0.71592995003526
  N   1.02358783091511     -0.83984084224431      0.86342589045510
  H   1.98421156478605     -1.06854179256823      1.07726552382643
  H   0.47440125694937     -0.83369087712569      1.71452845249352
  C   -1.50968508017992      0.49207299455831      0.64506192435319
  N   -2.27538637345517      0.49585980811246      1.53510172809984
  N   -0.74590716030051     -0.64958552777677     -1.37742431269534
  O   -1.59552096739173     -1.48254145307177     -1.09941115991845
  O   -0.01877941812080     -0.63393545459742     -2.36386296719581
