13
Coordinates from ORCA-job run
  C   0.54033399311518     -0.22674082735375      0.65750226167966
  C   -0.32258778691504      0.02936689805571     -0.57795355873532
  Cl  0.91121368733547     -2.01211748731716      0.67071017000121
  H   0.20037579894428     -0.27716195111207     -1.48651933907869
  H   -0.05876373354090     -0.04714481992370      1.54902568177180
  N   1.66848245846909      0.62133944893976      0.63301203626290
  H   2.15661770164800      0.62689633780968      1.51795889872073
  H   2.31671454423432      0.37802120473012     -0.10521288251438
  C   -0.72875945614249      1.42850183562578     -0.64961044991992
  N   -1.07157584741755      2.54940535415020     -0.71801356007030
  N   -1.57076964370620     -0.82167579728550     -0.51373586452139
  O   -1.80176191460935     -1.53424201983665     -1.48201076971323
  O   -2.23951980141481     -0.71444817648241      0.50684737611693
