13
Coordinates from ORCA-job run
  C   0.53503362019642     -0.22504267903589      0.66242813929134
  C   -0.32677213089378      0.02052272280880     -0.57622916803857
  Cl  0.81561265039075     -2.02478360334817      0.75121390337966
  H   0.17211915271260     -0.35003601938516     -1.47442690589579
  H   -0.04499289567925      0.02306161840036      1.55011503510361
  N   1.70380571911964      0.56298866923257      0.59142906426315
  H   2.33259138339605      0.25431680134221     -0.13911878507149
  H   2.19889591580306      0.58562789561996      1.47217434951509
  C   -0.66319877890875      1.43401185603286     -0.70482208061316
  N   -0.94996865385169      2.56681757012732     -0.81943664006732
  N   -1.61474308347137     -0.76346331395480     -0.46566701512274
  O   -1.89020404741565     -1.50488973064674     -1.40011047825265
  O   -2.26717885139804     -0.57913178719333      0.55445058150886
