13
Coordinates from ORCA-job run
  C   0.93061257655328      0.37623329237763      0.17131328395182
  C   -0.46870026853647      0.50964744881138     -0.43908646439008
  Cl  1.39079660116199      1.99563793686813      0.78527834869651
  H   -0.47935605600817      1.33920555107695     -1.14614701141703
  H   1.62826746884775      0.18249133282597     -0.65332849421040
  N   0.92380932908106     -0.56585375977093      1.24181593072826
  H   1.86145641463252     -0.79957060725868      1.53856393577104
  H   0.41244607555551     -1.40657929274371      1.00324864724384
  C   -1.51290008858737      0.66792997327689      0.56371835027925
  N   -2.38451999925936      0.80940330429311      1.33690105452337
  N   -0.72630984129862     -0.73234585925707     -1.26676775548992
  O   -1.12945418851200     -1.73179577495331     -0.67887942493799
  O   -0.44514802363011     -0.64440354554636     -2.45663040074867
