13
Coordinates from ORCA-job run
  C   0.68473884920315      0.35769101562394      0.54174245253985
  C   -0.35069380973791      0.29699579450065     -0.59004998451728
  Cl  -0.21458876611399      0.08652627198093      2.11220147860332
  H   0.19690898688226      0.25319947966849     -1.53659553895258
  H   1.03062197975623      1.38950503432283      0.60873318051368
  N   1.78170904574815     -0.49538968029581      0.30068030794476
  H   1.50344914576707     -1.46676886860439      0.25841334756927
  H   2.50435323371440     -0.36913811653957      0.99654542984363
  C   -1.24179079035697      1.44790209616105     -0.56965444109038
  N   -1.89892508103587      2.42060859742594     -0.56736879183536
  N   -1.15008591549291     -0.98897383139125     -0.52861120820328
  O   -2.36742610693641     -0.91594724077570     -0.46070138698836
  O   -0.47827077139720     -2.01521055207712     -0.56533484542727
