13
Coordinates from ORCA-job run
  C   0.95754716586759      0.44727083174574      0.20072241367251
  C   -0.46266720249147      0.51735083310882     -0.39705446941288
  Cl  1.17741624094095      1.98914088764695      1.08665769858282
  H   -0.57272168148313      1.40847452380787     -1.02258619915305
  H   1.66719205353922      0.45218842724930     -0.62396907746208
  N   1.22765910896212     -0.66125032325141      1.04405193433307
  H   0.53174382585354     -0.80016967922059      1.76474339025547
  H   1.39754631587618     -1.50611844318202      0.51758297936974
  C   -1.48385637059403      0.49088568373447      0.64034768843751
  N   -2.25453455713852      0.46242193616854      1.52576018110093
  N   -0.67901731424394     -0.66038368706612     -1.33802627361594
  O   0.31503617455859     -1.06005047076525     -1.93579630999669
  O   -1.82134375964709     -1.07876051997631     -1.46343395611140
