13
Coordinates from ORCA-job run
  C   0.60312680559058     -0.27930466967330      0.69043761221671
  C   -0.28672371352571     -0.07969486945666     -0.55534583860564
  Cl  1.14571558423370     -1.97874125450294      0.65865342251440
  H   0.25471842904795     -0.35885642087321     -1.46165483542001
  H   -0.02342580561550     -0.15453753925404      1.57439799729960
  N   1.72385070388544      0.59667106242645      0.76961123884915
  H   2.28023440108852      0.60273871093417     -0.07502127987269
  H   1.45092745186333      1.53618689183391      1.02608545985650
  C   -0.74539170642809      1.30281030714210     -0.61522962020366
  N   -1.06945138634824      2.43167162931617     -0.62571058068017
  N   -1.49147460189947     -0.98669917723305     -0.48563211162375
  O   -1.65300447763419     -1.76548530653805     -1.41655017746326
  O   -2.19110168425832     -0.86675936412153      0.51395871313282
