13
Coordinates from ORCA-job run
  C   0.61125578452001     -0.23669463910161      0.58776737540814
  C   -0.38145330824778      0.04333587019291     -0.54056750423519
  Cl  1.03323727116385     -2.00730802646858      0.48096784793470
  H   0.05433234278090     -0.20521372118143     -1.51074654732518
  H   0.10227891264980     -0.11527323472090      1.54290760396147
  N   1.70571769126818      0.64921256762195      0.48749683187586
  H   2.27979955725549      0.63712433749229      1.31906196327784
  H   2.28319327791713      0.45745435348520     -0.32132480580746
  C   -0.83312174090426      1.42983000403727     -0.50513309456300
  N   -1.21313664121497      2.54060083798262     -0.48583589342837
  N   -1.59096885009575     -0.85146364493120     -0.39023855875887
  O   -1.90005189863533     -1.52773203587126     -1.36272589050201
  O   -2.15308239845727     -0.81287266853726      0.69737067216207
