13
Coordinates from ORCA-job run
  C   0.74075401464123      0.33228208229656      0.58575618381156
  C   -0.42080838129604      0.31410654132624     -0.44943306524851
  Cl  0.02433283889591     -0.01136610158023      2.18824820076598
  H   0.02035049303184      0.36521624640970     -1.44913664127018
  H   1.09683759139622      1.36401898530776      0.62202200021842
  N   1.84236910941787     -0.52763783319138      0.33049036690283
  H   1.54855620155996     -1.46006638529608      0.07340300732675
  H   2.46234178881566     -0.14300709063244     -0.36895282626561
  C   -1.34886903805473      1.41711972418524     -0.25297810439828
  N   -2.03396231628037      2.35995759173653     -0.10976535737463
  N   -1.14854174682213     -1.00782113395950     -0.40295866697201
  O   -2.30814079699921     -1.02613530235462     -0.01767532822169
  O   -0.47521975830623     -1.97566732424780     -0.75001976927465
