13
Coordinates from ORCA-job run
  C   0.67810227461324     -0.29791740655292      0.47663045038169
  C   -0.43706367000682      0.11228519796826     -0.48511779111041
  Cl  1.15286597369713     -1.99940340170106      0.02606483406748
  H   -0.09600866309966      0.05417554638018     -1.52112910940863
  H   0.26769963997810     -0.36631831082899      1.48308072800517
  N   1.72197663006330      0.65114715119953      0.42499030288255
  H   2.21705358666760      0.63034947761775     -0.45760124565399
  H   2.38144766135630      0.52905672888150      1.18101490284297
  C   -0.93496897968696      1.44614929018764     -0.16821178894288
  N   -1.35314049748921      2.51521305190180      0.07838291086535
  N   -1.58935255037262     -0.86036926576174     -0.37531632378220
  O   -1.97142405497710     -1.38131654744600     -1.41522835479813
  O   -2.03718735074330     -1.03405151184596      0.75144048465102
