13
Coordinates from ORCA-job run
  C   0.71252049813016      0.30271262822165      0.63479025452111
  C   -0.39411856038674      0.33369017664158     -0.45845114053822
  Cl  -0.09028641072052     -0.08818237215665      2.18517379013287
  H   0.09859038229319      0.41455641841053     -1.43178512194013
  H   1.07560006165695      1.32858354278356      0.72594811793547
  N   1.81769795991568     -0.55956623887498      0.40667470932503
  H   2.48041398252840     -0.15586897842149     -0.24071922204517
  H   1.53010101584425     -1.47842524365913      0.09894595563221
  C   -1.32052310840238      1.43991688341745     -0.27214544694866
  N   -2.00431798511163      2.38553343027961     -0.14175852587735
  N   -1.13615831103214     -0.98045128758622     -0.49570463563215
  O   -2.31503206132008     -0.99826830864372     -0.17423551083680
  O   -0.45448746339513     -1.94423065041218     -0.83773322372823
