13
Coordinates from ORCA-job run
  C   0.63613320161974     -0.31554544993405      0.52730758490997
  C   -0.40094722644954     -0.04302300203135     -0.56714015673081
  Cl  1.01377937135956     -2.05089860221302      0.50095774479611
  H   -0.02811295747163     -0.41290081959766     -1.52270832941296
  H   0.17984045679371     -0.11499300198508      1.50186864311032
  N   1.82255559400367      0.44152159530404      0.20501514328360
  H   1.69014798707261      1.41279910318330      0.46751075252194
  H   2.61519518528428      0.08029842040284      0.72085723320553
  C   -0.69992368602226      1.38296011425513     -0.62656549855683
  N   -0.89442866988693      2.54101923299925     -0.64460881121248
  N   -1.67388935144207     -0.79145947647881     -0.26453256861718
  O   -2.19307950121676     -0.55330964493240      0.82054663977068
  O   -2.06727040364438     -1.57746846897220     -1.11750837706789
