13
Coordinates from ORCA-job run
  C   0.92119922887734      0.43939798373415      0.27564009785972
  C   -0.46718102440124      0.55641547832138     -0.40484313552567
  Cl  1.10800014221210      1.92377180520081      1.25743454716066
  H   -0.52281466586538      1.47048070532465     -0.99843264638703
  H   1.67073311080247      0.48437459766176     -0.51608721798678
  N   1.12986177523260     -0.71957850818187      1.06297321399595
  H   1.34870299149713     -1.53736494137930      0.51251126099470
  H   0.38203570809530     -0.90420901484644      1.71851634246643
  C   -1.55234487062759      0.48134050729768      0.56032239765501
  N   -2.39521210332348      0.42543891067760      1.37585566556661
  N   -0.54930123783680     -0.59103233918798     -1.38148196216194
  O   -1.18156907157018     -1.58935334667657     -1.05611306501134
  O   0.10889001690773     -0.43868183794587     -2.40629549862632
