13
Coordinates from ORCA-job run
  C   0.66393878819517     -0.29962973373955      0.62360306407935
  C   -0.34488744750588     -0.06965733685149     -0.52229311806061
  Cl  1.15266165337967     -2.01349789241347      0.53152481647032
  H   0.09102317115302     -0.35969117218370     -1.48051176579587
  H   0.13639296307659     -0.16232365508741      1.56825283738134
  N   1.81059657768565      0.54462057281049      0.58764600737343
  H   1.59326250789678      1.48956691258035      0.87504650075431
  H   2.27705148935760      0.53996576948207     -0.30974397621845
  C   -0.76724899246112      1.32568483737006     -0.53219251563791
  N   -1.05849338955287      2.46336085007288     -0.50952474931250
  N   -1.56133097352009     -0.94187353499332     -0.32907129996361
  O   -2.14912931735333     -0.80740568676334      0.73842389730425
  O   -1.84283703035120     -1.71011993028359     -1.24015969837404
