13
Coordinates from ORCA-job run
  C   0.72690470959422      0.33187543867426      0.60313003852127
  C   -0.40870916509152      0.31409990211471     -0.46029911772457
  Cl  -0.02999834228244     -0.00553773688997      2.18843139292863
  H   0.05745096803014      0.36125457463646     -1.44881078052659
  H   1.08511059373708      1.36264892133894      0.64538931519077
  N   1.83202386252736     -0.53194161595518      0.37805812049657
  H   2.46986920717196     -0.15139575615642     -0.30747600669940
  H   1.54176408551822     -1.46448915963536      0.11712863457714
  C   -1.33846461175337      1.41995740469208     -0.29020291513300
  N   -2.02433696434729      2.36503763281597     -0.16670605622445
  N   -1.14069556721918     -1.00587383398031     -0.42894216930702
  O   -2.30917718726480     -1.02066607867390     -0.07133711162320
  O   -0.46174158862037     -1.97596969298128     -0.75836334447616
