13
Coordinates from ORCA-job run
  C   0.66692299281817      0.26799006449565      0.63715225554960
  C   -0.37769113046248      0.41872331289312     -0.48041933474302
  Cl  -0.10347581114704      0.07857427277905      2.22683607892641
  H   0.14901565964754      0.65467541555446     -1.40943918967359
  H   1.19648606265840      1.22835999085868      0.68854087923546
  N   1.47094834598404     -0.89134737581138      0.36853825659437
  H   2.17583623757516     -1.00510925473730      1.08545176165887
  H   1.92151389809063     -0.82450877889470     -0.53700103854461
  C   -1.36350010840849      1.45013952093929     -0.19617330011952
  N   -2.12885300799733      2.31181123825166      0.02683251593797
  N   -1.05230115475094     -0.90664352696656     -0.74220847949280
  O   -0.56968081160411     -1.56781368107895     -1.65464793998065
  O   -1.98522117240355     -1.21385119828300     -0.01346246534849
