13
Coordinates from ORCA-job run
  C   0.91033123800586      0.47999768697086      0.24068544913813
  C   -0.48655114789731      0.51841819885312     -0.43101714740404
  Cl  1.06199858669296      2.02290006243284      1.13402321758746
  H   -0.57413126750622      1.39598348081485     -1.07376664532439
  H   1.65150093274484      0.50052130677180     -0.55980149526766
  N   1.15989202954789     -0.62460090079208      1.09162631043784
  H   0.42579257170407     -0.78837222973101      1.76768223486174
  H   1.39212630137390     -1.46799305427881      0.58740943025599
  C   -1.56059270555747      0.46497709796232      0.54795834374343
  N   -2.39587015696460      0.43090796261010      1.37244280546402
  N   -0.54339038915862     -0.68350548419512     -1.34221732706247
  O   -1.14696554645468     -1.67858516146560     -0.95764887503547
  O   0.10485955346938     -0.57064896595327     -2.37837630139458
