13
Coordinates from ORCA-job run
  C   0.95256686972591      0.33088665713973      0.13376253072984
  C   -0.42908967763062      0.47157815808748     -0.51407430742909
  Cl  1.51796379862742      1.98586220039186      0.52570875078358
  H   -0.37663893464279      1.19293533356147     -1.32957323072102
  H   1.64230436039303     -0.02162562957704     -0.64366932223199
  N   0.87253038342664     -0.45015862071750      1.32373943664043
  H   0.30523074303862     -1.27913150059863      1.19654624928277
  H   1.78920320169085     -0.70233305546733      1.66714235800932
  C   -1.46716450985255      0.84004737372658      0.43862403731313
  N   -2.32434426972085      1.16890456844293      1.16985932349475
  N   -0.76642021466074     -0.85323694130635     -1.16544383784440
  O   -0.47622166563761     -0.95065024953644     -2.35226022823501
  O   -1.24092008475730     -1.73107829414676     -0.45036175979232
