13
Coordinates from ORCA-job run
  C   0.74355669580516     -0.36759952852806      0.48021606974777
  C   -0.37832926685124      0.02981720885520     -0.50344633959843
  Cl  1.41202791741807     -1.91270176599815     -0.11226542803396
  H   0.00507777585235      0.07049242180752     -1.52504930028219
  H   0.28557253730254     -0.56236768849493      1.45070089362808
  N   1.78022610353262      0.59811688750436      0.62432644574327
  H   2.16490803920802      0.90161554560002     -0.26040836906650
  H   1.48443460627269      1.39054336386251      1.17866456706217
  C   -0.95386842419788      1.30748113516861     -0.10155043575472
  N   -1.36669156716800      2.34825234981417      0.25339359087488
  N   -1.46788131438005     -1.01432115326161     -0.50113101151095
  O   -1.73601085610349     -1.53823321961269     -1.57495521757314
  O   -1.97502224669078     -1.25209555671696      0.58950453476373
