13
Coordinates from ORCA-job run
  C   0.94441782118711      0.36887513579542      0.30125779141045
  C   -0.39272641096689      0.56986419625597     -0.45805936399902
  Cl  1.21927966574129      1.88367146856287      1.21076720768475
  H   -0.33758883341904      1.45260950694144     -1.09731371523593
  H   1.73204734605423      0.29917010169633     -0.45087768982114
  N   1.00881972487627     -0.75411916857091      1.16353157622750
  H   1.14424849590965     -1.62379503822202      0.66791983029047
  H   0.22775057177168     -0.81358824773656      1.80346680669953
  C   -1.52695183241746      0.63924161027817      0.44924245537544
  N   -2.41322148540972      0.70186973743909      1.21689328356290
  N   -0.52935677672922     -0.61509980054150     -1.38348386402832
  O   0.17698471589390     -0.56601930894283     -2.38577891560384
  O   -1.25270300249179     -1.54268019295548     -1.03856540256277
