13
Coordinates from ORCA-job run
  C   0.60685408433741     -0.33373268299643      0.54776644356376
  C   -0.34970589806390     -0.00380197664297     -0.60315183769102
  Cl  1.08277891318344     -2.03763208745500      0.39086638650061
  H   0.12245221361198     -0.25714180516726     -1.55276938994404
  H   0.06055214525503     -0.25270969354608      1.49292973551324
  N   1.77115221146362      0.50791471922241      0.40455803630394
  H   2.53954914606733      0.13239259639541      0.94618358561228
  H   1.56477060774854      1.43898456534359      0.75100541737232
  C   -0.72506230056672      1.40410769218650     -0.54939428343347
  N   -0.98889224993999      2.54574412276159     -0.46752495151143
  N   -1.59700355945178     -0.84210443388246     -0.48675619435174
  O   -1.86291405379989     -1.56915681705684     -1.43602062474053
  O   -2.22253125984508     -0.73286419916248      0.56230767680609
