13
Coordinates from ORCA-job run
  C   0.94070101350812      0.31105416189551      0.20986335063253
  C   -0.40699384818108      0.47520301099632     -0.50070763867471
  Cl  1.46280921017498      1.95044107495354      0.69013111046227
  H   -0.34751929173443      1.28427555759023     -1.22979601429272
  H   1.67171695784892     -0.01775261631482     -0.54086320075232
  N   0.82176724207635     -0.50038737145767      1.38388066511042
  H   1.70780810863532     -0.54688757085525      1.87090769516353
  H   0.53082916724993     -1.43460333588329      1.12141138933754
  C   -1.50803067133334      0.71795464569803      0.42512855481929
  N   -2.42294675748001      0.93223989302815      1.12849661963548
  N   -0.73438233168371     -0.75911036856495     -1.32023033286552
  O   -0.50312285153375     -1.85119895743554     -0.80882750866635
  O   -1.21363594754729     -0.56122812365024     -2.42939468990944
