13
Coordinates from ORCA-job run
  C   0.94176086288791      0.24796539408032      0.11588786849874
  C   -0.43057136536123      0.49636897524654     -0.51325127347727
  Cl  1.48682916058719      1.85526999847901      0.79673057270910
  H   -0.36635561403625      1.30595174471153     -1.24277903859254
  H   1.64731569996067      0.02412597153307     -0.68214391077830
  N   0.87481116581727     -0.82226104212954      1.02730382598783
  H   0.30849545601499     -0.61376995127243      1.84085040090007
  H   1.78936915238778     -1.13780518986667      1.31874316408815
  C   -1.44724322310993      0.77708538298802      0.49061244125112
  N   -2.22947569817894      1.01670356490750      1.33266555563488
  N   -0.78798409245096     -0.75136145896597     -1.30005913843191
  O   -1.74983558066384     -1.41475752027308     -0.94283483877444
  O   -0.03711592385467     -0.98251586943828     -2.24072562901543
