13
Coordinates from ORCA-job run
  C   0.62794173190125     -0.31641117760298      0.65125560912623
  C   -0.29998255944308     -0.04352402175661     -0.55230329961403
  Cl  1.21014687625219     -1.99361528701544      0.47214058077952
  H   0.22368750624123     -0.23566592862331     -1.49105083729329
  H   0.02251978038316     -0.27730811368269      1.55757962054832
  N   1.72895188906547      0.57934769247289      0.77100605743300
  H   2.26366549571031      0.66480174779704     -0.08312679810450
  H   1.44136591121035      1.48868112544657      1.10735858398840
  C   -0.79311516201537      1.32698148857876     -0.49086302699952
  N   -1.14455584597835      2.44443602426214     -0.40540914952176
  N   -1.47978701978580     -0.98431071335250     -0.52478574920881
  O   -1.64796862813587     -1.69150347777552     -1.51019874590017
  O   -2.15486997540549     -0.96190935874835      0.49839715476662
