13
Coordinates from ORCA-job run
  C   0.66492381542934      0.33088008654967      0.58122455328291
  C   -0.33605480632936      0.32744016589950     -0.58286894238490
  Cl  -0.27806786490699     -0.03691728128314      2.10561040753339
  H   0.23908994165952      0.34108549165081     -1.51379638491633
  H   0.99919940452335      1.35964379651144      0.71806201950339
  N   1.77678608315154     -0.49830964398872      0.32437499984813
  H   1.50944358088613     -1.46813120002911      0.21990335963376
  H   2.47782419127047     -0.40537745214215      1.04703188057906
  C   -1.23751576858420      1.46879248947065     -0.52334259690534
  N   -1.90305456357417      2.43506850475613     -0.48560466085806
  N   -1.12540372998152     -0.96586082605472     -0.61774240285919
  O   -2.34474894199069     -0.90598080748702     -0.58068401751724
  O   -0.44342134155342     -1.98333332385333     -0.69216821493957
