13
Coordinates from ORCA-job run
  C   0.73139419692792      0.32174615421813      0.60333368027488
  C   -0.41462126002212      0.32206734025907     -0.44939444194828
  Cl  -0.00862441979830     -0.05398706884220      2.18734685061595
  H   0.04081461274976      0.39373999551766     -1.44144759851539
  H   1.08488211775508      1.35318707045183      0.66424166807679
  N   1.83850103248399     -0.53151038373742      0.34827235525535
  H   1.54925846432844     -1.45865537588003      0.06750787955460
  H   2.46709907023657     -0.13217838070618     -0.33520153281345
  C   -1.34752154150302      1.41938726011404     -0.24420814714273
  N   -2.03623155710829      2.35805535704463     -0.09134577373104
  N   -1.14037765553847     -1.00172152115421     -0.44015338379913
  O   -0.46015103170505     -1.96130366086979     -0.79664060795005
  O   -2.30542202880653     -1.02982678641552     -0.07231094787749
