13
Coordinates from ORCA-job run
  C   0.72602186033618      0.30092175292075      0.62032098382439
  C   -0.41306711923119      0.33769455471004     -0.43924483115368
  Cl  -0.02212662734452     -0.14088324831648      2.18361840460349
  H   0.04932979239801      0.44956229681602     -1.42431741425148
  H   1.07424057291324      1.33068148711487      0.72489811053318
  N   1.83868106490125     -0.53647444261477      0.33910703546300
  H   2.46932923985727     -0.10849614217226     -0.32481223001716
  H   1.55616717069507     -1.45397486284798      0.02219803360663
  C   -1.35197646024770      1.42279160447171     -0.19913409947021
  N   -2.04579138789732      2.35219655462519     -0.01585180749229
  N   -1.13315875628983     -0.98824363946449     -0.48608313016228
  O   -2.30007275842448     -1.03541405006018     -0.12632710337519
  O   -0.44657659166602     -1.93036186518250     -0.87537195210839
