13
Coordinates from ORCA-job run
  C   0.71881895176948      0.28570125847585      0.63648896483182
  C   -0.39558925367384      0.34637699990385     -0.44768580402282
  Cl  -0.07417698064218     -0.13616234910911      2.18353925967055
  H   0.09004770735456      0.44718935262257     -1.42271364125331
  H   1.08788699434908      1.30748656969563      0.74749877332153
  N   1.81804679405277     -0.57688758076180      0.38137798934378
  H   2.47496346118372     -0.16405887226806     -0.26630112605198
  H   1.52327848656619     -1.48847893563416      0.05894908381085
  C   -1.31566819489679      1.45192785209639     -0.22925849921058
  N   -1.99547106020207      2.39634940004947     -0.07198961427272
  N   -1.14337395147691     -0.96367378938346     -0.50969798528829
  O   -2.31890953870171     -0.98482147009495     -0.17646262123432
  O   -0.46885341568228     -1.92094843559222     -0.88274477964449
