13
Coordinates from ORCA-job run
  C   0.94012830748825      0.40429296484326      0.26356280433936
  C   -0.41471639669323      0.53921779645891     -0.47714639492906
  Cl  1.19847313000429      1.96926242769992      1.09226508280885
  H   -0.38983237640201      1.38759850572733     -1.16312285602826
  H   1.71544334119921      0.31567883905376     -0.49903119273459
  N   1.04436722929191     -0.67491795619243      1.17515778585449
  H   1.21940183479793     -1.56032607385332      0.72255794870707
  H   0.26831110417996     -0.73614887743768      1.82079211308088
  C   -1.53219878367490      0.63551105016416      0.44841327478659
  N   -2.40357038671587      0.72092198210272      1.23077350983867
  N   -0.54545119216653     -0.69602118533667     -1.33539079384060
  O   0.15479716889928     -0.69449561332531     -2.34347412810579
  O   -1.25715298020829     -1.61057385990465     -0.93635715377762
