13
Coordinates from ORCA-job run
  C   0.74323110152805      0.31304532106658      0.48957637484230
  C   -0.44753400692162      0.36138792809985     -0.47829389902952
  Cl  0.10247705481837     -0.25370051544575      2.10688726027848
  H   -0.04792638709533      0.49930690870130     -1.48771104057906
  H   1.05323356504085      1.34218925881733      0.67287405689933
  N   1.82511710452421     -0.42059206160808     -0.04061494389704
  H   2.63903730544259     -0.35671581688870      0.55577017667339
  H   1.58335608366058     -1.38983395118625     -0.19921813985264
  C   -1.37140654306876      1.43578548241408     -0.14503095962215
  N   -2.05944913628559      2.35260637663707      0.10797475035256
  N   -1.17510026161974     -0.96747442000874     -0.51268021700784
  O   -2.36990963058811     -0.98465627261741     -0.25980494781264
  O   -0.47512624943551     -1.93034823798128     -0.81072847124516
