13

C	0.0	0.0	0.0
C	-0.547167	0.064431	-1.447434
Br	1.949982	0.0	0.0
H	-1.622919	0.264505	-1.300373
H	-0.327874	0.872906	0.566602
C	-0.422201	-1.230242	0.664326
N	-0.627367	-2.264273	1.183482
N	-0.424425	-1.148915	-2.224119
H	0.493136	-1.56485	-2.110339
H	-1.13112	-1.799558	-1.900851
C	0.046973	1.201281	-2.157281
N	0.506089	2.120764	-2.725962
Br	-3.540183	0.0	0.0
