13

C	0.0	0.0	0.0
C	-0.532878	0.028928	-1.454368
Br	1.947169	0.0	0.0
H	-1.621698	0.159962	-1.321458
H	-0.339875	0.880277	0.547208
C	-0.406654	-1.223932	0.682805
N	-0.591221	-2.256742	1.21151
N	-0.308852	-1.165615	-2.237249
H	-0.948692	-1.88219	-1.916635
H	0.643931	-1.495654	-2.13353
C	-0.002566	1.207408	-2.145772
N	0.410222	2.158154	-2.697896
Br	-3.533268	0.0	0.0
