12
Coordinates from ORCA-job run
  C   0.36394978586858      1.03933780308781      0.07601136991142
  C   0.18839404932429     -0.44982747951257      0.40116665386558
  F   1.04835523243928      1.21513699121240     -1.09295337040317
  H   -0.17692943807025     -0.56064597361547      1.42528402166650
  H   0.95532609535803      1.48311704817308      0.88411832370375
  C   -0.94403250079271      1.70478679976015      0.01732195267768
  N   -1.99249489786200      2.23259567350567      0.01562503649498
  C   1.44325385712276     -1.17049887650178      0.22563173811449
  N   2.46147771462690     -1.74143053729981      0.10039997149690
  N   -0.86875929999183     -1.09317786999043     -0.47772685601635
  O   -0.86864706330865     -0.76958282274268     -1.65749648855774
  O   -1.60989353471438     -1.89081075607637      0.08261764704595
