12
Coordinates from ORCA-job run
  C   0.35334310856972      0.99833613302240      0.25529346082081
  C   0.13599028775089     -0.51896851535658      0.34587053968029
  F   1.08836674263254      1.33686396366328     -0.85048959375475
  H   -0.36273636307736     -0.74318915147324      1.28914009907436
  H   0.91263167471723      1.30433825826011      1.14791016713914
  C   -0.95138364818243      1.67955293158259      0.21837123211693
  N   -2.00588627565848      2.19533799846637      0.19940407481804
  C   1.40983742889409     -1.21428967078086      0.22986981501296
  N   2.47775786813604     -1.69696995799874      0.17032811045655
  N   -0.79869356291915     -0.99341947056204     -0.74154885955154
  O   -1.87774728217108     -1.44366265244522     -0.37514755838167
  O   -0.38147997869201     -0.90392986637806     -1.89000148743112
