12
Coordinates from ORCA-job run
  C   -0.47274726365604      0.87303104373732      0.23798884199446
  C   0.29152285086335     -0.44838717113136      0.14182532047421
  F   -1.26268467499649      0.81283790361891      1.36156086132579
  H   0.86867627583913     -0.62361317493351      1.05178383695920
  H   -1.11776698226738      0.98667996144199     -0.63651704140618
  C   0.46749322121109      1.99295819213752      0.34191093189765
  N   1.22644028272080      2.88464737958035      0.42645366661878
  C   1.13045447807368     -0.49084576333603     -1.04737560498656
  N   1.80313562446279     -0.50539874005654     -2.01012225238715
  N   -0.73503928473449     -1.56426846157814      0.06440987388788
  O   -0.61081181403932     -2.47250416159657      0.87392621995691
  O   -1.58867271347711     -1.44613700788395     -0.80484465433499
