15
Coordinates from ORCA-job run
  C   -0.32272368326686      0.03094168734401     -0.34542741830857
  C   0.75927207108693     -0.34003155092390      0.66024856598814
  Br  0.70408332176734      0.19918538913266     -2.16182267941216
  H   1.25025175462874     -1.26224921995991      0.32714262368220
  H   0.23882417755472     -0.54539061865981      1.60233230680877
  C   -1.32558222669905     -1.07612461467914     -0.58225873252436
  H   -1.87328759341746     -1.24948841852993      0.34889114171764
  H   -0.82888993649065     -1.99563331583306     -0.89271268941473
  H   -2.03866999408605     -0.79431739962281     -1.35931250201872
  N   -0.92318759975180      1.23164979207848      0.03123858509639
  H   -1.57303615557666      1.59608417726646     -0.65087131802319
  H   -0.22296035284078      1.91449992968144      0.29618022391938
  N   1.65896326461189      0.78732079579076      0.87296749580219
  H   2.32924938865482      0.83044824961471      0.11505110784913
  H   2.16769356382489      0.67210511730005      1.73935328883790
