15
Coordinates from ORCA-job run
  C   -0.16614455950996      0.08620629392069     -0.68529065150277
  C   1.16771557748726     -0.02746871245497      0.05440930870704
  Br  0.22553156955342     -0.28757026577223     -2.59432863340409
  H   1.84362505193010      0.71017065222435     -0.38214940418160
  H   1.59143482335557     -1.02308933706573     -0.12045895945111
  C   -1.16827161790919     -0.96505340436115     -0.22739192101611
  H   -0.77652217040123     -1.97830335961429     -0.34420576069384
  H   -1.40555926249356     -0.78416785566581      0.82549118517682
  H   -2.09223874951232     -0.88889225435667     -0.80463537565924
  N   -0.61999474062670      1.44399768822140     -0.57684014651551
  H   -0.54401930947326      1.70128385695345      0.40295105689806
  H   -1.58377649815183      1.53120613770684     -0.87577087811348
  N   0.95762791321531      0.29092806514533      1.46924078781772
  H   0.79272150723776     -0.55062807856980      2.00540766517587
  H   1.77687046529862      0.74138057368858      1.85357172676224
