15
Coordinates from ORCA-job run
  C   -0.16270250278851      0.08857235711571     -0.68583754540570
  C   1.16779663758316     -0.03782899141754      0.05767157884942
  Br  0.23066207929389     -0.29047689098431     -2.59333429305195
  H   1.85117829308273      0.69464173226152     -0.37588905972362
  H   1.58344837683669     -1.03690839267359     -0.11735669920569
  C   -1.17674545220923     -0.95237041016074     -0.23033093341603
  H   -2.09713464609942     -0.86891843056952     -0.81222177221468
  H   -0.79391042596835     -1.96946396585318     -0.34334094435131
  H   -1.41760355190611     -0.76754637296692      0.82104424530065
  N   -0.60325578981454      1.45092889215039     -0.57955091298341
  H   -0.52455935213748      1.70931559775878      0.39973561085161
  H   -1.56631516837257      1.54678367057360     -0.87819818250447
  N   0.95652399408689      0.28184934118183      1.47208929900788
  H   1.78491778372002      0.71004778389595      1.86239338915562
  H   0.76869972469285     -0.55762592031198      2.00412621969168
