15
Coordinates from ORCA-job run
  C   -0.26140613312746      0.04559510350244     -0.67407559084115
  C   1.10726217277401     -0.00433933027672      0.01963742007373
  Br  0.08109894136889     -0.27328452023840     -2.58568247877410
  H   1.59151727715053     -0.96766228717161     -0.18507331298656
  H   1.73491367034254      0.77778962560106     -0.41585600562778
  C   -1.18858622031744     -1.04056603397689     -0.16172394389891
  H   -0.73458203001637     -2.02886212292958     -0.26126239383101
  H   -1.40802092956286     -0.85035884654421      0.89313388509171
  H   -2.12577334965930     -1.01612204322207     -0.71670706357161
  N   -0.92698011141240      1.32721221133121     -0.56241138942794
  H   -0.95104622475223      1.54354198493475      0.43154139158432
  H   -0.36570858949217      2.04204954913175     -1.01440330483183
  N   0.91397715465121      0.27161490683028      1.44521550708357
  H   0.82115031230545     -0.59170662013130      1.96390329852265
  H   1.71118405974761      0.76609842315930      1.82176398143489
