15
Coordinates from ORCA-job run
  C   -0.27976752245257      0.11721109381959     -0.52755842622053
  C   0.83473052900512      0.40898490573327      0.47874753532147
  Br  0.61104059619853     -0.62351626028873     -2.14783901134494
  H   1.49297024822945      1.17375306783511      0.03656096726174
  H   0.34136708796045      0.86468029675188      1.34653197237188
  C   -1.26418932888967     -0.91402290340210     -0.01854459198496
  H   -0.75062118470942     -1.83391154278546      0.25035616054446
  H   -2.02378846661172     -1.10952872045302     -0.77564616356342
  H   -1.75192662658775     -0.52162250054147      0.88189899598077
  N   -0.98612825435469      1.29669733352601     -0.95836500483672
  H   -1.62204157761273      1.59786583686383     -0.22814328396741
  H   -0.34322942035089      2.05086636605210     -1.17161807754574
  N   1.51914555707857     -0.79472746087229      0.92550604969570
  H   2.11856584209198     -1.13452325126235      0.18324380813619
  H   2.10487252100533     -0.58120626097636      1.72286907015152
