15
Coordinates from ORCA-job run
  C   -0.26435845831354      0.04085039635569     -0.67287877244127
  C   1.10724769912122      0.01216091001507      0.01647183229646
  Br  0.07774258989487     -0.27506900306384     -2.58618821390918
  H   1.72154914220306      0.80316385249665     -0.42208414504679
  H   1.60483383498327     -0.94412105666236     -0.18938031792077
  C   -1.17356510422355     -1.05887237358774     -0.15759789100987
  H   -1.39036178164621     -0.87225667651040      0.89853905449183
  H   -2.11343275730672     -1.04692292501782     -0.70846462867402
  H   -0.70624117055808     -2.04062026535800     -0.25972705575482
  N   -0.94856219779793      1.31219670984701     -0.56115308412014
  H   -0.97798654560555      1.52756607408888      0.43281915753326
  H   -0.39748193477363      2.03572125380747     -1.01184594280620
  N   0.91486647663332      0.28616452187744      1.44218195556877
  H   0.84138163433221     -0.57749710725654      1.96329239797078
  H   1.70236857305728      0.79853568896849      1.81501565382196
