15
Coordinates from ORCA-job run
  C   -0.19734165832150      0.21120411200743     -0.52719947777948
  C   0.89986341593718      0.38873672134101      0.52214028858604
  Br  0.67429781200569     -0.36575527474793     -2.20139056093655
  H   1.59011166979962      1.14368122683927      0.13318119059459
  H   0.41789450040294      0.82164291938699      1.40941884608504
  C   -1.19615326017983     -0.86579263347692     -0.14113358368909
  H   -1.95002920127347     -0.98968033035685     -0.92127418183792
  H   -1.70069989175397     -0.55795285485560      0.78302039484345
  H   -0.69153817479035     -1.81470001096388      0.03481425003876
  N   -0.76609009919431      1.51985878928646     -0.79548334973335
  H   -1.44019955497238      1.45692408326298     -1.55044661402866
  H   -1.26270742846246      1.82970910426070      0.03544426985643
  N   1.54033093129652     -0.87159008698951      0.87059769953693
  H   2.46794190234036     -0.92742387646986      0.47670225177252
  H   1.61231903716596     -0.97886188852428      1.87160857669130
