15
Coordinates from ORCA-job run
  C   -0.19719997249929      0.01747571801303     -0.36822172236486
  C   0.87689337672127     -0.36137964955873      0.66025728604184
  Br  0.64364328470021      0.09033090109998     -2.15210443381169
  H   1.24911759046150     -1.36367480570955      0.43338419909320
  H   0.35783644245086     -0.42590513458464      1.62770391188604
  C   -1.30196881267302     -1.02695403598943     -0.43327419293341
  H   -0.90895522962246     -2.01210816950816     -0.69297593141347
  H   -2.05634841535861     -0.74906152927720     -1.17220231894099
  H   -1.78535838446310     -1.09150243861149      0.54808896416501
  N   -0.64990051355620      1.36626171606181     -0.07423759662972
  H   -1.29332952354361      1.68836873257164     -0.78841902633492
  H   -1.14885576875677      1.35090563623111      0.81142820651805
  N   1.99641535667148      0.54608531465926      0.80031769686562
  H   1.63369289318042      1.49253893567453      0.82311807870951
  H   2.58231767628730      0.47861880892785     -0.02286312085021
