15
Coordinates from ORCA-job run
  C   -0.26660588692705      0.24654713908986     -0.36573808695428
  C   0.97827538396003      0.42788226767281      0.51587278820432
  Br  0.43389717934008     -0.41943594804214     -2.18514793426653
  H   0.60805899337663      0.82659007108225      1.46689362589192
  H   1.60284307414490      1.20458541031744      0.06241993299360
  C   -1.20994375273195     -0.83032978293042      0.12606836167398
  H   -0.71315200161200     -1.79811167220812      0.17503062422950
  H   -1.56795129199786     -0.54943221006214      1.12127324734013
  H   -2.06919214393018     -0.92931474393481     -0.54025364856597
  N   -0.93503167208971      1.48173454926898     -0.48964583679814
  H   -1.75975185163625      1.41920780761016     -1.07256080311007
  H   -0.32921431441484      2.21032768823598     -0.84603560252101
  N   1.80673784609375     -0.72453867773721      0.78824254805736
  H   2.12265033505759     -1.14424421763939     -0.07668488183233
  H   1.30038010336684     -1.42146768072325      1.31726566565752
