15
Coordinates from ORCA-job run
  C   -0.24528034597356      0.17456688374720     -0.49942151924609
  C   0.93101140965254      0.44364751130073      0.45775155181469
  Br  0.53928689612672     -0.52408443556688     -2.18601786611760
  H   1.56944247713934      1.20317774842643     -0.00579006883174
  H   0.48893176736750      0.90176657907677      1.35252334283478
  C   -1.21061504620154     -0.86648389783418      0.03115289208050
  H   -2.03167253525777     -1.00353111705293     -0.67263307776548
  H   -0.71832294048370     -1.82591372740677      0.18599756180123
  H   -1.61933960152162     -0.52460456791152      0.98973379469379
  N   -0.97771016752521      1.36687876786790     -0.84858472193804
  H   -0.34414172926451      2.12315883362392     -1.08309483914900
  H   -1.55385144171288      1.65415046626486     -0.06453604708713
  N   1.76713944345991     -0.66085712860194      0.87857293138715
  H   2.17219681476625     -1.11660413000832      0.07057855982060
  H   1.23192499942851     -1.34626778592529      1.39476750570236
