17

C	-0.434171	-0.006639	-1.460195
C	0.0	0.0	0.0
Cl	0.224444	1.352879	-2.320807
H	1.094808	0.0	0.0
N	-0.024231	-1.27159	-2.220926
O	-0.494058	-1.367119	-3.347923
O	0.735143	-2.05142	-1.668083
N	-1.966198	-0.018889	-1.552116
O	-2.551826	1.033391	-1.754988
O	-2.473794	-1.114738	-1.331057
C	-0.496724	-1.156932	0.87447
H	0.003918	-1.059314	1.83948
H	-0.2124	-2.113818	0.444734
H	-1.576301	-1.126896	1.030335
C	-0.448087	1.263461	0.585583
N	-0.825099	2.240847	1.117803
Cl	3.224327	0.0	0.0
