17

C	-0.515224	-0.03971	-1.428941
C	0.0	0.0	0.0
Cl	-2.245632	-0.323671	-1.536154
H	1.093789	0.0	0.0
N	-0.15314	1.281962	-2.130997
O	1.032053	1.375803	-2.412374
O	-1.035306	2.110131	-2.295321
N	0.158156	-1.108177	-2.294035
O	0.79645	-1.98007	-1.726418
O	-0.043651	-0.999467	-3.496742
C	-0.44871	-1.176174	0.877242
H	-0.145215	-2.116528	0.423532
H	0.06808	-1.08153	1.833673
H	-1.526033	-1.170052	1.050341
C	-0.462131	1.247923	0.605567
N	-0.851035	2.219382	1.140261
Cl	3.232625	0.0	0.0
