17

C	-0.396272	-0.005878	-1.463595
C	0.0	0.0	0.0
Cl	0.24245	1.378343	-2.311015
H	1.094821	0.0	0.0
N	0.110556	-1.247055	-2.208565
O	1.038126	-1.855763	-1.695732
O	-0.410612	-1.468905	-3.294848
N	-1.915458	-0.078412	-1.651799
O	-2.526998	0.965279	-1.835917
O	-2.392902	-1.172411	-1.358158
C	-0.506758	-1.180636	0.829023
H	-1.591029	-1.168641	0.95873
H	-0.210935	-2.127507	0.379782
H	-0.039293	-1.112723	1.81433
C	-0.457102	1.246906	0.589228
N	-0.845809	2.226467	1.116552
Cl	2.681686	0.0	0.0
