17

C	-0.430221	-0.012618	-1.461089
C	0.0	0.0	0.0
Cl	0.224923	1.34729	-2.324672
H	1.094786	0.0	0.0
N	-0.010027	-1.276338	-2.216893
O	0.758191	-2.046608	-1.661164
O	-0.48286	-1.38093	-3.343203
N	-1.962422	-0.034127	-1.555
O	-2.553947	1.013216	-1.765087
O	-2.463426	-1.131756	-1.329221
C	-0.494231	-1.155625	0.877999
H	-0.208676	-2.112837	0.449866
H	0.007616	-1.055668	1.842161
H	-1.573569	-1.127472	1.034892
C	-0.451971	1.263745	0.580668
N	-0.831528	2.242049	1.109686
Cl	3.223798	0.0	0.0
