17

C	-0.38898	0.001268	-1.472559
C	0.0	0.0	0.0
Cl	0.476026	1.223042	-2.352968
H	1.096567	0.0	0.0
N	-0.092155	-1.392137	-2.053469
O	-1.035652	-2.178731	-2.034455
O	1.052643	-1.614873	-2.403478
N	-1.891287	0.181612	-1.742782
O	-2.219912	0.272111	-2.91737
O	-2.638716	0.191585	-0.77257
C	-0.44052	-1.225662	0.802298
H	-0.090976	-1.08713	1.826845
H	0.054531	-2.117095	0.414376
H	-1.520376	-1.366461	0.802149
C	-0.445563	1.248002	0.609687
N	-0.778718	2.247005	1.130071
Cl	3.230421	0.0	0.0
