13

C	-0.384811	-0.015897	-1.41912
C	0.0	0.0	0.0
Cl	-2.151228	0.056131	-1.760095
H	1.085217	0.0	0.0
H	-0.394764	-0.889142	0.492301
H	-0.388586	0.90412	0.468624
N	0.209168	1.205191	-2.162023
O	0.628131	2.102996	-1.443393
O	0.158905	1.218749	-3.38863
N	0.115696	-1.301405	-2.119253
O	-0.106853	-1.424631	-3.31833
O	0.664011	-2.125964	-1.401158
F	2.587706	0.0	0.0
