12
Coordinates from ORCA-job run
  C   -0.70918719293428     -0.09197033765210     -0.28153147315788
  C   0.65041592680613     -0.36696758731135      0.36340007861923
  F   -0.63025887113185     -0.45853251018715     -1.61540980249647
  H   0.58315570064427     -0.10404678264888      1.42186587910824
  H   0.81506509410216     -1.45107543444194      0.29131248932326
  C   -1.76396397253927     -0.89446109914944      0.36195024917914
  N   -2.56819271355336     -1.55071164132283      0.91064041511407
  C   -1.05370883882073      1.33678959475173     -0.20484612293571
  N   -1.35712425750259      2.46686500215082     -0.11255763733615
  N   1.63884604583182      0.45951711859679     -0.29380611916092
  H   2.43266441772417      0.62799699311351      0.30678114321636
  H   1.96128866137352      0.02859668410083     -1.14879909947316
