12
Coordinates from ORCA-job run
  C   -0.79702161046209     -0.02479812609055     -0.41656092529934
  C   0.69358250542769     -0.39118191967890     -0.46581957435406
  F   -1.39028190357531     -0.39188926238783     -1.60943412937720
  H   1.10290867047753      0.07628412291462     -1.36897587826871
  H   0.74694417826908     -1.47505304022703     -0.59247812696241
  C   -1.46345916912087     -0.73492602487009      0.68627771865832
  N   -1.98773338365931     -1.34820671592068      1.53897189376772
  C   -0.94347471119802      1.43020533447223     -0.24080656110894
  N   -1.00377946866431      2.59778379961894     -0.13270912287438
  N   1.30682192876172      0.02779268942898      0.77516837242287
  H   1.80118750199153      0.90279015712594      0.67940550232272
  H   1.93330546175236     -0.66880101438565      1.14796083107342
