12
Coordinates from ORCA-job run
  C   -0.80768205544109     -0.08005832571132     -0.38802972834644
  C   0.69996828597870     -0.35602677340586     -0.48302751394545
  F   -1.41693171925067     -0.50217196443904     -1.55463852415106
  H   1.04986819562581      0.11918646608425     -1.40694454294575
  H   0.81526125914356     -1.43678801085693     -0.59408941557273
  C   -1.39202451207573     -0.81246801026843      0.74630123977999
  N   -1.84811370307753     -1.44732138406829      1.62213848957214
  C   -1.03664596398162      1.36607234964514     -0.22900669523964
  N   -1.16014920909504      2.52992666546020     -0.13599439039476
  N   1.32732112188429      0.12101272249779      0.72965426011811
  H   2.01208761296814     -0.52637746088301      1.08808256909232
  H   1.75704068732120      1.02601372594549      0.60555425203328
