12
Coordinates from ORCA-job run
  C   -0.70071391099046     -0.09057414057531      0.31016087324315
  C   0.59242321635169     -0.33486082159280     -0.47088375737979
  F   -0.57641261988891     -0.70846354380744      1.54386732673620
  H   0.48934886810120      0.13398287107694     -1.45254252411683
  H   0.66581399938473     -1.42143549881282     -0.61801311690666
  C   -0.92599737599428      1.34796685812275      0.52247204280928
  N   -1.11157565340608      2.49935746929555      0.65428625992331
  C   -1.85300727969410     -0.68108635045096     -0.39272359252630
  N   -2.73533640663462     -1.17220732659470     -0.99185453104672
  N   1.68414318253764      0.27045925089402      0.25959336335755
  H   2.45253260082080      0.49952319348706     -0.35377483743755
  H   2.01878137941237     -0.34366196104230      0.98841249334435
