12
Coordinates from ORCA-job run
  C   -0.70770415051013     -0.05511665123692      0.29591303778937
  C   0.61624474179042     -0.39290560906018     -0.39244774364136
  F   -0.61938629929633     -0.46894275244828      1.61527492745284
  H   0.71216438456208     -1.48725468682142     -0.36244407061827
  H   0.54196089883834     -0.08761137102634     -1.43905959369414
  C   -0.96222112429080      1.39407003985697      0.27156588464967
  N   -1.19025527731792      2.54403855061697      0.21597955696431
  C   -1.82554162870226     -0.77132850136734     -0.34279811737797
  N   -2.68066893179453     -1.36651886885891     -0.88414470129667
  N   1.67060167899061      0.34429599752340      0.26877006919249
  H   2.45961414486996      0.48425754026016     -0.34530558595799
  H   1.98419156286057     -0.13698368743810      1.09969633653773
