12
Coordinates from ORCA-job run
  C   -0.63080206174842      0.43738747092744      0.04683642900897
  C   0.65669924648667     -0.21700840696229     -0.45802887012462
  F   -0.29640519511302      1.66128546569995      0.60363069293887
  H   1.05299751926833      0.44138837128598     -1.24362525799995
  H   0.39372872619114     -1.17295163641901     -0.91752636534937
  C   -1.56765934407341      0.67241930173522     -1.06560582596303
  N   -2.27673598365928      0.84091625343686     -1.98613359248440
  C   -1.27586911728167     -0.39031219494889      1.07849385542849
  N   -1.81642003541131     -1.06784155381227      1.86986936242801
  N   1.52941940228135     -0.43147764194672      0.67542094229523
  H   2.04738025566589      0.40656493711501      0.89859799583521
  H   2.18166658739373     -1.18137036611129      0.49807063398658
