12
Coordinates from ORCA-job run
  C   -0.70985397311773      0.00606689862696     -0.29543568220719
  C   0.76340514289407      0.32342054168203     -0.03131034560713
  F   -0.77048063334091     -0.88627591929731     -1.35380146230769
  H   0.81314036444723      1.04293912187849      0.78949251326321
  H   1.14369566909626      0.81400858168361     -0.93804512602511
  C   -1.33655508834559     -0.61536505284238      0.88216319162359
  N   -1.85073277766120     -1.07203648223224      1.83333428036064
  C   -1.44699342899000      1.22497047177926     -0.67143731318781
  N   -1.98697136734620      2.22368241995892     -0.97058779756308
  N   1.43091966899232     -0.90462453625767      0.34009319180477
  H   2.25554109427356     -0.72088097719347      0.89258885234090
  H   1.69588532909819     -1.43590506778626     -0.47705430249490
