12
Coordinates from ORCA-job run
  C   -0.68938352573380      0.13094922402747     -0.31441869585865
  C   0.76604152074372      0.29222944658308      0.12847955207852
  F   -0.68779961670005     -0.32538399720276     -1.62288559290496
  H   0.76948439165344      0.67815957324388      1.15076293330330
  H   1.20637467636168      1.05722144018490     -0.52618936214781
  C   -1.39395892356186     -0.85037342020486      0.52595180704193
  N   -1.97261305096660     -1.60173655199556      1.21729703288753
  C   -1.39355617253385      1.42435479675281     -0.27341571053375
  N   -1.90541342220243      2.48004199403813     -0.22658265345486
  N   1.39967249847242     -1.00714549153067      0.08340808302588
  H   1.71145034180002     -1.22722618877767     -0.85180225644304
  H   2.18970128266731     -1.05109082511876      0.71039486300591
