12
Coordinates from ORCA-job run
  C   -0.75274747435354      0.03784071748101      0.15491910163570
  C   0.66641353362248     -0.48798377239168     -0.06996392374022
  F   -0.92938393799133      0.21809615310934      1.51712834831341
  H   0.80183230805682     -0.65114066331484     -1.14194174027485
  H   0.71983604730473     -1.46367723587313      0.43287138169435
  C   -0.95219945899622      1.32895496430758     -0.52244391875502
  N   -1.12742300734134      2.33673914062230     -1.09794953441370
  C   -1.75083023086223     -0.93664990084663     -0.31913297558470
  N   -2.50423549173069     -1.74920326025875     -0.70750990841990
  N   1.59918850202184      0.51032486648629      0.40500923111440
  H   2.49370691110276      0.42348348278457     -0.05495439281482
  H   1.73584229916671      0.43421550789394      1.40296833124535
