12
Coordinates from ORCA-job run
  C   -0.69064679819865     -0.08398642945073      0.32938236408459
  C   0.59713271258994     -0.35639814293893     -0.45093226720062
  F   -0.52682976974522     -0.58571312161328      1.61065107000816
  H   0.70349667997749     -1.44900277640123     -0.50373380766340
  H   0.46264153158006      0.02035863359181     -1.46784198596649
  C   -0.95975641813382      1.35984595093280      0.41894118994384
  N   -1.19726814692070      2.50866256976938      0.45487127858484
  C   -1.83385058692022     -0.77041717259380     -0.29705775646490
  N   -2.71010277164175     -1.33949699107484     -0.83274380851093
  N   1.67977757724337      0.34575974753955      0.20237480398369
  H   2.04336803852792     -0.18866077119088      0.97863024538344
  H   2.43203795164160      0.53904850343015     -0.44254132618221
