12
Coordinates from ORCA-job run
  C   -0.81176392343542     -0.04555848423321     -0.38470436851363
  C   0.68410536036364     -0.37554483066755     -0.49218105258323
  F   -1.44267728208592     -0.43153168852909     -1.55225512393807
  H   1.04606964718582      0.09903346193648     -1.41168192768474
  H   0.75892345650183     -1.45819502281435     -0.61861894471147
  C   -1.41647988786894     -0.76809971332456      0.74532266586910
  N   -1.89124232918728     -1.39101957440922      1.61979339284311
  C   -0.98748388697983      1.40593501810975     -0.20741424497479
  N   -1.07257477102542      2.57202256160411     -0.09969110636684
  N   1.33556487221515      0.06250404328828      0.72261949995489
  H   1.80616605638528      0.94775458437428      0.60460049902522
  H   1.99139268793108     -0.61830035533493      1.07321071108046
