12
Coordinates from ORCA-job run
  C   -0.73579125838720     -0.06759192145092     -0.42660221856258
  C   0.77294126835870     -0.38397219767205     -0.54345914200297
  F   -1.37484330468279     -0.48381482617455     -1.57598926338322
  H   1.12842215977768      0.12556585942619     -1.44291085591032
  H   0.85217025872081     -1.46070056370670     -0.71489028299268
  C   -1.31124387489560     -0.77746819552834      0.72799134559630
  N   -1.76110183107480     -1.37849555747357      1.63120605563638
  C   -0.93514640459820      1.38213516847087     -0.26316090584306
  N   -1.07795912632206      2.54390817845027     -0.16907904224874
  N   1.57072481353359     -0.00284902443393      0.58968407184130
  H   1.30802632113488     -0.49132603262081      1.43459005702366
  H   1.56680097843499      0.99460911271356      0.75262018084592
