12
Coordinates from ORCA-job run
  C   -0.54694629034066      0.47090654987725      0.01248126985656
  C   0.61006729903745     -0.33892716369747     -0.61253258951749
  F   -0.07473753071497      1.74279202729538      0.29361555075766
  H   0.89001036443118      0.19032560191598     -1.52802725340289
  H   0.22829247876626     -1.32307735519198     -0.89619428055232
  C   -1.67953380708654      0.57822296369989     -0.91802311864753
  N   -2.54820729665085      0.62942272409492     -1.70691711397288
  C   -0.98360517320816     -0.15055299810623      1.27296410228594
  N   -1.33943137117826     -0.67446001869204      2.26183527880147
  N   1.76312130827886     -0.48256298720659      0.23547901061946
  H   1.57285461454440     -1.06006845200936      1.04386135631660
  H   2.10811540412128      0.41697910802025      0.54145778745542
