12
Coordinates from ORCA-job run
  C   -0.76718069380572     -0.08577413129526     -0.39722822815974
  C   0.74264656283770     -0.36945609227962     -0.58230459228417
  F   -1.44673653302002     -0.52065396584687     -1.51576931847576
  H   1.04280957470083      0.14707083368798     -1.49771370267033
  H   0.83570852727349     -1.44440248626411     -0.75746578998315
  C   -1.26851322659342     -0.80323861446393      0.78667593922067
  N   -1.59704232800886     -1.40361802110267      1.74105319034515
  C   -0.98499735736173      1.36037111257850     -0.22691135384338
  N   -1.08290109660962      2.52362974391493     -0.09857333974602
  N   1.58569281176473      0.02961242968417      0.51034161126562
  H   1.37130341975726     -0.46096724038274      1.36780953271198
  H   1.56921033906536      1.02742643176961      0.67108605161912
