12
Coordinates from ORCA-job run
  C   -0.79352790743767     -0.03648351778906     -0.42195783323640
  C   0.71801447815129     -0.29705016871493     -0.49773357894444
  F   -1.38383061098492     -0.47011493523753     -1.59390870163603
  H   0.84290275068932     -1.36132090101573     -0.72983484507904
  H   1.09413511875088      0.28032424769542     -1.34573624531712
  C   -1.36918736520528     -0.78800522071222      0.70621609320056
  N   -1.77959375034751     -1.43223221673646      1.59792986628870
  C   -1.05878910305094      1.40124645641537     -0.25777682800791
  N   -1.25236359608402      2.55627988211998     -0.17724999482452
  N   1.31803002492411      0.13642879811614      0.74473144559557
  H   2.17674100990368      0.64433775652605      0.59990791517699
  H   1.48746895069105     -0.63341018066703      1.37541270678363
