12
Coordinates from ORCA-job run
  C   -0.81393137586179     -0.07639448470927     -0.37618687067115
  C   0.68818446837657     -0.37635014454538     -0.48598467083474
  F   -1.44497827244640     -0.51177700984531     -1.52610098161886
  H   1.03164476859121      0.07512546358828     -1.42412516945782
  H   0.78610842559225     -1.46068942690253     -0.57727467920843
  C   -1.39328102303232     -0.77675316015246      0.78079960920626
  N   -1.84452679751166     -1.38048770027936      1.68075480355874
  C   -1.02005431864181      1.37572741082651     -0.24158257945643
  N   -1.12668448303790      2.54266694186602     -0.16799770366946
  N   1.33951899196189      0.11521004771384      0.70781198481930
  H   2.01712196749830     -0.53618982970344      1.07221357538346
  H   1.78287764851168      1.00991189214310      0.55967268194911
