12
Coordinates from ORCA-job run
  C   -0.67936031985283     -0.10349364995692      0.24095204130619
  C   0.68905137084059     -0.50248506090488     -0.35560931168822
  F   -0.65738046096958     -0.39769186870728      1.59458445910591
  H   0.65717022969800     -0.33153433437059     -1.43473155220441
  H   0.78881018164168     -1.57882420196162     -0.18781661932019
  C   -0.89782436442959      1.34321226451692      0.08481716131602
  N   -1.00140599483172      2.50357012970828     -0.06277363259485
  C   -1.77091028643955     -0.85736329474909     -0.39182426704911
  N   -2.59781175545455     -1.49610453261314     -0.92814859802504
  N   1.81448793557178      0.18337990998160      0.21982950721849
  H   1.84122968741038      0.06699104671744      1.22362305010482
  H   1.81394377681539      1.17034359233928     -0.00190223816962
