12
Coordinates from ORCA-job run
  C   -0.69964073602880     -0.00522432783370     -0.31917617208515
  C   0.63956609382625     -0.45546986628178      0.26783049719131
  F   -0.57059628098398      0.02697476295752     -1.69816847184220
  H   0.81447059698885     -1.47507820925820     -0.10337499236465
  H   0.53561533777581     -0.50355530787831      1.35462485005033
  C   -1.76806350939723     -0.95895149894458      0.02603203743330
  N   -2.58236487341192     -1.75082619311048      0.32320132596259
  C   -1.05850353387299      1.34153575597128      0.15293190669475
  N   -1.36595162216544      2.39904831189774      0.55884304180520
  N   1.64318290364618      0.52090655646096     -0.09492262126294
  H   2.41462431539803      0.51230874396188      0.55626819769134
  H   1.99766130822523      0.34933127205769     -1.02508959927387
