12
Coordinates from ORCA-job run
  C   -0.70191042517352      0.02675200021569     -0.31331480234796
  C   0.75086341990229      0.34987707160187      0.04242443903415
  F   -0.69988530117041     -0.69729564622382     -1.49464614351785
  H   1.13586043177955      0.98465462724444     -0.76781616493407
  H   0.75179286510039      0.93794513696831      0.96341799933416
  C   -1.33568196903501     -0.78561661563458      0.73733646127176
  N   -1.85615062212580     -1.39744115343580      1.59316951551480
  C   -1.47469436016652      1.26278832639219     -0.52676165595097
  N   -2.04351987487361      2.27691879783084     -0.68966023887277
  N   1.45439234916257     -0.89766503892749      0.24457121990820
  H   2.25477579900705     -0.77373146450510      0.84698269211179
  H   1.76315768759302     -1.28718604152657     -0.63470332155123
