12
Coordinates from ORCA-job run
  C   -0.65351485480537     -0.12070350073303      0.29706222910795
  C   0.61913978893080     -0.45642968608861     -0.51222178397396
  F   -0.50135335848532     -0.64619644553836      1.57019562254327
  H   0.48039108084934     -0.09767334263492     -1.53536509073664
  H   0.67791874380671     -1.54827444192746     -0.54298825324117
  C   -0.80986575788482      1.33778728080075      0.41372037520542
  N   -0.87015203077984      2.50914675115853      0.47005818537664
  C   -1.84659117616926     -0.71431794716462     -0.32276077926274
  N   -2.76151590175576     -1.21461069526199     -0.86337679220120
  N   1.83530075346164      0.07837920693241      0.03799878492057
  H   1.86420261655366      1.08841884554230     -0.00862925554619
  H   1.96504009627823     -0.21552602508501      0.99630675780807
