12
Coordinates from ORCA-job run
  C   -0.68490948677420      0.02698603877319     -0.24176184057774
  C   0.69643556496526     -0.60636930728574      0.03702932637328
  F   -0.69954957202670      0.45764008212405     -1.55870245068205
  H   0.78299970662561     -1.45689858332829     -0.64504665348021
  H   0.69707814988080     -0.99303601749715      1.05917338650509
  C   -1.76403874868232     -0.95265192600723     -0.04996225670752
  N   -2.58028824644428     -1.78016821511685      0.11797574103593
  C   -0.89367248752837      1.19357710166625      0.63055684505272
  N   -0.99334567462427      2.11354946591434      1.35329370978855
  N   1.80977921974817      0.28349896552025     -0.15426365869246
  H   1.80216912151175      0.68649903514623     -1.08145713792357
  H   1.82634245334856      1.02637336009095      0.53216498930799
