12
Coordinates from ORCA-job run
  C   -0.67584118293322     -0.00677816338166     -0.27053422179852
  C   0.84981508363460      0.23777825663075     -0.27345048995357
  F   -0.91629837145132     -1.21372746836035     -0.90673761656654
  H   1.14604327075590      0.28274139205232     -1.32550508464042
  H   1.04244775059527      1.21677853635309      0.17280512846054
  C   -1.17102041440485     -0.10368757922538      1.11174139331733
  N   -1.49601720097964     -0.17344463774822      2.23797137547792
  C   -1.38279988751342      1.06099018041061     -0.99207136972660
  N   -1.88842149165693      1.94214342237741     -1.58140030643320
  N   1.61796129344723     -0.77295399559970      0.40220331118853
  H   1.44714134512686     -0.77958732867422      1.39915751285308
  H   1.42798980537952     -1.69125261483466      0.02482036782145
