12
Coordinates from ORCA-job run
  C   -0.66462427717961      0.10319288922016     -0.28115996797638
  C   0.83782151458107      0.38447834159893     -0.05376716735905
  F   -0.79352247704310     -0.60556574818618     -1.46401278815471
  H   0.94014982086742      0.99740212514136      0.84547314315846
  H   1.16555807090284      0.98295562724196     -0.90878902723623
  C   -1.19608029598692     -0.72194796465773      0.81524971750533
  N   -1.55061709590754     -1.38358521551985      1.71835409411707
  C   -1.42433365730061      1.35661937137235     -0.39105003341580
  N   -1.97392890133374      2.39136532383789     -0.47290368410658
  N   1.65660535067879     -0.79270852876100      0.05514437935428
  H   1.55103741346000     -1.38951147142488     -0.75365639838642
  H   1.45193453426140     -1.32369474986300      0.89111773250003
