12
Coordinates from ORCA-job run
  C   -0.76969730939834     -0.09435723427786     -0.38618465304937
  C   0.73824788980687     -0.38059970353935     -0.58091274582473
  F   -1.46015574373662     -0.55280358844751     -1.48924314226201
  H   1.02843720809496      0.11420504133458     -1.51156323810353
  H   0.83066206185218     -1.45946125841848     -0.73142772835231
  C   -1.25886278532683     -0.78973623146705      0.81564025226382
  N   -1.58100773091222     -1.37608821443528      1.78077090604366
  C   -0.98948553359068      1.35426892938976     -0.24388559112641
  N   -1.09419715466855      2.51955714833890     -0.14094825382429
  N   1.59228880584766      0.04490312726852      0.49320234574897
  H   1.38831823794696     -0.42590048104722      1.36397129716272
  H   1.57645205408459      1.04601246530099      0.63058055132348
