12
Coordinates from ORCA-job run
  C   -0.75517067254573     -0.01169106950158     -0.42464879793512
  C   0.73569864863325     -0.39813387211729     -0.57207194870026
  F   -1.42338674270387     -0.34848232431211     -1.58383797854263
  H   0.75660389036469     -1.46923619071328     -0.78987098284900
  H   1.10590717226440      0.13102754060365     -1.45414783251306
  C   -1.35091644313153     -0.73967447978136      0.70769164239646
  N   -1.76288675187991     -1.35375537499784      1.62018808314935
  C   -0.87528950135241      1.43815382902669     -0.19937000061705
  N   -0.89674884199778      2.60000825133640     -0.03001008032555
  N   1.56517695831943     -0.10774550030533      0.56449370650015
  H   1.61208088012527      0.88047865153450      0.77117219723689
  H   1.28793140390419     -0.61994946077243      1.39041199219984
