13

C	-0.479115	0.028004	-1.455619
C	0.0	0.0	0.0
F	-0.047397	-1.081194	-2.149207
H	1.095238	0.0	0.0
H	-1.577108	0.021312	-1.485915
C	-0.019538	1.251823	-2.138096
N	0.303922	2.224001	-2.711535
C	-0.521744	-1.221269	0.621023
N	-0.989337	-2.189958	1.092321
N	-0.42396	1.174521	0.748509
H	0.267511	1.903284	0.630296
H	-1.334573	1.51252	0.462843
Cl	3.261246	0.0	0.0
