12

C	0.0	0.0	0.0
C	-0.530123	-0.118125	-1.40654
Cl	1.763052	0.0	0.0
H	-0.209243	0.756944	-1.974195
H	-0.129728	-1.023181	-1.861293
H	-1.622355	-0.155314	-1.33967
C	-0.430317	1.218874	0.68397
N	-0.661276	2.268033	1.15853
N	-0.412552	-1.219041	0.841001
O	-0.421236	-2.290145	0.254249
O	-0.627147	-1.025169	2.027734
Cl	-3.546072	0.0	0.0
