15
Coordinates from ORCA-job run
  C   0.65507799308571     -0.08173377168919     -0.13858970358325
  C   -0.83602904942262     -0.29581914661568      0.14292533039107
  Br  1.03624098538621     -0.51833124873457     -2.02496126775297
  H   -1.05736080746768     -1.34631347532161     -0.07113023968470
  H   -0.96611562305581     -0.15154303364715      1.22280271339092
  C   1.01336016192262      1.32218093895460      0.05276645877580
  N   1.28175826366171      2.44775801437392      0.25990149110538
  C   1.53101758530804     -0.97507075603755      0.73450520290689
  H   1.35996727636354     -0.72943710047205      1.78651187369955
  H   1.27023838278269     -2.02131779196044      0.56447028309514
  H   2.58752914136767     -0.83238215208840      0.50565894035096
  C   -1.78324922108185      0.62241592675775     -0.61713405512425
  H   -1.69607557227687      0.47788981344924     -1.69465217561406
  H   -1.58214345917028      1.67209822643588     -0.39221965119849
  H   -2.81521605740308      0.40960555659526     -0.32985520075798
