19

C	-0.170357	0.012303	-1.524009
C	0.0	0.0	0.0
F	0.008462	1.395473	-1.928213
H	1.105336	0.0	0.0
N	0.884563	-0.782205	-2.040622
H	1.75028	-0.555723	-1.514588
H	1.004461	-0.611455	-3.030956
C	-1.531192	-0.345677	-2.080755
H	-1.54843	-0.176457	-3.16241
H	-1.756288	-1.39469	-1.885379
H	-2.289188	0.284656	-1.611653
C	-0.514822	-1.282232	0.622614
H	-0.084181	-2.143799	0.109711
H	-0.203276	-1.332054	1.671916
H	-1.609026	-1.337136	0.591244
N	-0.663406	1.16074	0.611394
H	-0.357231	1.181084	1.580339
H	-0.247692	1.978258	0.178302
F	2.791409	0.0	0.0
