19

C	-0.296703	0.063194	-1.498878
C	0.0	0.0	0.0
F	-0.041714	-1.235973	-2.036139
H	1.095694	0.0	0.0
N	-1.664017	0.407746	-1.789298
H	-1.795626	0.416908	-2.795701
H	-2.261967	-0.3181	-1.407428
C	0.691996	0.987773	-2.181571
H	0.672348	0.829409	-3.265034
H	0.44263	2.029687	-1.968591
H	1.678335	0.754266	-1.760837
C	-0.619053	-1.197258	0.695965
H	-0.272952	-1.205756	1.731742
H	-0.320141	-2.131118	0.21685
H	-1.717191	-1.139492	0.721038
N	-0.400615	1.253229	0.664932
H	0.419484	1.847785	0.68236
H	-1.119795	1.715493	0.119417
F	2.758712	0.0	0.0
