19

C	-0.395401	0.046348	-1.480627
C	0.0	0.0	0.0
F	-0.264392	-1.2549	-1.998643
H	1.10135	0.0	0.0
N	-1.774846	0.429111	-1.758253
H	-1.919896	1.265539	-1.196314
H	-2.366706	-0.293422	-1.353575
C	0.58556	0.933567	-2.217157
H	0.471906	0.789335	-3.294232
H	0.383068	1.980085	-1.973426
H	1.589537	0.680011	-1.861451
C	-0.591066	-1.17444	0.750266
H	-1.689785	-1.124582	0.798735
H	-0.206796	-1.184196	1.775001
H	-0.310246	-2.114736	0.275445
N	-0.404712	1.304704	0.589712
H	0.455315	1.739596	0.911182
H	-0.979479	1.144885	1.411971
F	2.745912	0.0	0.0
