19

C	-0.393912	0.053194	-1.480917
C	0.0	0.0	0.0
F	-0.277552	-1.247908	-2.001455
H	1.09602	0.0	0.0
N	-1.770774	0.449805	-1.756971
H	-2.367619	-0.263195	-1.342973
H	-1.900897	1.29216	-1.202345
C	0.593546	0.932874	-2.21711
H	0.395262	1.980745	-1.977325
H	0.483494	0.784257	-3.294555
H	1.596672	0.676994	-1.857342
C	-0.580176	-1.186652	0.743139
H	-0.208817	-1.187794	1.772613
H	-1.680773	-1.158231	0.777907
H	-0.275741	-2.122271	0.272888
N	-0.40343	1.29841	0.597549
H	-1.058167	1.141035	1.357325
H	0.438533	1.693949	1.004613
F	2.745619	0.0	0.0
