19

C	-0.585061	0.084932	-1.402287
C	0.0	0.0	0.0
F	-0.030899	1.22846	-2.023414
H	1.100359	0.0	0.0
N	-0.196383	-1.036135	-2.214378
H	-0.76925	-1.074551	-3.050012
H	-0.301034	-1.896222	-1.697089
C	-2.089666	0.346488	-1.431352
H	-2.639088	-0.507548	-1.020628
H	-2.40114	0.507887	-2.467358
H	-2.331929	1.223785	-0.837497
C	-0.462564	-1.224308	0.774439
H	-1.553535	-1.28311	0.895173
H	-0.0082	-1.182579	1.771605
H	-0.082618	-2.145929	0.322279
N	-0.446687	1.22234	0.731699
H	0.131876	1.233911	1.56697
H	-0.073089	1.99419	0.179126
F	2.721539	0.0	0.0
