19

C	-0.062307	0.035083	-1.529762
C	0.0	0.0	0.0
F	-1.371808	0.356511	-1.98121
H	1.097323	0.0	0.0
N	0.834193	1.062831	-2.045913
H	0.521003	1.942794	-1.646352
H	1.724819	0.851476	-1.56575
C	0.358574	-1.281474	-2.140309
H	-0.352459	-2.077247	-1.911179
H	1.340471	-1.518895	-1.721756
H	0.438123	-1.159627	-3.221984
C	-0.649977	-1.197543	0.662888
H	-1.721125	-1.255244	0.426833
H	-0.550019	-1.09051	1.745772
H	-0.174406	-2.136013	0.368635
N	-0.48784	1.243195	0.61167
H	-1.205393	1.655635	0.027159
H	0.28536	1.890972	0.68298
F	2.752002	0.0	0.0
