19

C	-0.101273	-0.002565	-1.523037
C	0.0	0.0	0.0
F	-1.444304	0.146333	-1.945563
H	1.097143	0.0	0.0
N	0.658962	1.109209	-2.057846
H	0.326466	1.914792	-1.530809
H	1.5992	0.939933	-1.674574
C	0.459487	-1.282113	-2.10593
H	1.453317	-1.412109	-1.668055
H	-0.17466	-2.139904	-1.873752
H	0.537164	-1.173661	-3.189229
C	-0.60745	-1.200041	0.70632
H	-1.683869	-1.282646	0.50091
H	-0.126248	-2.134654	0.409907
H	-0.473952	-1.095202	1.788466
N	-0.481003	1.286698	0.515027
H	0.053739	1.511917	1.344709
H	-1.457543	1.211494	0.780281
F	2.745332	0.0	0.0
