19

C	-0.309157	0.053741	-1.489786
C	0.0	0.0	0.0
F	-1.677883	0.384757	-1.706281
H	1.098454	0.0	0.0
N	0.481673	1.123352	-2.04398
H	1.419782	1.051564	-1.640889
H	0.564696	0.999061	-3.047107
C	-0.098019	-1.281897	-2.171847
H	-0.771655	-2.031306	-1.762371
H	0.933128	-1.599253	-2.000939
H	-0.275239	-1.169398	-3.248062
N	-0.457599	-1.243507	0.62209
H	0.225253	-1.497565	1.328649
H	-1.342759	-1.082849	1.092963
C	-0.486706	1.250892	0.718834
H	-1.581449	1.266776	0.771682
H	-0.15754	2.152023	0.200101
H	-0.081763	1.263977	1.735488
H	2.967033	0.0	0.0
