19

C	-0.470604	0.016194	-1.445988
C	0.0	0.0	0.0
F	-0.047426	-1.235297	-2.008046
H	1.101136	0.0	0.0
N	-1.897144	0.08893	-1.517052
H	-2.252596	-0.611297	-0.871499
H	-2.196919	-0.145993	-2.457105
C	0.215136	1.073756	-2.280049
H	1.29466	0.994834	-2.124592
H	-0.128536	2.068717	-1.993612
H	-0.018816	0.911789	-3.337609
N	-0.555602	-1.221588	0.62156
H	-0.036813	-1.995434	0.215488
H	-0.280712	-1.198118	1.59912
C	-0.471321	1.217632	0.774988
H	-0.098755	2.137113	0.318511
H	-1.561859	1.262087	0.833978
H	-0.054317	1.177644	1.787266
H	3.107364	0.0	0.0
