19

C	-0.472988	-0.036898	-1.444499
C	0.0	0.0	0.0
F	-1.884631	-0.372932	-1.423201
H	1.095409	0.0	0.0
N	-0.323947	1.223925	-2.091908
H	-0.901365	1.916349	-1.63237
H	-0.629871	1.142168	-3.054337
C	0.225902	-1.122601	-2.223356
H	-0.124835	-1.135942	-3.26168
H	0.012979	-2.080318	-1.752738
H	1.301602	-0.935113	-2.182065
N	-0.394242	-1.257845	0.642886
H	-1.313861	-1.166687	1.059205
H	0.280134	-1.4457	1.376258
C	-0.473451	1.239475	0.753452
H	-0.163655	1.15477	1.798472
H	-1.56636	1.340267	0.722711
H	-0.008739	2.145463	0.355207
H	3.036418	0.0	0.0
