19

C	-0.341604	-0.082643	-1.489604
C	0.0	0.0	0.0
F	-0.138638	1.223606	-2.036715
H	1.098068	0.0	0.0
N	0.581995	-1.003062	-2.069377
H	1.523127	-0.768272	-1.738751
H	0.544369	-0.936347	-3.078215
C	-1.76931	-0.435596	-1.82623
H	-2.45133	0.311666	-1.428014
H	-2.016621	-1.401108	-1.399497
H	-1.892774	-0.461327	-2.914801
N	-0.516069	-1.210724	0.678084
H	-0.370604	-1.047304	1.716223
H	0.146128	-1.994135	0.398045
C	-0.554535	1.227432	0.694343
H	-0.258413	2.131465	0.164911
H	-1.647256	1.184817	0.763094
H	-0.143291	1.282155	1.709381
H	3.057706	0.0	0.0
