19

C	-0.469691	-0.061903	-1.445932
C	0.0	0.0	0.0
F	-0.012718	-1.326707	-1.945713
H	1.095304	0.0	0.0
N	-1.896508	-0.031346	-1.518295
H	-2.226399	-0.71933	-0.846351
H	-2.18879	-0.3143	-2.447385
C	0.186753	0.970201	-2.331406
H	-0.031349	0.740246	-3.379309
H	-0.192904	1.966843	-2.105764
H	1.266279	0.93745	-2.165626
N	-0.549049	-1.191983	0.68297
H	0.007237	-1.976831	0.356817
H	-0.338259	-1.09365	1.671165
C	-0.480661	1.251228	0.712424
H	-1.570418	1.278938	0.786951
H	-0.134699	2.149748	0.198983
H	-0.046686	1.275579	1.717308
H	3.107124	0.0	0.0
