12
Coordinates from ORCA-job run
  C   0.10431088182265      1.29512934438382     -0.37593239362582
  C   -0.08690670192206     -0.21139235969616     -0.36957394747381
  H   -0.80092261890008      1.79008532097545     -0.72741286716822
  H   -0.29545939356955     -0.54990975920372     -1.38963759550248
  H   0.31444890211902      1.65295871262078      0.63885464605473
  H   0.94751320619058      1.56697588895591     -1.01081518879887
  N   -1.27802708948683     -0.52938967452477      0.41786731396249
  H   -1.42954395631991     -1.53170900478758      0.43064604481361
  H   -1.13838440152782     -0.23121838532518      1.37784430300841
  N   1.17398211861376     -0.84229843550957      0.02039112399053
  H   1.41727253618474     -0.55732863512693      0.96355853009581
  H   1.07171651679548     -1.85090301276204      0.02521003064362
