12
Coordinates from ORCA-job run
  C   0.15045078279913      1.20120543639578     -0.37091246881430
  C   -0.17256816432793     -0.28775097375953     -0.32404414187869
  H   -0.69215457213062      1.76831812439264     -0.77098386910239
  H   -0.37507245998135     -0.63697198927793     -1.34255535441760
  H   1.03083806571191      1.38903906879989     -0.98964951362858
  H   0.36525225873937      1.56898473506570      0.63900386705545
  N   -1.38865340776133     -0.47951462277351      0.44411441510031
  H   -1.52388575820761     -1.47533430588230      0.57750036036585
  H   -1.27535765089051     -0.06686293791422      1.36424439515396
  N   0.92317241965355     -1.12786876307732      0.17666057404107
  H   1.25118052909167     -0.75364858573532      1.06214091974902
  H   1.70679795730373     -1.09859518623388     -0.46751918362410
