16

C	-0.326064	-0.005633	-1.486177
C	0.0	0.0	0.0
Br	-2.306831	-0.172145	-1.737801
H	1.092528	0.0	0.0
H	-0.391567	-0.89808	0.469988
C	0.119397	1.236884	-2.240848
H	-0.411152	2.133037	-1.929571
H	1.188544	1.370495	-2.048218
H	-0.043324	1.078898	-3.310238
N	0.276563	-1.227903	-1.964846
H	0.254139	-1.237971	-2.97966
H	1.254968	-1.223055	-1.668442
N	-0.520163	1.150623	0.762068
O	-1.287707	0.905955	1.696586
O	-0.151961	2.279271	0.439858
Br	3.463043	0.0	0.0
