16

C	-0.333549	-0.003264	-1.488705
C	0.0	0.0	0.0
Br	-2.312121	-0.127774	-1.702181
H	1.09305	0.0	0.0
H	-0.388565	-0.896475	0.479668
C	0.172884	1.207248	-2.24397
H	-0.001855	1.046109	-3.308518
H	1.246707	1.297491	-2.050555
H	-0.313091	2.122372	-1.918206
N	0.241036	-1.187681	-2.093799
H	-0.016639	-2.006843	-1.552077
H	1.256936	-1.089615	-2.020391
N	-0.518481	1.139966	0.784554
O	-0.170459	2.274044	0.461697
O	-1.264817	0.880779	1.732319
Br	3.473979	0.0	0.0
