14

C	0.0	0.0	0.0
C	-0.44206	0.130515	-1.443203
F	1.402043	0.0	0.0
H	-0.091345	-0.742847	-1.996939
H	-0.005838	1.031415	-1.881626
H	-1.530995	0.18689	-1.489633
C	-0.419287	1.196101	0.837984
H	-1.509494	1.242082	0.860614
H	-0.013765	2.123695	0.423902
H	-0.034992	1.076873	1.856765
N	-0.456197	-1.263959	0.517909
H	-1.460853	-1.299712	0.337782
H	-0.352802	-1.257625	1.528155
Cl	-3.789119	0.0	0.0
