16

C	0.0	0.0	0.0
C	-0.546317	0.18506	-1.440196
Br	1.962326	0.0	0.0
H	-1.632931	0.028532	-1.322474
C	-0.495511	1.103597	0.921959
H	-1.587075	1.124421	0.857087
H	-0.197064	0.894591	1.950382
H	-0.067885	2.061381	0.621002
C	-0.384082	-1.318841	0.501155
N	-0.615668	-2.397871	0.907544
C	-0.007511	-0.842764	-2.339475
N	0.452117	-1.621255	-3.090304
N	-0.34221	1.493034	-2.030765
H	-0.996982	2.146452	-1.619232
H	0.606614	1.813657	-1.873594
Br	-3.78138	0.0	0.0
