17

C	0.0	0.0	0.0
C	-0.459634	-0.030565	-1.461485
F	1.38827	0.0	0.0
H	-1.542579	-0.257426	-1.447876
N	-0.677426	0.954034	0.677149
H	-0.48914	0.8454	1.686339
H	-1.838886	0.590329	0.430965
N	-0.232884	-1.461692	0.636538
O	-0.426356	-2.436252	-0.081796
O	-0.200629	-1.4857	1.866287
N	0.278087	-0.870858	-2.384865
H	1.26447	-0.749193	-2.193544
H	0.022381	-1.836052	-2.170203
N	-0.330455	1.375331	-1.989587
O	0.828963	1.761137	-2.147858
O	-1.343201	2.011854	-2.265636
H	-2.81555	0.0	0.0
