17

C	0.0	0.0	0.0
C	-0.495484	-0.033384	-1.433893
F	1.395035	0.0	0.0
H	-1.588976	-0.189957	-1.349051
N	-0.602121	1.000738	0.728649
H	-0.384191	0.873577	1.712286
H	-1.65522	0.818619	0.565533
N	-0.274204	-1.411156	0.64131
O	-0.910264	-2.263937	0.041398
O	0.15198	-1.515291	1.793454
N	0.202373	-0.991945	-2.217995
H	1.093352	-0.609691	-2.505212
H	-0.344453	-1.240687	-3.028947
N	-0.31215	1.381214	-1.994327
O	0.740507	1.60163	-2.603351
O	-1.209355	2.198084	-1.834309
H	-2.946315	0.0	0.0
