14

C	0.0	0.0	0.0
C	-0.436485	-0.267629	-1.467171
Cl	1.776958	0.0	0.0
H	0.465307	-0.321236	-2.081792
H	-0.349859	0.976235	0.325754
C	-0.427569	-1.039128	0.931877
N	-0.631654	-1.868423	1.737782
N	-1.062831	1.033482	-2.051853
O	-1.697086	0.886044	-3.088722
O	-0.751672	2.110529	-1.553693
N	-1.188847	-1.439952	-1.658921
H	-2.087218	-1.327716	-1.177146
H	-1.359529	-1.573562	-2.64726
Br	-3.524855	0.0	0.0
