14

C	0.0	0.0	0.0
C	-0.579647	-0.514378	-1.337383
Cl	1.78216	0.0	0.0
H	-1.57685	-0.898253	-1.103861
H	-0.355189	1.021128	0.133694
C	-0.400859	-0.793714	1.164863
N	-0.580566	-1.358365	2.179225
N	0.245535	-1.697243	-1.780991
O	0.946592	-1.59401	-2.781383
O	0.166738	-2.691497	-1.061918
N	-0.693054	0.449792	-2.371661
H	-1.563364	0.949215	-2.223383
H	0.093308	1.085136	-2.406526
Br	-3.531486	0.0	0.0
