15

C	0.0	0.0	0.0
C	-0.525507	-0.042476	-1.415539
F	1.377605	0.0	0.0
H	-1.636727	-0.147857	-1.218155
H	-0.383158	0.921208	0.449761
C	-0.462159	-1.129911	0.830746
N	-0.71363	-2.047785	1.519076
N	-0.004993	-1.259124	-2.085061
O	-0.49102	-2.337655	-1.744659
O	0.861872	-1.13583	-2.954998
C	-0.159286	1.210036	-2.176142
H	-0.479181	1.13825	-3.216809
H	-0.692765	2.046749	-1.712747
H	0.916642	1.396496	-2.158738
H	-2.829632	0.0	0.0
