15

C	0.0	0.0	0.0
C	-0.186589	-0.098167	-1.545859
F	1.380351	0.0	0.0
H	0.429433	-0.955521	-1.829483
H	-0.34325	0.952981	0.394517
C	-0.70972	-1.101385	0.656504
N	-0.678117	-2.144494	1.239348
N	0.564311	1.067067	-2.138798
O	1.346054	0.828942	-3.060891
O	0.312903	2.192413	-1.713853
C	-1.50423	-0.166797	-2.290648
H	-2.066093	-1.035109	-1.960027
H	-1.276657	-0.250713	-3.364726
H	-2.115306	0.708398	-2.086462
H	-2.216504	0.0	0.0
