15

C	0.0	0.0	0.0
C	-0.185304	-0.044938	-1.547034
F	1.380232	0.0	0.0
H	0.444375	-0.876686	-1.866784
H	-0.366194	0.926101	0.441774
C	-0.608704	-1.141588	0.668238
N	-0.654652	-2.054418	1.424114
N	0.549656	1.160704	-2.086214
O	0.301797	2.25931	-1.594191
O	1.312054	0.976694	-3.037272
C	-1.508027	-0.091739	-2.281476
H	-2.066916	-0.975749	-1.982682
H	-2.122892	0.76192	-2.00507
H	-1.290359	-0.114464	-3.362775
H	-2.357774	0.0	0.0
