15

C	0.0	0.0	0.0
C	-0.524534	-0.103937	-1.423873
F	1.375173	0.0	0.0
H	-1.622375	0.000193	-1.286194
H	-0.382453	0.936567	0.41431
C	-0.422249	-1.11542	0.869331
N	-0.489723	-2.07742	1.540281
N	-0.286369	-1.443192	-2.027556
O	-1.012521	-1.751486	-2.979415
O	0.622697	-2.149727	-1.584767
C	0.109991	0.940866	-2.328293
H	-0.101758	1.93221	-1.920798
H	-0.3141	0.876595	-3.328478
H	1.193284	0.804409	-2.382129
H	-2.809306	0.0	0.0
