17

C	0.0	0.0	0.0
C	-0.225981	-0.071138	-1.552019
F	1.334577	0.0	0.0
H	0.462109	-0.886111	-1.804808
N	-0.396857	1.277243	0.693588
O	-0.800626	2.200164	0.003169
O	-0.118094	1.33836	1.887735
N	-0.446138	-1.263389	0.697415
O	-0.695876	-1.25929	1.88895
O	-0.356965	-2.265014	-0.012844
C	0.391143	1.119024	-2.159494
N	0.874377	2.012139	-2.750058
C	-1.534282	-0.382981	-2.269295
H	-1.950399	-1.303845	-1.87427
H	-1.291132	-0.501055	-3.334661
H	-2.261128	0.402439	-2.109889
F	-2.248825	0.0	0.0
