15

C	0.0	0.0	0.0
C	-0.314976	0.063727	-1.534058
F	1.376805	0.0	0.0
H	-1.399362	-0.033809	-1.616556
C	-0.709805	1.102528	0.676926
N	-0.637901	2.139521	1.265193
C	-0.46129	-1.275728	0.585875
N	-0.489581	-2.341284	1.092545
C	0.317885	-1.057952	-2.22422
N	0.803469	-1.935514	-2.837732
C	0.156051	1.39364	-2.122793
H	1.230449	1.524788	-1.984352
H	-0.067057	1.427771	-3.191755
H	-0.367062	2.213549	-1.626641
H	-2.212876	0.0	0.0
