15

C	0.0	0.0	0.0
C	-0.339033	-0.135613	-1.520548
F	1.369001	0.0	0.0
H	-1.417326	-0.305773	-1.561052
C	-0.643609	1.205814	0.549451
N	-0.573618	2.295811	1.024349
C	-0.48471	-1.166598	0.768967
N	-0.503794	-2.131015	1.451575
C	0.364469	-1.284194	-2.084299
N	0.908645	-2.191414	-2.597073
C	0.028837	1.143134	-2.273754
H	1.088757	1.376435	-2.157337
H	-0.562161	1.972943	-1.883162
H	-0.18941	1.026085	-3.33779
H	-2.263271	0.0	0.0
