15
Coordinates from ORCA-job run
  C   0.38103116782489      0.37029149536961      0.03407685087260
  C   -0.76607864033458     -0.34631194028565     -0.03605993822140
  C   1.66843382088713     -0.07909494233767     -0.59057954774252
  H   1.50078316000323     -0.90880864142117     -1.28066311177732
  H   2.12705117715143      0.74135345293816     -1.15522007402947
  H   2.40697632061325     -0.39902635665676      0.15656416700943
  N   0.31693091143146      1.63121616213427      0.72984251825985
  H   1.00888364836990      1.66116857639845      1.47138901419727
  H   0.53773630302099      2.39204662755553      0.09508412809281
  N   -0.82796510221118     -1.62035130296498     -0.62919906589400
  H   -0.23616982409737     -2.31167408072285     -0.19739218326306
  H   -1.77430300267289     -1.94651432274840     -0.74747393919906
  N   -2.00786642894254      0.17253367232526      0.36025668939065
  H   -2.48112757005455     -0.43957157169600      1.01378520632228
  H   -1.85231594098919      1.08374317211220      0.77658928598194
