15
Coordinates from ORCA-job run
  C   0.37769614370381      0.37527187828120     -0.00533472738498
  C   -0.76157225999500     -0.35607446522890      0.03464660128928
  C   1.61533830657913     -0.07316074765494     -0.72409877850446
  H   1.40132059792040     -0.91911877071684     -1.38092935808699
  H   2.41644091095882     -0.36997093715431     -0.03397870848150
  H   2.01638024193892      0.73979045380792     -1.34090732707787
  N   0.35235164606400      1.65243097013413      0.66326193794728
  H   0.51636486618226      2.39938980925996     -0.00435353275698
  H   1.09818789399108      1.70689685718809      1.34921621655013
  N   -0.85318149636639     -1.64527435225521     -0.52165561948220
  H   -1.80145022379356     -1.98581825921156     -0.55215685431847
  H   -0.21863967857278     -2.31797467797834     -0.12204000462386
  N   -1.97411210771747      0.15676619669836      0.51862587624183
  H   -1.80037872943911      1.08107551245550      0.89695058946911
  H   -2.38474611145410     -0.44422946762508      1.22275368921967
