15
Coordinates from ORCA-job run
  C   0.46057626859772      0.39353951198521     -0.03749253067207
  C   -0.73091729098036     -0.23151042544553      0.10799994312254
  C   1.67146703108444     -0.23684694093077     -0.65659174593496
  H   1.62680593351184     -1.32668608635822     -0.63882314767808
  H   1.80508510624219      0.09695470842397     -1.69049014789159
  H   2.57221368515061      0.05997447009929     -0.10911844421230
  N   0.60388775283617      1.76835665019904      0.24825390815905
  H   1.40951031970015      1.95761394037659      0.83050217559655
  H   -0.24230420534823      2.10761534201279      0.68896994867412
  N   -1.09357608316179     -1.45972156840252     -0.50763635712873
  H   -0.39803791177652     -1.79426278414010     -1.15861432055811
  H   -1.30977433321747     -2.18538449604969      0.16629647759464
  N   -1.79308529647490      0.45171726336317      0.78110974483065
  H   -2.65129943070996      0.31396902533077      0.26010812574162
  H   -1.93255154545390      0.08367138953602      1.71552637035667
