15
Coordinates from ORCA-job run
  C   0.47464617687474      0.23825685349815     -0.17490305188442
  C   -0.70690939285565     -0.37179317970363      0.06509346712250
  C   1.73636954541820     -0.08444762755144      0.55916929799940
  H   2.07523876777953      0.76005992585043      1.17123233729286
  H   1.57999192431049     -0.94503260513746      1.20686552388537
  H   2.53758106940146     -0.31315706577665     -0.15323484432051
  N   0.59873581224125      1.16135834909621     -1.25280547639621
  H   1.44823181640477      1.70253379494785     -1.17431575586328
  H   -0.18974884358275      1.79518502933155     -1.29443191768659
  N   -0.87947476951975     -1.24066350555762      1.17776231489253
  H   -1.54223422528573     -1.96372833521126      0.92769554469453
  H   -1.21834124962662     -0.75415628597354      1.99776452263624
  N   -1.80251415837739     -0.28309908352927     -0.83211526332945
  H   -1.52015629477712      0.05113735359905     -1.74347092296009
  H   -2.59141617840543      0.24554638211761     -0.48030577608291
