15
Coordinates from ORCA-job run
  C   0.40415776601998      0.36735015333501      0.03564145947674
  C   -0.74860107632744     -0.34103259727734      0.12936456467169
  C   1.67780824461285     -0.22034836516814     -0.49993216044110
  H   1.82576297205927     -0.01754408557040     -1.56849107906289
  H   1.72410538751097     -1.30290090664078     -0.36398500013929
  H   2.52582820226098      0.21379158928331      0.03718715154671
  N   0.55039191264590      1.70761919721920      0.51569175033818
  H   1.09160627661294      2.25623131134635     -0.14288156773894
  H   -0.35516780429479      2.15292645877320      0.60656156383425
  N   -0.96565402457554     -1.60575998097046     -0.46417034122559
  H   -0.23718084997819     -1.88176451913660     -1.10352873933986
  H   -1.12573901808582     -2.32291548877954      0.23281332515097
  N   -1.88635812439481      0.03814816534778      0.87389879981950
  H   -2.72520142257923      0.06951000850007      0.31008614115615
  H   -1.75675844148708      0.88768905973834      1.40174413195349
