15
Coordinates from ORCA-job run
  C   0.46596479956581      0.32426218372255     -0.12922700207632
  C   -0.74124169260416     -0.28111529159456     -0.05780195028792
  C   1.66733746566435     -0.06256620699390      0.67558760233713
  H   1.41943818429333     -0.75766247794718      1.47838585515318
  H   2.10587230128773      0.83102872731354      1.12982802160593
  H   2.44203155908109     -0.52609692900195      0.05280474980945
  N   0.63275195128958      1.48535189104085     -0.92336117349963
  H   -0.10621160575965      1.51994330387477     -1.61861132364099
  H   1.53753649352006      1.48855745532706     -1.37914349035064
  N   -1.02989242774551     -1.50828581527759      0.59522354265778
  H   -0.19992147093991     -2.03858544557161      0.81540558976240
  H   -1.59122820107600     -1.38667272029621      1.43100478445135
  N   -1.82780985384457      0.27922030487675     -0.78656130789002
  H   -2.25431952771593      1.06497291083840     -0.31168570605557
  H   -2.52130797501621     -0.43235189031093     -0.97184819197614
