15
Coordinates from ORCA-job run
  C   0.51958043905460      0.38111855266255      0.01301930946558
  C   -0.65425379024366     -0.28827499488554      0.08133782309859
  C   1.78299952710107     -0.21150769042013     -0.52439004002857
  H   1.62537492885097     -1.25209275643872     -0.79716020968243
  H   2.57638190398833     -0.14027484954569      0.22556499701327
  H   2.12120956241935      0.33915820257595     -1.40998113961038
  N   0.64407613955714      1.66741211790534      0.55270957206755
  H   1.26285881158990      2.25771605726067      0.01436455291403
  H   -0.26942659733905      2.08622521833729      0.67970110627905
  N   -1.77312184836550      0.39260821390752      0.67610405615614
  H   -1.89987236412254      0.12357838962357      1.64647958978542
  H   -2.62814316360001      0.17467490856188      0.17906582392272
  N   -0.76777566384435     -1.62983956737793     -0.40303072540118
  H   -1.34818762769995     -1.67254833954366     -1.23346952934368
  H   -1.19070025734629     -2.22695346262308      0.29868481336390
