15
Coordinates from ORCA-job run
  C   0.53439244598809      0.25201132951474     -0.25719900652701
  C   -0.67568317419295     -0.20254972491460      0.14230815224775
  C   1.82296659924045     -0.13232814684379      0.39735043310980
  H   1.64220919004483     -0.84609391778941      1.19723050036561
  H   2.50051884899063     -0.56864712525375     -0.34260103958218
  H   2.32145768295054      0.75006633280059      0.81528974807527
  N   0.65994086580120      1.04463160487372     -1.40480637467988
  H   1.38278880132683      1.74532891701260     -1.31745137912139
  H   -0.23523041046931      1.44749913365123     -1.65446280091754
  N   -1.82401549654146      0.20853387089727     -0.62108924570651
  H   -2.10731800901338     -0.50887978244685     -1.28085014718537
  H   -2.60946093881813      0.39401553126421     -0.00911334776483
  N   -0.80068669154634     -1.07525086375853      1.26935879960361
  H   -1.34624888240603     -1.89442019899812      1.02589954264270
  H   -1.26863083135496     -0.61291696000931      2.04113616543998
