15
Coordinates from ORCA-job run
  C   0.37485250206850      0.37840491407501     -0.01116968137248
  C   -0.75927896193915     -0.36138381039024      0.01494045694905
  C   1.65763648380888     -0.10888986474201     -0.61653149764073
  H   2.08852052950855      0.65822077045036     -1.27084768434925
  H   1.49109394731836     -1.00656140465705     -1.21581497268785
  H   2.41761647529253     -0.33964354528551      0.14187145687071
  N   0.29960949274977      1.70125356576439      0.55663526383964
  H   0.49600531399350      2.39841885657942     -0.15460479405832
  H   1.00293830454385      1.81659898072044      1.27887850049113
  N   -2.00316455897681      0.17289568882528      0.38363830195048
  H   -1.85781143152649      1.12393646470839      0.70331243108275
  H   -2.45155087724919     -0.37888575214545      1.10491782545104
  N   -0.80786445229974     -1.68964696473487     -0.44703120388351
  H   -1.75047138887101     -2.04091476143132     -0.51174984748918
  H   -0.19713137842152     -2.32380313773684      0.04255544484652
