15
Coordinates from ORCA-job run
  C   0.43072123088826      0.26213767419143     -0.17100916096885
  C   -0.74751204318488     -0.38647371612362     -0.01200997795958
  C   1.63225782476099      0.00301876675420      0.68847170201025
  H   2.52828742320227     -0.11656866077079      0.06793342582722
  H   1.50551601513745     -0.90968484895802      1.27470177215592
  H   1.83704393800292      0.82967923918232      1.38181164544765
  N   0.50223972044706      1.22501447267322     -1.24153390984619
  H   0.78711425966916      2.13072313482380     -0.88361011797515
  H   1.20607533534254      0.94458468735541     -1.91714472285031
  N   -0.97283434123595     -1.30155898094755      1.03248755851043
  H   -1.83134035496751     -1.81684713233723      0.91688234855915
  H   -0.88232117793016     -0.91142235599914      1.95673144078617
  N   -1.79240481597795     -0.29722606063504     -0.94413707797493
  H   -1.53362567810300      0.38740439863455     -1.64570679312198
  H   -2.66821733605120     -0.04078061784356     -0.50486813259979
