15
Coordinates from ORCA-job run
  C   0.36285712143415      0.33978800536919      0.02153564787059
  C   -0.79335859084005     -0.36303696066647      0.10886275699802
  C   1.63254077301391     -0.16353048199179     -0.60385581802217
  H   1.48618389869068     -1.06007139130582     -1.21221420238855
  H   2.05720180242088      0.60060376832700     -1.26521535148921
  H   2.40039179044330     -0.39649524149015      0.14513289915677
  N   0.34692214079761      1.66557258310260      0.58867437075902
  H   0.53359492049562      2.36082051357109     -0.12655923331484
  H   1.07592681861361      1.75946698434899      1.28831662785335
  N   -1.99300104734875      0.21415622851334      0.53911259940137
  H   -2.44868230942171     -0.36955392757609      1.22861656062889
  H   -1.79587381266105      1.13773547936490      0.90481700932026
  N   -0.96148297910620     -1.71822389520744     -0.21073609492972
  H   -0.13816679027997     -2.15063157869778     -0.59806214637822
  H   -1.76405373625202     -1.85660008566157     -0.81042562546557
