15
Coordinates from ORCA-job run
  C   0.54042306735818      0.27840653926752     -0.18215236435277
  C   -0.68886417032693     -0.16665314360381      0.16311155297959
  C   1.81081174985572     -0.23173792092334      0.41869799821645
  H   1.61060137923026     -1.02776665788990      1.13216031828051
  H   2.34528524069136      0.57986554048590      0.92125355977385
  H   2.47757797689364     -0.61889398731727     -0.36204072697498
  N   0.70037676417575      1.34456171173192     -1.08891206765338
  H   -0.17692127523038      1.70290944141514     -1.43547056619013
  H   1.35176954052954      1.15320169277903     -1.83663623395659
  N   -1.83843035759717      0.31758506115400     -0.54535678858523
  H   -2.69814854662335      0.03961086046658     -0.09686155664628
  H   -1.84335476005810      0.00294729522019     -1.50828649288702
  N   -0.87001236623558     -1.03562455742307      1.27502194734149
  H   -1.21560401854677     -0.54617490995379      2.09146889578336
  H   -1.50651022411618     -1.79123696540910      1.05400252487114
