15
Coordinates from ORCA-job run
  C   0.43558960728254      0.38607006334863     -0.00272124357667
  C   -0.74368792174981     -0.27204554281265      0.06978070052917
  C   1.72746972767065     -0.21656981647673     -0.45920783796886
  H   2.04425801824231      0.18767888306513     -1.42827852536971
  H   1.66781042205776     -1.30159369157340     -0.54965482172174
  H   2.51477250329414      0.01663601437394      0.26398526122659
  N   0.54041076901079      1.71206915703729      0.48433070212307
  H   1.14904005925896      2.26924942801497     -0.10345769400698
  H   -0.38553125753198      2.12692268213893      0.51784527456064
  N   -1.86003080610264      0.39478033323948      0.64901480302601
  H   -1.84900148277195      0.36906687873961      1.66105895113426
  H   -2.71914750162672     -0.00935937226762      0.30206233425632
  N   -1.03007386249893     -1.54961052077659     -0.47960398101128
  H   -1.14890586623659     -2.26477617330924      0.22952842736741
  H   -0.34097240829852     -1.84851832274174     -1.15368235056824
