15
Coordinates from ORCA-job run
  C   0.43122062653141      0.38646560617290     -0.05996991192873
  C   -0.69142709088539     -0.29968544026068      0.25307318531391
  C   1.59206147230444     -0.17130348770447     -0.82277738759976
  H   1.36225992050063     -1.13595923775470     -1.27627953313510
  H   2.47474915032910     -0.29828551407465     -0.18437891516348
  H   1.86717272353992      0.51926894960060     -1.62567800213222
  N   0.52319541626763      1.76968643606297      0.23243818605222
  H   1.45891356631332      2.01647904927865      0.53258466173754
  H   -0.14565993134067      1.99891647103411      0.96103151064078
  N   -1.76738486278682      0.39970989775097      0.86849940587009
  H   -2.33102264982762      0.91475482149368      0.20375345740743
  H   -2.34619696117339     -0.24694363754678      1.38660065513966
  N   -0.88270827698754     -1.70147385880503      0.13126645026266
  H   -1.52786982514942     -1.94679922623003     -0.61173229823430
  H   -0.01630327763561     -2.20483082901752      0.01056853576930
