15
Coordinates from ORCA-job run
  C   0.45958743833416      0.35371663254256     -0.00085374219338
  C   -0.69343681225764     -0.35546083209503      0.00464827686489
  C   1.71296715112751     -0.14856564031678     -0.64667615631656
  H   2.44221516329234     -0.46900398005420      0.10460303419384
  H   1.49070846129900     -0.98391851830447     -1.30892339853647
  H   2.18903157072427      0.64961781611529     -1.22886896466386
  N   0.62394079086027      1.57167224862521      0.70747263859079
  H   0.98635188761936      2.31467441128109      0.12347897585756
  H   -0.21909223295359      1.87614957395651      1.17170859287391
  N   -1.96011448786127      0.16603729383723      0.38924987384214
  H   -2.27279075974141     -0.14058623344078      1.30284387580992
  H   -2.00997890757962      1.17216719231742      0.32029599688613
  N   -0.72625995446766     -1.69809461828898     -0.45387113666174
  H   -1.67348534825852     -1.95038564249898     -0.69837349760975
  H   -0.34964396013720     -2.35701970367609      0.21326563106258
