15
Coordinates from ORCA-job run
  C   0.47035864585638      0.16959988346849     -0.24957906343158
  C   -0.72225677037636     -0.29602337884439      0.18264591607920
  C   1.77329300500451     -0.15847225855198      0.40581499303835
  H   2.47767662243948     -0.55363012587229     -0.33551664490163
  H   2.23543349856172      0.72933040673016      0.85398803065626
  H   1.62101610606474     -0.90406270006223      1.18395586839012
  N   0.55130695207633      0.92025768979105     -1.45761546139271
  H   -0.18723153229979      1.61006558702977     -1.51957355059354
  H   1.44282675135518      1.38863062380910     -1.53775993719048
  N   -1.89382981407546     -0.23591033873592     -0.61488271006663
  H   -1.68202669800447     -0.05815855677315     -1.58723805589251
  H   -2.60262781139658      0.40252531877204     -0.27506314389646
  N   -0.84432291480610     -0.98355376661616      1.42165403268732
  H   -1.58236058268768     -1.67168209846016      1.34192978385008
  H   -1.05825545771189     -0.35991628568433      2.18923994266420
