15
Coordinates from ORCA-job run
  C   0.39312894727546      0.23802687500748     -0.18997442506771
  C   -0.83305809148887     -0.26524655987678      0.09526819170680
  C   1.64606076277246     -0.05136358305841      0.58637326898756
  H   2.19780243764197      0.87715399114624      0.77352287457322
  H   2.32625905593157     -0.71996640596045      0.04307804773934
  H   1.45159838657355     -0.50400877151369      1.56241324492937
  N   0.47433299800019      1.10335583589517     -1.34092148644866
  H   1.15309490013039      0.74545856377344     -2.00503184735075
  H   0.78859134852777      2.02893012933708     -1.06832934882959
  N   -1.99421811072664      0.17313725956619     -0.55059771804364
  H   -1.72832142070414      0.76603167001115     -1.32744217163134
  H   -2.55646394848387     -0.61064395864369     -0.85611205772826
  N   -1.11696392569744     -1.25603145953617      1.04618453920128
  H   -1.88499435941007     -0.98227007985146      1.64448601784000
  H   -0.31684898034234     -1.54256350629610      1.58708287012240
