15
Coordinates from ORCA-job run
  C   0.38932620781374      0.28671824052501      0.11650467099003
  C   -0.82619464456570     -0.30122667299399     -0.00604428122398
  C   1.63476653477486     -0.14991969057543     -0.60080092005319
  H   2.15356461746482      0.71950584903437     -1.02096692773319
  H   1.43485766209482     -0.82972947430424     -1.43341754948382
  H   2.34616614960672     -0.65006818600173      0.06899797600985
  N   0.46679886489706      1.40615627268825      1.02255046101954
  H   0.74666992386832      2.24612869200818      0.52669505080870
  H   1.16954547600220      1.23647952286111      1.73473473108129
  N   -1.09834897113852     -1.49913819309596     -0.68238334292215
  H   -0.30079199607255     -1.88756437000162     -1.15975284965959
  H   -1.88636447241356     -1.39739078799453     -1.30804978499889
  N   -1.98715843856164      0.25077117427141      0.54629250710167
  H   -2.51864735962904     -0.44993551034079      1.04659468412274
  H   -1.72418955414155      1.02021313391997      1.15004557494100
