15
Coordinates from ORCA-job run
  C   0.49496783769534      0.26800174434250     -0.22807837283967
  C   -0.73308065383071     -0.24805574171191      0.01103621800588
  C   1.71454494365851     -0.05140243596296      0.58290333815233
  H   1.46518991514262     -0.42515051995341      1.57705355375585
  H   2.32348560574442      0.84869661179394      0.71784506638489
  H   2.34567453215285     -0.78706381928594      0.07419749888569
  N   0.75039665111226      1.04153055338448     -1.38086755945474
  H   1.23890648489692      1.90127799384269     -1.16600690003758
  H   -0.12414958525756      1.23700230761329     -1.85245407610716
  N   -1.83613457522798      0.18986598422890     -0.78838549905907
  H   -2.38963638063316     -0.61745543103273     -1.05070859858369
  H   -2.43464166218634      0.82527902718837     -0.27250823111059
  N   -1.00973974791851     -1.33708138138851      0.88139837005415
  H   -0.17379903440198     -1.76366455440899      1.25413884493175
  H   -1.63098433094668     -1.08078033864972      1.64043634702196
