15
Coordinates from ORCA-job run
  C   0.45616341726475      0.32205042030853     -0.16436613823561
  C   -0.75224571955104     -0.25619935494098      0.02056007090980
  C   1.67681398277417      0.03627100060834      0.65332886426960
  H   1.95284231669396      0.88942310172131      1.28483053007856
  H   2.52276445201015     -0.16443782249143     -0.01101727665055
  H   1.54609694539868     -0.83262798737678      1.29898893793373
  N   0.67030997064916      1.18114583352324     -1.27032537721226
  H   -0.22563275067268      1.52924502971496     -1.59713414626949
  H   1.27118099757079      1.95683703024202     -1.01793763627610
  N   -1.14959837738803     -1.03644270167282      1.13828431509125
  H   -1.26374379704304     -2.01828327437424      0.91164033568391
  H   -0.52564198573818     -0.93788495210221      1.92533024358605
  N   -1.78648619327083      0.01192894643236     -0.91894618432480
  H   -1.70408034693849     -0.54179389436693     -1.76226732228319
  H   -2.68974291175935     -0.13723137522537     -0.49096921630090
