15
Coordinates from ORCA-job run
  C   0.46503052582749      0.29172370253109     -0.13190416279954
  C   -0.73964286477536     -0.30291931458023      0.04593581322858
  C   1.66792374837497      0.01090903856146      0.72063502673355
  H   2.56581293310904     -0.01335030256578      0.09511036955919
  H   1.60327606055687     -0.95304945857091      1.23105278549903
  H   1.82862011951183      0.79540487924311      1.46846075658845
  N   0.67451986386216      1.32944489897712     -1.09685150718919
  H   1.13660450482727      1.00807649434469     -1.93961424468606
  H   -0.18473803976826      1.80067711743131     -1.34379549988695
  N   -1.12668385417956     -1.02474323303064      1.19047828234566
  H   -0.40721608609050     -1.07375891217630      1.89496232284696
  H   -1.47171894401559     -1.94525569104036      0.95081162132550
  N   -1.80340568651696     -0.25468872063871     -0.87480392830374
  H   -2.64868832736580      0.12780029507341     -0.47224735338603
  H   -1.56069395335759      0.20272920644074     -1.73923028187541
