15
Coordinates from ORCA-job run
  C   0.46547039121428      0.31240670012233      0.05754918489219
  C   -0.74969668547226     -0.28388013537418     -0.00589917289374
  C   1.72759291923634     -0.30836358494120     -0.46636446098177
  H   2.55533541636771     -0.09324837208081      0.21700444590970
  H   1.65450809523520     -1.39503372919394     -0.55286887221369
  H   2.01110220982498      0.10534890813145     -1.44039048100298
  N   0.64221483290573      1.64974124329490      0.53819042232211
  H   1.01456161879198      1.69125695669116      1.47985127336098
  H   -0.20988271046090      2.19083967777316      0.48962795154155
  N   -1.06427237833097     -1.40153025930879     -0.80101298397246
  H   -0.28398655719918     -1.74286221602051     -1.34026003836238
  H   -1.48763623626697     -2.14036217121463     -0.25456297865923
  N   -1.89546749936623      0.14960800086217      0.68874026302230
  H   -1.71064879677564      0.91169323522866      1.32167284832996
  H   -2.66919461970408      0.35538574603022      0.07072259870746
