15
Coordinates from ORCA-job run
  C   0.50378876006944      0.40038154026255      0.03766663778716
  C   -0.64251213919232     -0.31816626597036      0.05916316392231
  C   1.78726086585492     -0.10212584263112     -0.54255622755898
  H   2.10501943897906      0.52977222233751     -1.38014770437125
  H   2.57816145842399     -0.06307042688429      0.21239060384227
  H   1.66706960238849     -1.12262642824188     -0.89756519701512
  N   0.57980955974086      1.64834855190690      0.66864594316397
  H   -0.34928216644861      2.01965962657817      0.82650819861757
  H   1.17244217197395      2.29974721486777      0.17308577038968
  N   -0.70379858574647     -1.62724208794143     -0.51526489848602
  H   -1.29678432023980     -1.63939999487978     -1.33776996784257
  H   -1.08760921635724     -2.28957661419603      0.14953795975705
  N   -1.78450950109252      0.27448297900050      0.70311477628679
  H   -2.63205852635599      0.06092446548389      0.19153636320064
  H   -1.89799740199776     -0.07110893969241      1.65065457830649
