15
Coordinates from ORCA-job run
  C   0.38684763668435      0.24702962884871     -0.19130027697212
  C   -0.81389442667182     -0.32527138496221      0.07127003519277
  C   1.60031092947514      0.14935167248148      0.68862542369945
  H   1.81806195422695      1.09547806766203      1.20072169062187
  H   1.51446981717095     -0.62519066714752      1.45542392445067
  H   2.48434524768398     -0.09673481787076      0.08890916571475
  N   0.47545267920242      1.01066795769520     -1.41139253301892
  H   1.16736902854150      0.60729905556804     -2.03453833151758
  H   0.77447288258696      1.95992064998295     -1.21337623946704
  N   -1.85415716762671     -0.35079362488023     -0.86392621490978
  H   -2.72853377387980     -0.06667351042454     -0.44144516416946
  H   -1.60497053041006      0.24706717181772     -1.64248712463772
  N   -1.18281990958108     -0.95875001978589      1.26682525432786
  H   -0.43520623087998     -1.02939496825981      1.93834320933890
  H   -1.60174813652282     -1.86200521072517      1.08934718134637
