15
Coordinates from ORCA-job run
  C   0.39843106511199      0.27426631486576     -0.14255508875017
  C   -0.80991288834464     -0.28047113377446      0.10698255830087
  C   1.67188044085364     -0.08209083468090      0.56108842452310
  H   2.17929018336721      0.82986267886860      0.89903638566335
  H   1.49594141891568     -0.68712602847231      1.45238492215585
  H   2.37477570181587     -0.62210242415231     -0.08483633755941
  N   0.46538239418495      1.35276673903315     -1.09030078906522
  H   0.19349950571639      1.04432299114203     -2.01615085087531
  H   1.39725978163955      1.73753699553176     -1.14261809133707
  N   -1.04506789081275     -1.48612776160041      0.80229305618625
  H   -1.71347180539976     -1.33727844436693      1.54911080035614
  H   -0.19857764472924     -1.90270540743492      1.16153639421095
  N   -2.01438976603934      0.28604496816923     -0.34470194990898
  H   -1.86029028263932      1.19731476485372     -0.75172814852621
  H   -2.53575021364024     -0.32421341798200     -0.95954128537413
