15
Coordinates from ORCA-job run
  C   0.48762788177844      0.21223571317129     -0.18336850283399
  C   -0.77268482533831     -0.17477245885914      0.12947784432134
  C   1.71214488278550     -0.27331304260299      0.53555547909375
  H   2.08385059105452      0.46692339636954      1.25264865833316
  H   1.54307486488209     -1.21692691820902      1.05957857139008
  H   2.51932175321759     -0.44335027411559     -0.18426595410020
  N   0.76356538508013      1.21123664931792     -1.17047279298702
  H   1.11139379573893      0.82842864895467     -2.04200457252706
  H   -0.03666340523128      1.79949797613110     -1.35656745783423
  N   -1.90790852597299      0.05649332587059     -0.67111664586276
  H   -2.62501813909398      0.58202216333160     -0.18906571276201
  H   -1.68784633595609      0.45939125857802     -1.56812973899038
  N   -1.14804831642799     -0.83008393261459      1.31714108094313
  H   -1.66519689258455     -1.67871280700568      1.12721717351186
  H   -0.37661271393204     -1.00006969831772      1.94337257030432
