15
Coordinates from ORCA-job run
  C   0.36499712003128      0.34788675034741     -0.03177796439561
  C   -0.77038426001945     -0.37165774171985      0.11855290506576
  C   1.60381008402618     -0.13681669846787     -0.72089573710588
  H   2.43044330475946     -0.32039367104518     -0.02345661432579
  H   1.42752259630565     -1.05271142049099     -1.28775265769976
  H   1.95002552786718      0.61485474097020     -1.44074100954699
  N   0.37105465851628      1.71170335632742      0.42658613172756
  H   0.24006157912188      1.75577586891478      1.43082887206815
  H   1.24791687172988      2.16213186390466      0.20596523176671
  N   -1.99458782562907      0.21193635101471      0.48840957405955
  H   -2.36925222513277     -0.16260328474361      1.34958424259663
  H   -1.93028842449913      1.21954263748806      0.50751188323745
  N   -0.89759498539438     -1.76546048713889     -0.03935932393447
  H   -1.63678881465206     -1.99283442851051     -0.69250467610781
  H   -0.03393520703093     -2.22135383685033     -0.29095085740549
