15
Coordinates from ORCA-job run
  C   0.41994333820676      0.26773476866477     -0.18850861019357
  C   -0.79883121493759     -0.19613920401079      0.17712669370859
  C   1.67376434955054     -0.02755375990017      0.57980479259215
  H   2.25378603021890      0.89004427789687      0.73412897958086
  H   1.44197014637822     -0.44763294218546      1.56088944104519
  H   2.33171228156871     -0.73142701589011      0.05280330973947
  N   0.47122364847700      1.10138380739299     -1.36337718730477
  H   1.12404010487990      0.71928001387420     -2.03972084999567
  H   0.81178545174266      2.02646789151169     -1.12100430099055
  N   -1.98871205570015      0.25389237565052     -0.41438282656225
  H   -1.74814346025195      0.86906534274518     -1.18343257335478
  H   -2.56190517377379     -0.51454481257274     -0.74098817734456
  N   -0.98133037886047     -1.07020811124469      1.26435849670312
  H   -1.95273357417875     -1.18972822682711      1.50531791881462
  H   -0.49756949331999     -1.94963440510516      1.17898489356215
