15
Coordinates from ORCA-job run
  C   0.38514455736243      0.23230468687919     -0.21312797364902
  C   -0.81704045427872     -0.30595357813475      0.10840767361382
  C   1.62567031740765      0.13481664575445      0.62817828661807
  H   2.48520553104134     -0.13787140157530      0.00488839894145
  H   1.87537407308966      1.08737790914161      1.11304278785357
  H   1.55317952823916     -0.62318109848213      1.41275420987373
  N   0.44597093976870      0.95677743433397     -1.45870690552742
  H   1.11269337742935      0.52411694223021     -2.08964199384009
  H   0.76496769162965      1.90690275299669     -1.29951138064726
  N   -1.88975526319356     -0.33963892747755     -0.78914922783872
  H   -1.65573125444668      0.22654058679364     -1.59557496406212
  H   -2.74247283347892     -0.02225091605094     -0.34656242027428
  N   -1.15624509230859     -0.89276396112500      1.33592168593193
  H   -0.38793685644828     -0.95633873710089      1.98433155512983
  H   -1.60002426181319     -1.79183833818321      1.20375026787650
