15
Coordinates from ORCA-job run
  C   0.48977944535270      0.22227429481386     -0.21493869409571
  C   -0.70894655908621     -0.28449004222265      0.15680292408199
  C   1.77223909799523     -0.16684138603159      0.45166794659842
  H   2.55103612645595     -0.35378413241952     -0.29747686875131
  H   2.14069448846635      0.63790294625078      1.09624384095327
  H   1.63277496271375     -1.06763849141564      1.04738809750950
  N   0.63070792508402      1.25582251614759     -1.17627180504480
  H   1.29905024289444      1.02251304996337     -1.89977266194079
  H   -0.24680282269321      1.53089908504019     -1.59262031141731
  N   -1.91503620115604     -0.13217708148450     -0.58330056755024
  H   -1.75492920158728      0.06524807102170     -1.56062345142754
  H   -2.55671956040635      0.54567770938760     -0.18901455753908
  N   -0.83286933714535     -1.08692744581739      1.32090417632132
  H   -1.67732551817390     -1.63855604996125      1.26352386706651
  H   -0.82265308871409     -0.55092304327254      2.17748806523576
