15
Coordinates from ORCA-job run
  C   -0.73661631320618     -0.03794120341847      0.15872368149863
  C   0.69108974975335      0.36658955011155      0.55692577793560
  Cl  -1.80666505145742     -0.01050947582244      1.55880808062163
  H   0.64492026668243      1.35906359449616      1.00775939991079
  N   -1.27921047025576      1.08579900934056     -0.78417004647943
  O   -1.02857954293489      2.24143309249914     -0.46750452833058
  O   -1.92256254422720      0.71335576504880     -1.75713370010646
  N   -0.74999145108719     -1.31050704193217     -0.44401691052364
  H   -0.27514408732682     -1.28831040442022     -1.34050972450102
  H   -1.69517536325614     -1.64410197748457     -0.58204862176740
  C   1.47866465807617      0.45807586489997     -0.69378255194483
  N   2.11590773258467      0.45610827966311     -1.68170616720019
  N   1.19931792964685     -0.58051642864367      1.51997375343736
  H   1.24586321341411     -1.50488939629759      1.10993400684473
  H   2.11818127359404     -0.30364922804016      1.83974755060481
