15
Coordinates from ORCA-job run
  C   -0.71267032896846     -0.01964686374108     -0.11165133238870
  C   0.62856664572581      0.29774101397149      0.56676783703257
  Cl  -1.96507714264905     -0.10924248871233      1.24036617402316
  H   0.49021889372232      1.18640168057005      1.19000760527985
  N   -1.19353842715579      1.16010127323389     -0.94555368244256
  O   -1.99894604051357      0.90135871159553     -1.82859399601960
  O   -0.76203388144488      2.26604175103974     -0.64163868097782
  N   -0.61304156411419     -1.13549720074435     -0.91909074704350
  H   -0.15403372179356     -1.89303826688339     -0.42923321978765
  H   -1.48033468042844     -1.40045233892725     -1.36337384652334
  C   1.62884030531294      0.60899070053160     -0.45899709936886
  N   2.46913557906403      0.85196495936675     -1.24154851993162
  N   1.04078568869569     -0.90181751348972      1.29544561134712
  H   0.58074823914069     -0.92050648245737      2.19766936498062
  H   2.04138043540646     -0.89239893535355      1.44742453182033
