15
Coordinates from ORCA-job run
  C   -0.65915911059929     -0.11549343876067      0.05743564816151
  C   0.71806586742247      0.29388744047744      0.63669289875727
  Cl  -1.76076425040831     -0.53806578410508      1.37721180687604
  H   0.55679255841711      1.15409961585233      1.28928441087016
  N   -1.28290248009490      1.15622340975283     -0.59826157926613
  O   -1.77778534105845      1.01148867202080     -1.70921994463222
  O   -1.21993946465010      2.19304143361101      0.04986948937753
  N   -0.53656219379686     -1.19714015607132     -0.83171289446236
  H   0.00496791483660     -0.93154484921113     -1.64779413942278
  H   -1.44120930769162     -1.53565247446633     -1.13405111160973
  C   1.53941015249564      0.72768214149786     -0.50451006901865
  N   2.14942290742056      1.02844774255261     -1.46190043984318
  N   1.40046394160886     -0.74645522030037      1.36598725876833
  H   0.95548140294169     -0.88474980062807      2.26397982667606
  H   1.35371740315661     -1.61476873222191      0.84498883876815
