15
Coordinates from ORCA-job run
  C   -0.70161811211718     -0.06489593788733      0.26636340077554
  C   0.78354914260047      0.25358361891892      0.49589482306729
  Cl  -1.53438939328627     -0.30094095056323      1.80176823801096
  H   0.84305000643207      1.14214189474323      1.12606698378654
  N   -1.35321895936665      1.21685315151553     -0.34882956833302
  O   -2.17647177266494      1.03262449818723     -1.23665975877100
  O   -1.00208908395589      2.29377293653017      0.11555459281608
  N   -0.85257512566827     -1.20040137045788     -0.55293030776718
  H   -1.81929212957735     -1.49578782390831     -0.59912964261978
  H   -0.52214041433609     -1.01036050940431     -1.49344822384564
  C   1.36519855471592      0.57896527274592     -0.82629576122199
  N   1.83521600075448      0.76300534933438     -1.88792159086157
  N   1.40633735241760     -0.86128792745164      1.16872598571461
  H   2.37377848484115     -0.65398690832737      1.37912506065464
  H   1.35366544921093     -1.69128529397529      0.59171576859456
