15
Coordinates from ORCA-job run
  C   -0.64422771447976      0.17847333356204      0.14224922499578
  C   0.86971188264239     -0.14101307735472      0.25384245430862
  Cl  -0.94758118257060      1.89135682596953      0.36486733999378
  H   0.94925870934647     -1.23020226977412      0.15865292551422
  N   -0.97953853665859     -0.19918883838385     -1.33977998120940
  O   -0.92663354042630     -1.41263359073472     -1.53715149206545
  O   -1.20968259774780      0.66097742586383     -2.17463461949607
  N   -1.38738413152942     -0.57963102253264      1.06787299573318
  H   -1.30714371057495     -1.56961670103351      0.86993786811955
  H   -2.35996042306804     -0.30202117252042      1.10435816459732
  C   1.31559775276555      0.22732562640806      1.60295065509380
  N   1.70890719728134      0.52522717034209      2.66757856812206
  N   1.72774032753540      0.45436056447921     -0.73801391691884
  H   1.58955540779386      0.04078613929490     -1.65001259311845
  H   1.60038055969039      1.45679958641429     -0.79071759367007
