15
Coordinates from ORCA-job run
  C   -0.80262400745183      0.02919373529218      0.19525748921428
  C   0.68587458872104     -0.04797829470205      0.58684977013475
  Cl  -1.68276313394537      0.82381499458050      1.53049524033286
  H   0.67238920456667     -0.48669116593789      1.58978522214387
  N   -0.98118353771083      0.94642465786284     -1.04390234143364
  O   0.01484710230547      1.07121739971363     -1.75333675394824
  O   -2.10120249428281      1.36228665260546     -1.28362463904439
  N   -1.29898598330548     -1.22628883112707     -0.15725484228820
  H   -2.23821845138073     -1.42782549661385      0.14185151155721
  H   -0.62489419152551     -1.97150342105826     -0.06690576692578
  C   1.27587648729685      1.29618785782104      0.71875591828737
  N   1.81299053539719      2.33161853740170      0.85563519825084
  N   1.40557768284412     -0.96642764733704     -0.27465414828872
  H   1.56080477191009     -0.53706475162447     -1.17847427238723
  H   2.30051142656110     -1.19696422687669      0.13852241439501
