15
Coordinates from ORCA-job run
  C   -0.78959860736347     -0.04431816702644      0.12501779549762
  C   0.69287302372428      0.17601677527114      0.50897756146873
  Cl  -1.69151177245385     -0.22572079579887      1.68978797098475
  H   0.73854161907856      0.98743343902863      1.24399396187071
  N   -1.29163346735958      1.26779539239601     -0.49137826923682
  O   -1.11378246991985      2.27349927964540      0.18172202628977
  O   -1.78315111862033      1.21643862001908     -1.61239051435571
  N   -1.00646925866409     -1.10849820565177     -0.74129954349573
  H   -0.25421985465446     -1.78237337918953     -0.69765435992539
  H   -1.27564998650678     -0.82498198093917     -1.67112418752497
  C   1.41446041094036      0.59863040212345     -0.69585039614352
  N   1.98946492626867      0.94441257079621     -1.65934306930182
  N   1.22353792920578     -1.10413438589981      0.95993626391665
  H   0.91154122115130     -1.28321930087367      1.90710535164330
  H   2.23559740517347     -1.08998026390073      0.95249940831237
