15
Coordinates from ORCA-job run
  C   -0.75762308701579     -0.04249065648593     -0.03656777925085
  C   0.59816244610405      0.29990959472956      0.66554139486786
  Cl  -1.95140724094362     -0.35964847842739      1.23445786084646
  H   0.41784384522686      1.16710290256959      1.30720418644136
  N   -1.16508110461047      1.24516424937724     -0.77049432226450
  O   -1.18592389487334      1.20477411212332     -1.99383951894730
  O   -1.35422968087668      2.22604397745930     -0.06221896958147
  N   -0.77435917892363     -1.10532628819717     -0.96527296282240
  H   -0.17892195770884     -0.93310336560195     -1.76474284439179
  H   -0.58664640541466     -1.99536197567007     -0.52755164921654
  C   1.54171535667284      0.68387708243489     -0.39158551011494
  N   2.26211564019005      0.94328232592543     -1.28207371833133
  N   1.17887154226370     -0.75562362064568      1.45796665475696
  H   0.57325893719407     -1.00489683164364      2.22873693179516
  H   1.38422478271547     -1.57470302794750      0.90044024621331
