15
Coordinates from ORCA-job run
  C   -0.69511625012290      0.30863832323854      0.01266412339053
  C   0.72762560136532     -0.27942173449560      0.12059712452362
  Cl  -0.64331344387156      2.03757910061168      0.32041893291304
  H   0.61795099078717     -1.34316730926459     -0.11276148342264
  N   -1.11260745157550      0.03183626024346     -1.44249002446457
  O   -1.19791550348070     -1.16963064061337     -1.68301290331562
  O   -1.32447966911622      0.95072512324518     -2.20972437587757
  N   -1.69963325834347     -0.28916684654580      0.82596618946109
  H   -1.70370302980357     -1.29496415423971      0.70766976286285
  H   -1.58196753090568     -0.03968818662668      1.79912669506916
  C   1.17257297090477     -0.16451923172962      1.52202544585140
  N   1.55387166550553     -0.05732588532075      2.62829582274397
  N   1.59408297897184      0.30743324153051     -0.87481017761594
  H   1.86037015671735      1.24979091371029     -0.61815772311333
  H   2.43126177296757     -0.24711897374352     -0.99580740900598
