15
Coordinates from ORCA-job run
  C   -0.76428317248319      0.13455707980734      0.32291120316178
  C   0.73028970025061     -0.09387000883536      0.58736115079859
  Cl  -1.43634984719897      1.28907578135094      1.48365409722633
  H   0.74188529582695     -0.61218260369058      1.55131841240034
  N   -0.94106355549534      0.81326258241106     -1.06908602172879
  O   0.04467170929437      1.32444714445663     -1.59230051682077
  O   -2.06882565533054      0.76287929630750     -1.54059502103149
  N   -1.44255095636747     -1.09251637404990      0.39033063596135
  H   -0.96471985599589     -1.76158832286163     -0.20440966168012
  H   -2.41364968753240     -0.98969133998261      0.12370412418832
  C   1.49921520601695      1.14900172397475      0.75421042950542
  N   2.19311532444910      2.08088223172734      0.92458159492578
  N   1.24310735998480     -1.00209917653747     -0.42799900356674
  H   1.55011020790444     -0.47695073127786     -1.23775333969167
  H   2.02904792667657     -1.52620728280015     -0.06592808364834
