15
Coordinates from ORCA-job run
  C   -0.67584194649464      0.10645451145424      0.19708019374830
  C   0.80213377409955     -0.07554157641921      0.61178908480373
  Cl  -1.47650494069452      1.27143925387160      1.32490591165198
  H   0.74453027161082     -0.59212005938576      1.57976120064714
  N   -0.79139871851529      0.74504157379980     -1.18513420393878
  O   0.17100592961875      1.38445877843484     -1.59080200391036
  O   -1.85466962482483      0.57843409534298     -1.76888145516460
  N   -1.30238347546717     -1.15336937671289      0.10977990930990
  H   -2.21566221566689     -1.07235105423027     -0.32191870533171
  H   -1.39185312815986     -1.57443699720406      1.02636447984336
  C   1.48330409206521      1.19766399277549      0.86634916544488
  N   2.07059986962014      2.18541102883557      1.10245579936121
  N   1.58448074923297     -0.88974642576112     -0.29055856261443
  H   1.06866155471925     -1.73110314085701     -0.51775510159115
  H   1.78259780885652     -0.37923460394417     -1.14143571225951
