15
Coordinates from ORCA-job run
  C   -0.62869827686448      0.23475411551269      0.12618203178220
  C   0.85539144334768     -0.19373539703759      0.26930832537164
  Cl  -0.79934480518031      1.97601645055783      0.24951374775370
  H   0.85053115063587     -1.28941703915219      0.23528783489006
  N   -0.98493133844985     -0.19891231084359     -1.33569689266504
  O   -1.14680057162523      0.62782231974540     -2.21888743800832
  O   -1.02295952324404     -1.42207592572574     -1.46464345714186
  N   -1.43325429550876     -0.40994124360856      1.08528502105761
  H   -2.38174199228833     -0.05724465518828      1.09739256558198
  H   -1.42765033518727     -1.41296804752424      0.94585088122443
  C   1.32171203259336      0.21499599236171      1.59977452466175
  N   1.72673410499380      0.55096832896390      2.64856032042998
  N   1.76136873158943      0.27700325089833     -0.74638176535541
  H   1.59747236280919     -0.17683169835405     -1.63460867589447
  H   1.71217131237894      1.28156585939438     -0.85693702368826
