15
Coordinates from ORCA-job run
  C   -0.64733113397243      0.22284157049073     -0.01747046100614
  C   0.80476787097395     -0.27139274171720      0.15445120300166
  Cl  -0.72693740965208      1.99271644322757      0.27232203873881
  H   0.77772088507570     -1.32806533763572     -0.13946303296248
  N   -1.07447198135142      0.00279967355256     -1.47101628854388
  O   -0.25791801349592     -0.48933151204179     -2.24216000351348
  O   -2.23129281361285      0.29913546443048     -1.73266408865078
  N   -1.54723661893719     -0.55281009022538      0.74319918562736
  H   -1.35673880559213     -0.47092977412671      1.73490190947910
  H   -2.50215718142315     -0.26804601930662      0.55733135864659
  C   1.10814896537031     -0.22278748981371      1.58724196781859
  N   1.34652507878380     -0.18425547883352      2.73627971831405
  N   1.74966699000465      0.51954813835198     -0.60517197057937
  H   1.95070734988551      0.06924525917486     -1.48562167175213
  H   2.60454681794325      0.68033189447250     -0.09315986461793
