15
Coordinates from ORCA-job run
  C   -0.65951210808870      0.25532908650849      0.13445943792123
  C   0.77872498629096     -0.28123899533493      0.15090087610084
  Cl  -0.70189594269532      1.95197011607748      0.58603428163608
  H   0.70399328065562     -1.33773682010033     -0.12720290487408
  N   -1.09163216716949      0.11705418038799     -1.36240420290710
  O   -1.32601067488066      1.09900155762251     -2.04166668002892
  O   -1.16652296871650     -1.05804425727244     -1.71386598818811
  N   -1.48636723823039     -0.50025883579226      0.99536080346909
  H   -1.58118596937817     -1.44778475074445      0.64855826406985
  H   -2.39844682294646     -0.07710916088384      1.11281145795495
  C   1.31315898536098     -0.20038694780139      1.52107869000666
  N   1.82936057410094     -0.11593690476315      2.57281694301837
  N   1.56298766599818      0.38904932218775     -0.86331669588924
  H   1.80649771666868      1.32666635480225     -0.56767147518179
  H   2.41685068303034     -0.12157394489377     -1.04589280710786
