15
Coordinates from ORCA-job run
  C   -0.75956010935467      0.14866847003045      0.32919962894360
  C   0.73340919147446     -0.10121241473525      0.58273087933626
  Cl  -1.40319572864072      1.31875177443335      1.49035187956912
  H   0.74378981708398     -0.61329964723042      1.55003239513329
  N   -0.93923296407931      0.82231967771677     -1.06461390095095
  O   0.05029893689147      1.31042937057963     -1.60267045328679
  O   -2.07303765945225      0.79060314708266     -1.52283185058658
  N   -1.45581911873704     -1.06773425047452      0.40899775027230
  H   -2.42802732208560     -0.95161989313222      0.15213893678767
  H   -0.99434535261120     -1.74712390614423     -0.18689888168816
  C   1.52295373459281      1.13063045511950      0.73415936852756
  N   2.23741805840490      2.05161281503794      0.87668515576462
  N   1.22439863425591     -1.02389878641376     -0.43032829397033
  H   1.53386177254848     -0.50884008011399     -1.24564920567471
  H   2.00508810970875     -1.55728673175589     -0.07030340817693
