15
Coordinates from ORCA-job run
  C   -0.71220818742777      0.07483857055524      0.23530320787708
  C   0.77857416311301      0.41732606079761      0.37906832438204
  Cl  -1.60239641749085      0.54143681633825      1.68280729866677
  H   0.85932223080649      1.48805177381448      0.57255288069054
  N   -1.27981285434297      0.99078082150566     -0.89887075176994
  O   -0.91070145743211      2.15786333193975     -0.90305490208072
  O   -2.05887622351324      0.46365752252972     -1.68281627601387
  N   -0.89079098700809     -1.29663959521559     -0.02970145211819
  H   -0.52458226319447     -1.53538964882844     -0.94550326335082
  H   -1.86814959898549     -1.55575059756158      0.00935471487970
  C   1.41496039704267      0.12916839318726     -0.92656525658190
  N   1.91440683527982     -0.17205105454683     -1.94726408382701
  N   1.32731464836799     -0.31938071370611      1.49230096980452
  H   1.25622766176330     -1.31463989502695      1.32159982356669
  H   2.29571205302170     -0.06827178578246      1.64178876587511
