15
Coordinates from ORCA-job run
  C   -0.71978604917172      0.03500448709054     -0.03183157098673
  C   0.71680855648979      0.35175181145553      0.41071582076873
  Cl  -1.79883836299074      0.40897482204602      1.41774969723353
  H   0.73154355737733      1.37193412262935      0.80601959901864
  N   -1.19858163160431      1.03000159913737     -1.07995334135234
  O   -0.63935812117097      2.12007172761436     -1.10550715911033
  O   -2.12724822883981      0.66219205940990     -1.78537882855170
  N   -0.81547720155111     -1.24428396181552     -0.54295979902867
  H   -0.36326373267444     -1.90980848818179      0.07112765279511
  H   -1.75050174587494     -1.50813396154073     -0.81815495071136
  C   1.60542502457242      0.29806056776713     -0.75420278319010
  N   2.35360119062508      0.24609243545190     -1.65697301119496
  N   1.11331035708908     -0.68035233219247      1.36874905992357
  H   0.76917237818437     -0.43350725195613      2.28886989008711
  H   2.12219400953997     -0.74799763691548      1.41272972429951
