15
Coordinates from ORCA-job run
  C   -0.66112836318241      0.08918525941187     -0.06346651136227
  C   0.83931715870428     -0.16160995161418      0.12976724033128
  Cl  -0.98767393965564      1.84615033164816      0.19835980474635
  H   1.01125287567636     -1.17915838983624     -0.22791328945961
  N   -1.04038321120545     -0.23255582941049     -1.51673723912024
  O   -2.15048155413449      0.14195993374309     -1.86886038315067
  O   -0.26311237657110     -0.92346096496549     -2.15959469877145
  N   -1.45247314557581     -0.78128253733794      0.71005852988764
  H   -2.43848250166964     -0.61272930546715      0.54533898416527
  H   -1.25311128840134     -0.69355848466970      1.69944334500294
  C   1.12657396055141     -0.13214196468504      1.57574632245579
  N   1.35951279844167     -0.09126661044499      2.72677131045421
  N   1.62450104603337      0.75058885285730     -0.66939094888207
  H   2.52619772940273      0.34627097945573     -0.88170514454537
  H   1.75949081158611      1.63460868131509     -0.19681732175180
