15
Coordinates from ORCA-job run
  C   -0.66198403415440      0.26309150309186      0.03216217514860
  C   0.80544133397652     -0.23679654247723      0.19991535213428
  Cl  -0.72181297637432      2.00532862083375      0.23233134670580
  H   0.75698242578841     -1.32196547554568      0.05403237326774
  N   -1.01924766734526     -0.12201678575590     -1.41225510292474
  O   -1.09255919227667     -1.33843198451396     -1.57378617442810
  O   -1.15277324811733      0.73587726656415     -2.26882935096744
  N   -1.64660355315554     -0.34912167795388      0.85890181222941
  H   -1.56930910198060     -0.02347198788304      1.81375112098623
  H   -1.57241343955600     -1.35846037962231      0.81799006720040
  C   1.18820714594333      0.00749061897674      1.59623393604150
  N   1.45702441341348      0.20883132498235      2.72109142884020
  N   1.79202024287110      0.29133261288348     -0.70615794998976
  H   1.77991189786530      1.30299837241078     -0.72103383651688
  H   1.65911575310196     -0.06468548599110     -1.64334719772727
