15
Coordinates from ORCA-job run
  C   -0.71185339039117      0.09115074606697      0.16236252470705
  C   0.82237752906786     -0.03565959022208      0.19243532137576
  Cl  -1.22041394353890      1.68594163307002      0.66966740058598
  H   1.04961822412186     -1.08408833583162     -0.02849285321715
  N   -1.08941667538888     -0.09855446248632     -1.34078994565674
  O   -1.90934095402202      0.63008787709037     -1.87044359756327
  O   -0.55619168479697     -1.08623528905188     -1.84689236209775
  N   -1.31731394998068     -0.90110700375965      0.96802472508561
  H   -1.12004326850235     -1.82898558280412      0.61164282861003
  H   -2.31498273155114     -0.76102331668985      1.06530725452292
  C   1.29903486648697      0.24145125842299      1.54885519412208
  N   1.74649250997116      0.48518303423368      2.60644043428238
  N   1.40539429399684      0.85229455781408     -0.79808911284696
  H   2.08370338614042      1.48359613488383     -0.39808424075312
  H   1.83293578838698      0.32394833926359     -1.54494357115684
