15
Coordinates from ORCA-job run
  C   -0.66710001021596      0.02477825912208     -0.06588979089622
  C   0.85010156217264     -0.08261908983943      0.13113379142502
  Cl  -1.16365475867926      1.73781083020524      0.22159113812194
  H   1.12212725541468     -1.07042261288009     -0.24721578663890
  N   -1.01005056306464     -0.30660869435865     -1.52546091210353
  O   -0.15656748266258     -0.87608079925352     -2.19038912511537
  O   -2.15682892578206     -0.05267572838226     -1.86789114477141
  N   -1.37304957661154     -0.93084465267264      0.68913399305920
  H   -1.19118501287933     -0.83770619847356      1.68129869925374
  H   -2.36948275653476     -0.85976360475768      0.51648930764194
  C   1.12704058204199     -0.05752055821756      1.57921967703193
  N   1.35537896901789     -0.00935573775373      2.73087505108565
  N   1.54732387144145      0.92016257478873     -0.64018057266688
  H   2.47910539685515      0.60335904190945     -0.87003062837561
  H   1.60684144948629      1.79748697056363     -0.14068369705151
