15
Coordinates from ORCA-job run
  C   -0.72022528155129     -0.03310773229483      0.02164408990910
  C   0.71980574833314      0.26535216088160      0.46588575406887
  Cl  -1.69361161571726     -0.28827654810247      1.56876401479166
  H   0.68736517914362      1.08813661060216      1.18654083431150
  N   -1.36845255181418      1.20150385443808     -0.58973433991817
  O   -0.90423372175820      2.28866460236969     -0.26678443086048
  O   -2.32213441048960      0.99802443700463     -1.32751797601915
  N   -0.75751350047565     -1.06599365514761     -0.89379531870519
  H   -1.68860932517354     -1.31967428092887     -1.19112977856501
  H   -0.19952323617124     -1.84841475816312     -0.57603547101633
  C   1.50354113006876      0.70265220000430     -0.69367449943987
  N   2.17657315726041      1.04380580892506     -1.59269084748929
  N   1.28106191734823     -0.98153103703931      0.98503272213498
  H   0.99271417613546     -1.10339716365940      1.94852506089220
  H   2.29224233486135     -0.94874449888993      0.95597018590518
