15
Coordinates from ORCA-job run
  C   -0.71845355259247     -0.02296728822897      0.05606613743057
  C   0.74345917479597      0.27796165252416      0.41849123527011
  Cl  -1.62189095369264     -0.19058295589270      1.65684059183774
  H   0.75366040919759      1.13350133676996      1.10051709279322
  N   -1.38129807550209      1.18914641682044     -0.58425963769128
  O   -0.89199249528287      2.28456334034691     -0.33478027288243
  O   -2.36973977073499      0.96263524843425     -1.26757401298003
  N   -0.80920456620158     -1.09832969273915     -0.80527858066679
  H   -1.75587108524607     -1.35450792650710     -1.04597343585310
  H   -0.24537480291559     -1.87126978275334     -0.47458472432992
  C   1.47722697482420      0.64930492083673     -0.79512899104275
  N   2.11000591008079      0.94094314382890     -1.73957883998568
  N   1.31479285470009     -0.95050974477015      0.97158027910486
  H   1.07292748877316     -1.01872066940806      1.95294888890859
  H   2.32375248979651     -0.93216799926189      0.89271427008691
