15
Coordinates from ORCA-job run
  C   -0.64196825055588      0.18189791828208     -0.06412832629292
  C   0.80754519649119     -0.27892545618878      0.13339002425136
  Cl  -0.69783693522999      1.98099044029388      0.08898634642200
  H   0.82088924723609     -1.32939151153881     -0.16531352237845
  N   -1.09114926346527     -0.16538115554138     -1.49063581183447
  O   -2.14882893357286      0.33607381757142     -1.84651639737338
  O   -0.41927859526316     -0.97580085110829     -2.11244139373624
  N   -1.54105677429753     -0.51110034969306      0.76864346202123
  H   -1.31947408330029     -0.38630562192411      1.74927067403373
  H   -2.49413612633033     -0.21275408775145      0.59425411206181
  C   1.11733843135056     -0.21049668913556      1.57335706151067
  N   1.37690748681798     -0.12712041254864      2.71635565012926
  N   1.70880980046626      0.46006523979478     -0.72005098593029
  H   1.99566872908079      1.33040760544648     -0.29228849168324
  H   2.52757007057251     -0.09315888595859     -0.93188240120112
