15
Coordinates from ORCA-job run
  C   -0.70393706967214      0.28544935741087      0.01845009435192
  C   0.73495504597509     -0.26358132020662      0.11563408689539
  Cl  -0.71110118045290      1.99538505804080      0.42255433144061
  H   0.66262761012239     -1.31556129393860     -0.17783489587351
  N   -1.09343391989492      0.07737180825544     -1.45563828567614
  O   -1.13916544904983     -1.11096844809282     -1.76285474693313
  O   -1.32511003879391      1.03051954220984     -2.17376349992321
  N   -1.69980211629764     -0.38753968549100      0.78220927408463
  H   -1.60445357086639     -0.18817394099200      1.76917346891260
  H   -1.67045146965144     -1.38488068010133      0.60889892392148
  C   1.15637290921380     -0.21308057278053      1.52795966950928
  N   1.51781187056692     -0.15704768922071      2.64467708913729
  N   1.59607135219485      0.40449046440614     -0.83241870275237
  H   1.82557612962839      1.34003300168973     -0.52075923587740
  H   2.45403989697773     -0.11441560118924     -0.96628757121739
