15
Coordinates from ORCA-job run
  C   -0.74491218219425      0.12289651809873      0.37087959608948
  C   0.76472652583391     -0.09542265609520      0.54146874649775
  Cl  -1.35433546270991      1.25367014505011      1.58858897267452
  H   0.83832493753279     -0.62667096022418      1.49560261707951
  N   -1.01189144820771      0.82105369050225     -0.99685640128669
  O   -0.06324178278987      1.34475321440376     -1.57353899398479
  O   -2.16670677256456      0.77089299869686     -1.39749748188683
  N   -1.40759026938390     -1.11113304868279      0.45975550266547
  H   -0.95947802920219     -1.76735179817756     -0.17135610082143
  H   -2.39357368744071     -1.01406366018192      0.25216760698114
  C   1.53216791174591      1.15197727187820      0.67899451925168
  N   2.23158751507584      2.08592810349721      0.81151510986683
  N   1.22348886193532     -0.98487333850107     -0.51549769537419
  H   2.03462873895531     -1.50584567748748     -0.20856825202524
  H   1.47680514341402     -0.44581080277692     -1.33465774572726
