15
Coordinates from ORCA-job run
  C   -0.64556461300022     -0.17244133658823      0.06806393771695
  C   0.73696683370086      0.22607269303473      0.64253446999015
  Cl  -1.63428455092040     -0.90189934325957      1.34237133374372
  H   0.56322599632459      0.94282852738862      1.44751409566583
  N   -1.38615071064539      1.14753458268295     -0.31356862903654
  O   -1.93143167529160      1.17112797001265     -1.41001961953162
  O   -1.35348331354815      2.05133777388851      0.51167316981613
  N   -0.51118470604061     -1.06683973505646     -1.00783083570830
  H   -0.04077279850496     -0.62095551207208     -1.78864697266058
  H   -1.40979615673773     -1.41217780417037     -1.32029245703756
  C   1.45701105574013      0.91454533385898     -0.44018559797783
  N   1.98062129739420      1.43490465363930     -1.35354069160380
  N   1.52653165301384     -0.87507940082632      1.13645972135153
  H   1.50237541635260     -1.63801276059860      0.46938918412007
  H   1.14693627216281     -1.20294564193413      2.01507889115184
