15
Coordinates from ORCA-job run
  C   -0.71856087672848      0.05871837430610      0.04549862249258
  C   0.76686779507186      0.31057615476236      0.34577210379011
  Cl  -1.62673551400470      0.40424812931488      1.61360353947442
  H   0.85950025938197      1.31233787622716      0.77608820781213
  N   -1.26703832196422      1.11222560647288     -0.90720192832772
  O   -2.27515807647131      0.80372826635557     -1.52684636383320
  O   -0.67575004720905      2.18479612527992     -0.94736403866903
  N   -0.91231840217545     -1.19405814920553     -0.50242748115326
  H   -1.87962452736548     -1.41736498330829     -0.68728003501925
  H   -0.42281597051475     -1.89907839182485      0.03422083794903
  C   1.52754310982851      0.27810241677117     -0.90717146018503
  N   2.18531826773440      0.24848325916432     -1.87874361250653
  N   1.22350560980487     -0.77293388635032      1.21620942249517
  H   0.98698537215373     -0.55379043927648      2.17643085957423
  H   2.22828132245805     -0.87499035868888      1.15021132610630
