17

C	0.0	0.0	0.0
C	-0.514961	-0.16494	-1.442525
F	1.350863	0.0	0.0
H	-1.549903	-0.509881	-1.283442
N	-0.544688	1.052641	0.743436
H	-0.278404	1.927477	0.307388
H	-1.583292	0.867861	0.615532
N	-0.336776	-1.311068	0.768543
O	-0.624357	-2.304735	0.1085
O	-0.18541	-1.286801	1.983186
C	0.288229	-1.100943	-2.220701
N	0.94204	-1.795341	-2.907804
C	-0.582024	1.191714	-2.149041
H	-1.392673	1.761513	-1.696126
H	-0.811429	1.051776	-3.207551
H	0.361813	1.741571	-2.075051
F	-2.757595	0.0	0.0
