17

C	0.0	0.0	0.0
C	-0.512188	-0.121019	-1.451729
F	1.350602	0.0	0.0
H	-1.523822	-0.529601	-1.319278
N	-0.538451	1.029778	0.777671
H	-0.282769	1.91535	0.357296
H	-1.57686	0.844487	0.654501
N	-0.343677	-1.336034	0.719445
O	-0.473928	-2.330419	0.010588
O	-0.350975	-1.333923	1.942239
C	0.341693	-0.965287	-2.279682
N	1.029847	-1.579822	-3.007805
C	-0.67149	1.26054	-2.091282
H	-1.511701	1.748026	-1.599712
H	-0.906663	1.154271	-3.152888
H	0.236718	1.865784	-2.001918
F	-2.746482	0.0	0.0
