17

C	0.0	0.0	0.0
C	-0.334763	-0.067315	-1.506493
F	1.358289	0.0	0.0
H	0.185895	0.842347	-1.834707
N	-0.550321	1.11722	0.602382
H	-0.349552	1.084949	1.596568
H	-1.595633	0.910243	0.46013
N	-0.28268	-1.321006	0.807184
O	0.094412	-2.382332	0.309747
O	-0.761993	-1.207434	1.930073
C	-1.714789	0.108138	-1.987407
N	-2.502949	0.265617	-2.849905
C	0.293117	-1.234965	-2.28091
H	0.24628	-0.992963	-3.345333
H	1.333528	-1.378875	-1.99072
H	-0.250999	-2.16069	-2.109824
F	-2.680108	0.0	0.0
