17

C	0.0	0.0	0.0
C	-0.228936	0.150705	-1.563243
F	1.377264	0.0	0.0
H	0.591126	-0.426065	-1.998526
N	-0.603782	0.852925	0.900581
H	-0.423377	1.807453	0.608395
H	-1.648137	0.618034	0.729074
N	-0.345806	-1.452496	0.382303
O	-0.030863	-2.300857	-0.453607
O	-0.793681	-1.68773	1.493056
C	0.056781	1.559489	-1.850134
N	0.272327	2.691831	-2.07959
C	-1.527129	-0.272549	-2.2543
H	-1.447873	-0.01537	-3.316398
H	-2.380119	0.183417	-1.754499
H	-1.641956	-1.352336	-2.154399
F	-2.823327	0.0	0.0
