17

C	0.0	0.0	0.0
C	-0.543885	-0.11144	-1.424619
F	1.349872	0.0	0.0
H	-1.563151	-0.500423	-1.278981
N	-0.571253	1.04368	0.702941
H	-0.319443	0.944699	1.68037
H	-1.612121	0.830301	0.568882
N	-0.266415	-1.384836	0.724824
O	-0.471251	-2.389093	0.053124
O	-0.171017	-1.361897	1.951097
C	0.283482	-0.985223	-2.250644
N	0.909728	-1.624282	-3.011799
C	-0.660535	1.270585	-2.075748
H	-0.927301	1.159102	-3.129799
H	0.274576	1.830395	-2.002258
H	-1.452781	1.809902	-1.562828
F	-2.794864	0.0	0.0
