17

C	0.0	0.0	0.0
C	-0.255372	-0.12417	-1.535368
F	1.387401	0.0	0.0
H	0.523741	-0.826063	-1.846095
N	-0.638848	1.019607	0.636405
H	-0.455633	0.961514	1.63237
H	-1.699752	0.751139	0.436706
N	-0.254531	-1.410337	0.659206
O	-0.096806	-2.41431	-0.031654
O	-0.508889	-1.413797	1.859039
C	0.117938	1.170562	-2.117889
N	0.414596	2.167834	-2.662543
C	-1.5666	-0.614629	-2.151647
H	-1.801806	-1.601153	-1.758038
H	-2.39338	0.031217	-1.883955
H	-1.409569	-0.681395	-3.234248
F	-2.837664	0.0	0.0
