11
Coordinates from ORCA-job run
  C   -1.09110551896962      0.02167844625722     -0.59558107863020
  C   0.14795617894958     -0.46421129519533      0.13938769946834
  Br  -1.41763809452061      1.89696931751283     -0.26602366597626
  H   0.32502782277780     -1.51113856417547     -0.13146746222401
  H   -1.96166193561159     -0.53615743388617     -0.25214321249756
  H   -0.95058550573196     -0.11395372356851     -1.66606859558486
  C   0.05203883875999     -0.33973919427248      1.58776154441690
  N   -0.07532605484150     -0.29226603543346      2.75385265305681
  N   1.36783881058438      0.27560575889656     -0.38585581036498
  O   1.53462187957185      0.17867657295861     -1.59550636524283
  O   2.06883357903168      0.88253615090620      0.41064429357866
