11
Coordinates from ORCA-job run
  C   -1.01021910414770      0.26993947975302     -0.63742912281857
  C   0.11186925615039     -0.37364863851857      0.16418977612107
  Br  -2.71278092338074     -0.41275342435902     -0.02286945233071
  H   0.08609019876785     -1.46169002073193      0.04579496586563
  H   -1.00983606069078      1.35096815405065     -0.50478198892159
  H   -0.90790434724779      0.01898710248682     -1.68896331981217
  C   0.06781664590819     -0.03094509432090      1.58082652052327
  N   -0.00581135508104      0.25787074316477      2.71647496206304
  N   1.46787580888646      0.04498808424936     -0.40763948550859
  O   1.49715886563284      0.26686195255378     -1.61254599442754
  O   2.41474101520232      0.06842166167201      0.36494313924615
