11
Coordinates from ORCA-job run
  C   -1.09688972801097     -0.01398885253741     -0.58560410093432
  C   0.16337310498667     -0.45869522130935      0.13925799791696
  Br  -1.48105846229840      1.85018870710565     -0.25599792510318
  H   0.37018924712102     -1.50039520234484     -0.13069119104408
  H   -0.96022606053812     -0.14683278749218     -1.65700905043645
  H   -1.94633468176976     -0.59930404181542     -0.23515367851981
  C   0.07746896902279     -0.33375942530145      1.58811719661210
  N   -0.04002438843177     -0.28731605987252      2.75528429258039
  N   1.35455468672087      0.31755929653386     -0.39906028818889
  O   2.04279072265134      0.94890026860148      0.38956722451721
  O   1.51415659054633      0.22164331843218     -1.60971047739992
