11
Coordinates from ORCA-job run
  C   -1.09389829458119      0.04192623684524     -0.58954563517488
  C   0.13655880083564     -0.46539766333516      0.14555227192428
  Br  -1.37024638736120      1.92933146886428     -0.28509777709455
  H   0.28399269549767     -1.52066438755753     -0.11016489835534
  H   -0.96244597393126     -0.11247840336525     -1.65866525872516
  H   -1.97642742158317     -0.48892445317298     -0.23408190099681
  C   0.05313909763557     -0.31709045867049      1.59246752199227
  N   -0.06497975238898     -0.25032944586505      2.75858072977671
  N   1.37203749557777      0.23426722552358     -0.39780587205687
  O   2.09280926348731      0.83527391617249      0.38536438118053
  O   1.52946047681185      0.11408596456088     -1.60660356247018
