11
Coordinates from ORCA-job run
  C   -1.12014531012650      0.03836402178540     -0.48818629136860
  C   0.12847791797152     -0.38091305614317      0.26988539779621
  Br  -1.07197044590213     -0.64517221495235     -2.29579761052632
  H   0.28424414354383     -1.46008962948920      0.23328249425016
  H   -1.17976316060924      1.12409054471312     -0.53451763551340
  H   -2.00272421911054     -0.37098862578361      0.00174079605095
  C   0.06254194949739      0.08667696972300      1.65239661452700
  N   -0.03299883683148      0.45962710184858      2.76194391802065
  N   1.35280471009457      0.23443087272942     -0.37984262844345
  O   2.26205967983618     -0.53288223809817     -0.66846345073718
  O   1.31847357163639      1.44585625366698     -0.55344160405602
