11
Coordinates from ORCA-job run
  C   -1.08952950974047     -0.02487482743028     -0.59908398674529
  C   0.15485512108642     -0.45370563730850      0.16176255514938
  Br  -1.45008176547693      1.85772984095917     -0.35856760031943
  H   0.35073089837294     -1.50928025941473     -0.05779130867757
  H   -1.95157214980053     -0.58124217749803     -0.23236057744495
  H   -0.94280284898334     -0.20772414509591     -1.66174824521722
  C   0.05158518545674     -0.26183704966545      1.60225295324372
  N   -0.07919506226959     -0.16425992671852      2.76481989746148
  N   1.36445970120896      0.28069682218934     -0.39419963934345
  O   2.05520262364266      0.93199135668270      0.37572247404664
  O   1.53634780650315      0.13150600330020     -1.59780652215329
