15

C	-0.583233	-0.01163	-1.404094
C	0.0	0.0	0.0
Br	0.032043	-1.558682	-2.461919
H	1.101157	0.0	0.0
H	-1.665792	-0.154162	-1.338399
C	-0.30758	1.193664	-2.176176
N	-0.158178	2.177499	-2.801379
N	-0.52731	-1.192539	0.693362
H	0.03539	-1.977234	0.371521
H	-0.264498	-1.081514	1.66896
C	-0.473414	1.246914	0.728908
H	-0.026551	1.251455	1.727896
H	-1.564807	1.268846	0.830983
H	-0.131628	2.153041	0.224895
H	2.909748	0.0	0.0
