15

C	-0.58122	0.030944	-1.406021
C	0.0	0.0	0.0
Br	0.056055	-1.474418	-2.513606
H	1.101114	0.0	0.0
H	-1.66289	-0.125983	-1.346734
C	-0.314715	1.266843	-2.136074
N	-0.108198	2.264273	-2.726595
N	-0.52563	-1.214381	0.652921
H	-0.263507	-1.134844	1.634256
H	0.039138	-1.987899	0.307734
C	-0.474357	1.22186	0.7713
H	-0.151327	2.145378	0.28719
H	-1.564979	1.226607	0.892351
H	-0.008507	1.202403	1.762444
H	2.911657	0.0	0.0
