15

C	-0.474747	-0.087887	-1.4514
C	0.0	0.0	0.0
Br	-0.038907	1.498469	-2.525958
H	1.094048	0.0	0.0
H	0.062671	-0.91215	-1.922383
C	-1.91416	-0.30992	-1.544112
N	-3.078472	-0.471659	-1.576768
N	-0.375019	-1.295418	0.57806
H	-1.151782	-1.200973	1.221694
H	0.434324	-1.645169	1.081707
C	-0.538587	1.190833	0.766088
H	-0.12446	1.161981	1.777715
H	-0.231025	2.13321	0.309067
H	-1.634459	1.173127	0.833092
H	2.860698	0.0	0.0
