15

C	-0.576717	0.01679	-1.407247
C	0.0	0.0	0.0
Br	0.043675	-1.511039	-2.490338
H	1.100686	0.0	0.0
H	-1.65995	-0.123878	-1.350997
C	-0.29037	1.235505	-2.154778
N	-0.132803	2.229412	-2.761914
N	-0.528947	-1.20582	0.666658
H	-0.273005	-1.113156	1.646473
H	0.036606	-1.982995	0.333844
C	-0.474118	1.23167	0.753485
H	-0.022165	1.219534	1.750161
H	-0.138026	2.14811	0.264732
H	-1.565391	1.247879	0.861106
H	2.910522	0.0	0.0
