15

C	-0.458746	0.067462	-1.469657
C	0.0	0.0	0.0
Br	-0.152254	-1.618758	-2.44645
H	1.093173	0.0	0.0
H	-1.545135	0.203298	-1.52922
C	0.181306	1.122498	-2.241725
N	0.640401	1.989476	-2.889639
N	-0.471958	-1.167289	0.718336
H	0.164399	-1.93359	0.527581
H	-1.400577	-1.441226	0.418184
C	-0.466637	1.271556	0.697772
H	-0.083	1.239114	1.717944
H	-1.561921	1.339319	0.736898
H	-0.067745	2.16511	0.210808
H	2.899632	0.0	0.0
