15

C	-0.48521	0.081497	-1.443015
C	0.0	0.0	0.0
Br	-0.025888	-1.529121	-2.483825
H	1.100509	0.0	0.0
H	-1.577199	0.117145	-1.479578
C	0.065247	1.233246	-2.151159
N	0.455334	2.180379	-2.726949
N	-0.587838	-1.194152	0.623165
H	-0.040404	-1.988294	0.299694
H	-0.375491	-1.123742	1.614532
C	-0.474042	1.241453	0.739037
H	-1.568583	1.287989	0.787039
H	-0.085146	2.14846	0.272229
H	-0.07737	1.215366	1.758813
H	2.926331	0.0	0.0
