15

C	-0.483398	-0.059879	-1.44962
C	0.0	0.0	0.0
Br	-0.037044	1.539138	-2.502385
H	1.094997	0.0	0.0
H	0.039803	-0.883135	-1.937556
C	-1.925945	-0.264857	-1.534987
N	-3.089263	-0.433432	-1.559338
N	-0.37456	-1.305356	0.557046
H	-1.147407	-1.219036	1.206026
H	0.435556	-1.661948	1.055305
C	-0.53336	1.177626	0.790825
H	-0.23505	2.128292	0.344801
H	-0.105795	1.1347	1.796301
H	-1.628159	1.154451	0.871415
H	2.859981	0.0	0.0
