15

C	-0.386176	0.032023	-1.460296
C	0.0	0.0	0.0
Br	-2.331597	0.384238	-1.771483
H	1.098484	0.0	0.0
H	0.118379	0.859674	-1.964895
C	-0.08359	-1.212654	-2.153937
N	0.175936	-2.195995	-2.74106
N	-0.443051	-1.234137	0.630151
H	-1.195629	-1.061755	1.285313
H	0.347113	-1.622678	1.135005
C	-0.404275	1.264117	0.738905
H	-1.483602	1.308297	0.923998
H	-0.111881	2.159284	0.180884
H	0.127814	1.284126	1.69438
H	2.796295	0.0	0.0
