15

C	-0.511915	0.022155	-1.444994
C	0.0	0.0	0.0
Br	0.089319	-1.539586	-2.483853
H	1.095316	0.0	0.0
H	-1.605316	-0.063399	-1.457736
C	-0.157944	1.224145	-2.191779
N	0.051922	2.209056	-2.797593
N	-0.416678	-1.200128	0.714741
H	-1.289008	-1.572507	0.355101
H	0.304086	-1.901794	0.583604
C	-0.497474	1.245404	0.720319
H	-0.105635	1.206943	1.738002
H	-0.131762	2.160208	0.247177
H	-1.594233	1.279758	0.773758
H	2.876352	0.0	0.0
