16
Coordinates from ORCA-job run
  C   -0.49677470280733     -0.52039391347678      0.13921731325132
  C   1.01146413070620     -0.21907472026253     -0.05563243791566
  Cl  -0.82544411232973     -2.06610903596367     -0.82056978493895
  H   1.60916268016988     -0.78107804563869      0.67006000024041
  C   -1.36903172558753      0.56438191128145     -0.46438433929834
  H   -1.24391244157232      1.48990077219555      0.09768239028780
  H   -1.12747105488381      0.72110376945736     -1.51587147195899
  H   -2.41572251521016      0.26302463139001     -0.40275927427143
  N   -0.77170468528404     -0.69210237562127      1.51479153556029
  H   -1.74545925394560     -0.92991638705354      1.66287444733637
  H   -0.18976827991054     -1.40595455997596      1.93672654547641
  N   1.29876833015937      1.24776757928274      0.27909455305705
  O   1.76824574816950      1.95049917393733     -0.60859717256663
  O   1.01802365941787      1.59512670015988      1.41725640527964
  C   1.51396508254963     -0.49131840050879     -1.39565283582033
  N   1.96565914035862     -0.72485709920308     -2.45423587371896
