16
Coordinates from ORCA-job run
  C   -0.54407119374994     -0.14892267926109      0.23372524400797
  C   0.85369857978218      0.45740313486892     -0.03087205037963
  Cl  -0.29791236852792     -1.66531188396853      1.22761150393339
  H   0.71442414124434      1.29715763039815     -0.71591034569993
  C   -1.26278074658453     -0.54473545432767     -1.04258036440607
  H   -0.73231207975146     -1.32661731822784     -1.57997618984836
  H   -1.36960434119953      0.32956623710687     -1.68783375434647
  H   -2.25470275553969     -0.92031450676040     -0.78238586877628
  N   -1.28301542378875      0.85573524992240      0.91836329655701
  H   -2.25828417894361      0.59450314630957      0.99365676887980
  H   -0.92043168119183      1.03012202189904      1.84911065973263
  N   1.76957138202343     -0.50485281198187     -0.74675301569008
  O   1.57285546173478     -0.60313573779644     -1.95493049367699
  O   2.60979372972916     -1.10391619040760     -0.08856980153049
  C   1.47986416455916      0.91717580173639      1.20166854055738
  N   1.92390731020421      1.33614336049010      2.20467587068611
