16
Coordinates from ORCA-job run
  C   -0.44126584091702     -0.50399293040399      0.15100862540959
  C   0.89382315437308     -0.01266856397536     -0.45807084449875
  Cl  -0.36215529920715     -2.29682203178290      0.25244142395309
  H   1.12150763725503     -0.60322874062740     -1.34715378772318
  C   -1.58680351120732     -0.15760645986012     -0.79529451086651
  H   -2.50757669039110     -0.60086141842590     -0.41142980880460
  H   -1.41485951258136     -0.54737862791718     -1.80143681525164
  H   -1.71482745733785      0.92615786054495     -0.84622100374906
  N   -0.55425313571726     -0.00158252046105      1.49213916947877
  H   -1.43707309839558     -0.28511303337002      1.89962969230365
  H   -0.48506378305319      1.01040604124823      1.51136765941030
  N   2.04223552277947     -0.23458016602814      0.50102212337917
  O   2.26806806723614      0.65516998230066      1.31155283624862
  O   2.63523769436844     -1.29982885627208      0.38501464546048
  C   0.82481487609393      1.40791260192840     -0.78260970654669
  N   0.72119137670175      2.54401686310189     -1.06295969820323
