16
Coordinates from ORCA-job run
  C   -0.53072795932121     -0.45016828086489      0.16498819744338
  C   0.85461919689396     -0.01923113928334     -0.41595687827444
  Cl  -0.38041241041921     -2.21969573910076      0.45207000293573
  H   1.04647184237486     -0.53822556893102     -1.35645438872867
  C   -1.59026326547118     -0.21686424695910     -0.89837615433370
  H   -2.54354272659603     -0.58190922353308     -0.51613106391432
  H   -1.34913623274793     -0.74876417431307     -1.81930473842324
  H   -1.68251739838879      0.85106988437953     -1.11608086949262
  N   -0.92420506670142      0.17658838795729      1.38347375560682
  H   -0.18894723913304      0.15719995205136      2.07860181280188
  H   -1.21490707312711      1.13301483068540      1.22113461689816
  N   1.98746196537208     -0.41808984989028      0.49480895773293
  O   1.99781407074710      0.08450100927260      1.61493807623585
  O   2.79111385372121     -1.22597318214772      0.04704988449734
  C   0.88258187284518      1.42617511594961     -0.59406959715287
  N   0.84359656995152      2.59137222472747     -0.73869161383223
