15

C	-0.33379	-0.103483	-1.47157
C	0.0	0.0	0.0
Br	-2.287656	0.020248	-1.817899
H	1.106783	0.0	0.0
H	-0.100058	-1.135414	-1.741713
C	0.427004	0.83549	-2.385029
H	1.47546	0.80452	-2.067939
H	0.062823	1.855058	-2.303253
H	0.338068	0.494035	-3.418778
C	-0.470106	-1.141375	0.754168
N	-0.785635	-2.134805	1.29921
N	-0.368624	1.241857	0.662519
O	-0.291398	2.283562	-0.000524
O	-0.59935	1.204194	1.877476
H	2.432611	0.0	0.0
