15

C	-0.339912	-0.056118	-1.472437
C	0.0	0.0	0.0
Br	-2.296511	0.083222	-1.802734
H	1.10779	0.0	0.0
H	-0.111151	-1.080346	-1.77671
C	0.420024	0.909614	-2.359503
H	1.470409	0.864852	-2.050333
H	0.324528	0.603408	-3.403778
H	0.059895	1.92779	-2.241978
C	-0.466753	-1.163978	0.7199
N	-0.781822	-2.171791	1.238344
N	-0.363883	1.219662	0.704659
O	-0.315254	2.280554	0.070059
O	-0.560703	1.145553	1.923781
H	2.430544	0.0	0.0
