15

C	-0.369728	-0.102703	-1.470782
C	0.0	0.0	0.0
Br	0.234943	-1.847726	-2.14126
H	1.100245	0.0	0.0
H	0.246101	0.623029	-2.001772
C	-1.845619	0.062093	-1.770893
H	-2.430188	-0.700897	-1.252917
H	-2.034351	-0.024666	-2.843793
H	-2.163645	1.052579	-1.436709
C	-0.535121	-1.045384	0.836252
N	-0.931057	-1.940103	1.490899
N	-0.30763	1.303161	0.532674
O	-0.428539	1.427112	1.763702
O	-0.236845	2.262547	-0.262776
H	2.345888	0.0	0.0
