15

C	-0.4777	-0.030878	-1.436957
C	0.0	0.0	0.0
Br	0.579094	1.211019	-2.565816
H	1.10598	0.0	0.0
H	-1.490018	0.367279	-1.518834
C	-0.339929	-1.41849	-2.041008
H	-0.599409	-1.397885	-3.100652
H	0.691478	-1.762359	-1.935989
H	-0.998186	-2.122799	-1.526601
C	-0.378712	-1.176947	0.746325
N	-0.63997	-2.182205	1.301768
N	-0.41297	1.180478	0.734783
O	-0.179106	1.181092	1.953557
O	-0.851394	2.156118	0.10336
H	2.356371	0.0	0.0
