15

C	-0.484604	0.150963	-1.427025
C	0.0	0.0	0.0
Br	0.617729	1.464162	-2.428144
H	1.106023	0.0	0.0
H	-1.476274	0.604042	-1.44973
C	-0.422865	-1.16239	-2.188398
H	-1.106641	-1.890597	-1.745067
H	0.591568	-1.565373	-2.146508
H	-0.696486	-1.007224	-3.233317
C	-0.388744	-1.253328	0.602253
N	-0.66737	-2.312175	1.036299
N	-0.392316	1.089668	0.87077
O	-0.193119	0.92852	2.085643
O	-0.764359	2.157979	0.356531
H	2.345516	0.0	0.0
