16

C	0.010695	-0.054239	0.021673
C	-0.487301	-0.217934	-1.389796
F	1.400752	0.132889	0.025895
H	0.10949	-1.000404	-1.859891
H	-1.527523	-0.549046	-1.337402
N	-0.616055	0.944028	0.731278
H	-1.607569	1.038863	0.472544
H	-0.500584	0.832336	1.728839
N	-0.041216	-1.442592	0.763834
O	-0.150731	-1.407833	1.987483
O	0.097144	-2.466395	0.100505
C	-0.40585	1.094959	-2.162268
H	0.593551	1.529798	-2.088851
H	-0.631961	0.91827	-3.217238
H	-1.136482	1.803724	-1.774924
Cl	-3.69113	0.979951	-0.185908
