16

C	0.027645	-0.050784	0.016331
C	-0.457454	-0.130613	-1.406836
F	1.416432	0.143481	0.043573
H	0.150026	-0.877494	-1.919387
H	-1.494796	-0.473777	-1.385052
N	-0.611778	0.89829	0.779984
H	-0.506948	0.724465	1.769811
H	-1.60089	1.004067	0.5159
N	-0.021639	-1.482262	0.671561
O	0.125954	-2.463024	-0.052028
O	-0.139355	-1.522783	1.894323
C	-0.380378	1.227983	-2.096343
H	-1.119624	1.906058	-1.672082
H	-0.597241	1.114897	-3.161939
H	0.614964	1.664784	-1.988267
Cl	-3.680173	0.974364	-0.15078
