16

C	-0.0183	-0.027909	0.00285
C	-0.535312	-0.139424	-1.410473
F	1.35158	0.229299	0.0069
H	-0.656741	0.893465	-1.746222
H	-1.540528	-0.560774	-1.363619
N	-0.686154	0.926878	0.750751
H	-1.693324	0.953777	0.532451
H	-0.520635	0.810909	1.741464
N	-0.036691	-1.418571	0.721056
O	0.38918	-1.418949	1.875007
O	-0.480256	-2.402776	0.135322
C	0.37473	-0.900573	-2.366687
H	1.36678	-0.447608	-2.408119
H	-0.051165	-0.876111	-3.372922
H	0.47891	-1.944219	-2.07139
Cl	-3.789239	0.743501	-0.011735
