12
Coordinates from ORCA-job run
  C   -0.60195504795210     -0.64580428638727      0.30090047729040
  C   0.83870920760615     -0.39925922311466     -0.08410145438951
  Cl  -0.74147569645005     -1.69946850019701      1.71432164692721
  H   1.38626661235670     -0.04307003641367      0.79359060811133
  H   -1.17859486490084     -1.07132362264283     -0.51666824902986
  H   1.25920391898357     -1.36422051729181     -0.37663811032869
  N   -1.28099734991658      0.66122002346045      0.62603436408641
  O   -0.59095159284602      1.54051530930458      1.13510897441463
  O   -2.47723975732486      0.73332275242773      0.37152141075290
  N   0.84206807270881      0.51283877594268     -1.21922273642076
  H   1.60755223036757      0.30919635103380     -1.84541541509231
  H   0.93741426736768      1.46705297387800     -0.89943151632175
