12
Coordinates from ORCA-job run
  C   -0.42333793226921     -0.28105966920125      0.58686825752908
  C   0.45970866116934      0.17381145827702     -0.55948735525513
  Cl  0.16643276045526      0.32328873533820      2.13765379692432
  H   -0.02967967374919     -0.14748798171354     -1.48452617488731
  H   -0.48929015584104     -1.36437091122609      0.63822372782560
  H   0.49415255649065      1.26983594918439     -0.55321318913434
  N   -1.81995612791743      0.22167844618737      0.35006411071456
  O   -2.67697387833220     -0.63586368990944      0.14921010103505
  O   -1.98137515146600      1.43616668223422      0.31524463690645
  N   1.74590119243645     -0.49737544765745     -0.45380003119385
  H   2.33302288865083     -0.02221654008076      0.21945954065489
  H   2.22139486037253     -0.47740703143267     -1.34569742111932
