12
Coordinates from ORCA-job run
  C   -0.53605447658816     -0.63215119795274      0.36432909596060
  C   0.91837695096792     -0.42070120277579     -0.04316709898536
  Cl  -0.66908142144990     -1.58891400235930      1.84012900080778
  H   1.34745517343253     -1.40399694220816     -0.25253200619050
  H   -1.13491623368347     -1.10515455705422     -0.41191268599277
  H   1.44980283163892     -0.00280769588249      0.81343136283496
  N   -1.16612400462528      0.71809080174180      0.57867176152667
  O   -0.65123756224612      1.44627645683660      1.41905493445643
  O   -2.10856400488750      1.00402094589835     -0.15605947379068
  N   1.10656673116135      0.44661788957807     -1.18459826322339
  H   0.58500658088501      0.13777933151270     -1.99374091106250
  H   0.85876943539470      1.40394017266519     -0.97560571634124
