19

C	-0.033897	0.036987	-0.007014
C	-0.340521	-0.018224	-1.522887
Cl	1.831113	-0.265414	0.145989
H	0.432937	0.590664	-2.008882
C	-0.21484	1.438597	0.56354
H	-1.285478	1.654147	0.592036
H	0.170305	1.47448	1.585836
H	0.307671	2.195784	-0.029664
N	-0.718593	-0.979245	0.696958
H	-0.691924	-0.783131	1.693619
H	-1.740925	-0.980297	0.419687
N	-1.64238	0.537063	-1.878457
H	-1.671572	1.520312	-1.632623
H	-2.374457	0.069913	-1.318632
C	-0.266791	-1.442031	-2.058752
H	-0.361017	-1.410062	-3.147226
H	-1.09421	-2.026374	-1.654456
H	0.670573	-1.927176	-1.782375
H	-3.315445	-0.780927	0.041697
