11

C	-0.586521	-0.064036	-1.388482
C	0.0	0.0	0.0
Cl	-0.110032	1.298701	-2.39909
H	1.090593	0.0	0.0
H	-1.675734	-0.09728	-1.375569
H	-0.34894	0.915543	0.481048
H	-0.365122	-0.856918	0.568655
N	-0.209564	-1.382841	-2.048061
O	-0.759975	-2.353262	-1.528332
O	0.564366	-1.412525	-2.990307
Cl	3.526227	0.0	0.0
