12

C	-0.477635	-0.048322	-1.4587
C	0.0	0.0	0.0
Br	-0.077632	1.601378	-2.406764
H	1.095109	0.0	0.0
H	-1.558796	-0.18368	-1.521895
H	0.03297	-0.84826	-1.99415
C	-0.466389	-1.256393	0.607989
N	-0.886515	-2.268186	1.031976
N	-0.456574	1.122437	0.80148
H	0.13913	1.916287	0.600019
H	-1.412789	1.36664	0.567945
Br	3.509091	0.0	0.0
