12

C	-0.520589	0.097257	-1.428222
C	0.0	0.0	0.0
Br	-0.252706	-1.528576	-2.459138
H	1.093702	0.0	0.0
H	0.025207	0.89312	-1.928587
H	-1.589812	0.30791	-1.437233
C	-0.508632	-1.184932	0.700746
N	-0.972317	-2.067189	1.323228
N	-0.390879	1.246006	0.674507
H	-1.223946	1.111742	1.234357
H	0.368839	1.521727	1.286153
Br	3.472197	0.0	0.0
