12

C	-0.464646	0.064685	-1.454046
C	0.0	0.0	0.0
Br	-0.103032	-1.553623	-2.469421
H	1.094713	0.0	0.0
H	0.073043	0.87315	-1.948896
H	-1.542754	0.230892	-1.514654
C	-0.549794	-1.172288	0.68789
N	-1.040441	-2.090029	1.231847
N	-0.382725	1.214056	0.723463
H	0.354235	1.898122	0.606163
H	-1.25789	1.593704	0.381574
Br	3.467931	0.0	0.0
