12

C	-0.34986	0.031329	-1.47402
C	0.0	0.0	0.0
Br	-2.266573	0.048891	-1.844254
H	1.104442	0.0	0.0
H	0.065741	-0.840846	-1.975512
H	0.06647	0.932677	-1.923989
C	-0.491586	-1.219795	0.63943
N	-0.872135	-2.20166	1.158816
N	-0.531313	1.175925	0.707262
H	-0.246965	1.092875	1.67889
H	-0.013912	1.97525	0.348463
Br	3.478614	0.0	0.0
