12

C	-0.376932	0.048781	-1.464552
C	0.0	0.0	0.0
Br	-2.31647	0.101465	-1.743664
H	1.097039	0.0	0.0
H	-0.006696	-0.82306	-2.001736
H	0.022613	0.966582	-1.89067
C	-0.465898	-1.244741	0.634984
N	-0.836937	-2.217189	1.180765
N	-0.430611	1.205705	0.695591
H	-1.38672	1.113639	1.016167
H	0.172058	1.345261	1.497315
Br	3.459239	0.0	0.0
