12

C	-0.309816	-0.039843	-1.491273
C	0.0	0.0	0.0
Br	-2.225346	0.111669	-1.887788
H	1.098185	0.0	0.0
H	0.174331	0.803979	-1.98217
H	0.027162	-0.973454	-1.94074
C	-0.51097	-1.202525	0.666558
N	-0.921548	-2.176854	1.177516
N	-0.425482	1.194384	0.711908
H	-1.312779	1.52946	0.355385
H	0.282977	1.906115	0.587487
Br	3.444269	0.0	0.0
