12
Coordinates from ORCA-job run
  C   -0.66419427262133      0.28206380548201      0.11778518445039
  C   0.63199869909756     -0.38869061477614     -0.29286102263556
  Br  -0.59791462291300      2.16660008573853     -0.37181655107023
  H   0.84363400618338     -0.22880638594557     -1.34695537622409
  H   -0.75433167444086      0.28371439257698      1.20715748404125
  H   0.57915516934994     -1.45734507476038     -0.06532159619125
  N   -1.74489510454026     -0.35019108500299     -0.60865795866887
  H   -1.89325237859492     -1.28290304487251     -0.23593468584780
  H   -2.60222938598363      0.17419732225373     -0.48546432193542
  N   1.78152716873861      0.14052910369764      0.49318898782347
  O   2.75686070246628      0.54991845493557     -0.12875234235775
  O   1.66464169325822      0.11191304067315      1.71663219861586
