12
Coordinates from ORCA-job run
  C   -0.74418468098362      0.21503039733017      0.41525168407892
  C   0.73678670029945      0.50125800511146      0.28474412169846
  Br  -1.54813730786614      1.83778075828974      1.14400113638246
  H   1.19237526381571      0.77107204884657      1.23853328878170
  H   -0.92229702002444     -0.55136058901646      1.17498570765473
  H   0.91183973031354      1.28854088339118     -0.44726831420523
  N   -1.32155092343909     -0.04832502389590     -0.88274781046969
  H   -1.03831859940070     -0.98023094240731     -1.16692264191391
  H   -2.33222199718435     -0.03363693783311     -0.82426741187135
  N   1.49307800132828     -0.70121931124856     -0.20072822411953
  O   2.65158290908012     -0.50730673956780     -0.54620386165353
  O   0.92104792406124     -1.79160254899998     -0.18837767436305
