12
Coordinates from ORCA-job run
  C   -0.65883434800566      0.37461947025059      0.36862563132140
  C   0.74461950128536      0.53985566228185     -0.17690215911937
  Br  -1.54184700620577      2.17461004050680      0.10210532311198
  H   0.74774667268838      0.70762596567733     -1.25286341125758
  H   -0.63931927986453      0.25969433532701      1.45002242439799
  H   1.27695307857828      1.33573362858399      0.34151775867012
  N   -1.31243932422473     -0.71354933512580     -0.23006979560897
  H   -2.20644754320760     -0.92088531286781      0.19184962780472
  H   -1.41447492017664     -0.61539576120257     -1.23172079975679
  N   1.48879958180174     -0.73121011140089      0.07723985949223
  O   1.64429366887125     -1.03827629026103      1.25602408916961
  O   1.87194991845991     -1.37282229176945     -0.89582854822534
