12

C	0.0	0.0	0.0
C	-0.559571	-0.304858	-1.39566
F	1.374069	0.0	0.0
H	-1.436257	-0.948321	-1.255069
H	-0.340199	-0.755699	0.709051
H	-0.359456	0.979302	0.313367
C	0.424799	-1.039677	-2.198395
N	1.170236	-1.656411	-2.862712
N	-0.923258	0.94993	-2.072197
H	-1.190922	0.725344	-3.025826
H	-1.79143	1.223146	-1.607053
Br	-3.595639	0.0	0.0
