12

C	0.0	0.0	0.0
C	-0.416321	-0.31692	-1.445598
F	1.387277	0.0	0.0
H	0.164241	-1.206396	-1.719399
H	-0.361856	0.974573	0.331831
H	-0.358527	-0.783011	0.671285
C	0.062433	0.772265	-2.318001
N	0.419451	1.669477	-2.985369
N	-1.806561	-0.587622	-1.728035
H	-2.436644	0.131727	-1.377511
H	-2.106666	-1.4249	-1.243192
Br	-4.577147	0.0	0.0
