12

C	0.0	0.0	0.0
C	-0.192145	-0.031558	-1.544769
F	1.387338	0.0	0.0
H	0.489289	0.762389	-1.877613
H	-0.375378	0.902972	0.475023
H	-0.380429	-0.891104	0.492614
C	-1.436539	0.281283	-2.264372
N	-2.128066	0.582136	-3.167164
N	0.335054	-1.280207	-2.119341
H	-0.301134	-2.036102	-1.883943
H	1.220972	-1.467569	-1.665175
Br	-3.335491	0.0	0.0
