12

C	0.0	0.0	0.0
C	-0.499888	-0.260926	-1.402653
F	1.386793	0.0	0.0
H	-1.596454	-0.233508	-1.323891
H	-0.354286	0.98172	0.311949
H	-0.355181	-0.765085	0.690554
C	-0.082466	-1.602473	-1.860769
N	0.266755	-2.640243	-2.287445
N	-0.039436	0.800594	-2.2948
H	-0.508224	0.718424	-3.18804
H	0.956447	0.699776	-2.450282
Br	-3.673371	0.0	0.0
