16

C	-0.533368	-0.033094	-1.419452
C	0.0	0.0	0.0
Br	0.038079	1.758473	-2.298484
H	1.096595	0.0	0.0
H	-0.332013	-0.946445	0.445624
C	0.142113	-1.099514	-2.252328
H	-0.194034	-1.060172	-3.291572
H	-0.125789	-2.07475	-1.831951
H	1.225807	-0.974246	-2.211392
N	-1.941959	-0.139181	-1.402411
H	-2.301565	0.533623	-0.732517
H	-2.34471	0.021209	-2.316172
N	-0.619968	1.094116	0.759883
H	-0.454792	0.918389	1.744405
H	-0.107772	1.940446	0.533889
Br	3.727485	0.0	0.0
