16

C	-0.373629	0.011794	-1.455242
C	0.0	0.0	0.0
Br	-2.702889	0.517638	-1.288895
H	1.095668	0.0	0.0
H	-0.350349	0.923322	0.468413
C	0.094606	1.19109	-2.250271
H	-0.218738	2.119282	-1.776757
H	-0.294475	1.168863	-3.269874
H	1.190243	1.141007	-2.261707
N	-0.265111	-1.193515	-2.025424
H	-0.516159	-1.299118	-2.993893
H	-0.45363	-1.958784	-1.388601
N	-0.472849	-1.225419	0.633537
H	-1.405288	-1.079421	1.000834
H	0.155103	-1.470219	1.387674
Br	3.59049	0.0	0.0
