16

C	-0.310849	-0.025088	-1.48558
C	0.0	0.0	0.0
Br	-2.308894	-0.217907	-1.721545
H	1.098178	0.0	0.0
H	-0.335953	-0.95057	0.433186
C	0.083575	1.270868	-2.168562
H	-0.437069	2.119	-1.727317
H	1.160833	1.395349	-2.013437
H	-0.126746	1.219908	-3.240273
N	0.30092	-1.208883	-2.030384
H	1.262428	-1.236617	-1.689379
H	0.326611	-1.149838	-3.042157
N	-0.495983	1.191135	0.670977
H	0.133257	1.417012	1.432119
H	-1.415993	1.014265	1.056692
Br	3.606122	0.0	0.0
