16

C	-0.490186	-0.034092	-1.448821
C	0.0	0.0	0.0
Br	0.148145	1.697308	-2.300647
H	1.091761	0.0	0.0
H	-0.35422	0.923819	0.471629
C	0.138427	-1.157589	-2.247301
H	1.224879	-1.104002	-2.163876
H	-0.14888	-1.100084	-3.300848
H	-0.211031	-2.110664	-1.841634
N	-1.918567	-0.103698	-1.493609
H	-2.244944	-0.110668	-2.453075
H	-2.315083	0.708659	-1.033395
N	-0.45591	-1.155752	0.76955
H	0.195602	-1.920065	0.638427
H	-1.371351	-1.445566	0.442962
Br	3.722036	0.0	0.0
