20

C	-0.007684	-0.026827	-1.533895
C	0.0	0.0	0.0
Cl	-1.682073	-0.372679	-2.226476
H	1.101042	0.0	0.0
C	0.477074	1.296658	-2.098628
H	-0.201289	2.120226	-1.876701
H	0.593645	1.197802	-3.178671
H	1.453743	1.46571	-1.632516
N	0.906565	-1.041525	-2.04725
H	1.772615	-0.851664	-1.507936
H	0.576483	-1.951525	-1.742329
C	-0.537856	-1.264534	0.647779
H	-0.099882	-2.166126	0.213962
H	-1.62869	-1.336475	0.559225
H	-0.27827	-1.267072	1.711262
C	-0.60781	1.236932	0.635634
H	-0.552224	1.1563	1.727128
H	-1.665335	1.356436	0.36251
H	-0.070143	2.145109	0.355676
F	2.750427	0.0	0.0
