20

C	-0.158453	0.060702	-1.543706
C	0.0	0.0	0.0
Cl	-0.185102	-1.674132	-2.198568
H	1.098273	0.0	0.0
C	-1.437233	0.686898	-2.0751
H	-2.320416	0.176232	-1.68304
H	-1.48934	1.739314	-1.780734
H	-1.444978	0.624573	-3.164595
N	1.000691	0.690036	-2.133062
H	0.852676	1.6943	-2.127527
H	1.814793	0.47889	-1.516696
C	-0.641591	-1.160991	0.732755
H	-1.71657	-1.247857	0.520686
H	-0.165696	-2.104871	0.472319
H	-0.526129	-1.016771	1.812717
C	-0.420356	1.332879	0.615312
H	-0.048639	1.377214	1.643122
H	0.031355	2.174315	0.082836
H	-1.50934	1.475512	0.640183
F	2.756713	0.0	0.0
