20

C	-0.210701	0.066448	-1.501035
C	0.0	0.0	0.0
Cl	-2.001753	0.820935	-1.891175
H	1.09832	0.0	0.0
C	0.787862	1.006483	-2.145327
H	0.581349	2.04211	-1.876456
H	1.760677	0.710842	-1.720659
H	0.762997	0.922297	-3.236433
N	-0.152279	-1.200643	-2.111345
H	-0.856143	-1.826938	-1.745439
H	-0.255699	-1.125275	-3.114478
C	-0.556919	-1.251635	0.653685
H	-0.379654	-1.206031	1.732138
H	-1.640561	-1.357023	0.5
H	-0.046923	-2.144001	0.283597
C	-0.438154	1.252865	0.744509
H	0.02541	1.245019	1.735912
H	-1.525786	1.311647	0.859588
H	-0.101302	2.160422	0.240197
F	2.728333	0.0	0.0
