19

C	-0.468967	0.018774	-1.45337
C	0.0	0.0	0.0
F	-1.858907	0.32576	-1.477629
H	1.090676	0.0	0.0
C	0.252637	1.139473	-2.170438
H	1.331713	0.970327	-2.099757
H	0.023407	2.096776	-1.698943
H	-0.067218	1.179447	-3.215671
C	-0.296235	-1.30546	-2.162689
H	0.741865	-1.632708	-2.078614
H	-0.94044	-2.066034	-1.719654
H	-0.567895	-1.191048	-3.2157
N	-0.501699	-1.267663	0.637935
O	0.204288	-2.271931	0.535598
O	-1.608731	-1.247645	1.179101
N	-0.432737	1.112896	0.784567
H	-1.274846	1.53745	0.425472
H	0.325596	1.777799	0.85603
H	2.820711	0.0	0.0
