19

C	-0.465277	-0.025101	-1.449023
C	0.0	0.0	0.0
F	-1.884736	0.080912	-1.463712
H	1.091505	0.0	0.0
C	0.102022	1.204359	-2.128403
H	-0.268928	2.100247	-1.634027
H	1.192317	1.180107	-2.034754
H	-0.184859	1.211786	-3.183926
C	-0.100573	-1.281776	-2.20954
H	0.969427	-1.47213	-2.100614
H	-0.348485	-1.139447	-3.265392
H	-0.647645	-2.144231	-1.832823
N	-0.42234	-1.251975	0.727759
O	-1.22832	-1.15303	1.662621
O	0.099501	-2.314099	0.386441
N	-0.44711	1.177033	0.676082
H	0.173694	1.339969	1.459841
H	-1.385757	1.04117	1.026836
H	2.73669	0.0	0.0
