19

C	-0.487914	0.00906	-1.447889
C	0.0	0.0	0.0
F	-1.885035	0.279852	-1.451163
H	1.090593	0.0	0.0
C	0.189048	1.149227	-2.176933
H	-0.040577	2.097403	-1.687482
H	-0.171195	1.193317	-3.208923
H	1.272309	0.998788	-2.149486
C	-0.290946	-1.310822	-2.159187
H	-0.911617	-2.086162	-1.7081
H	0.755691	-1.612783	-2.086338
H	-0.577807	-1.204714	-3.209033
N	-0.476948	-1.282885	0.633526
O	-1.593808	-1.291599	1.155122
O	0.257118	-2.267679	0.545086
N	-0.455915	1.095016	0.794929
H	0.272833	1.792814	0.850826
H	-1.326148	1.480233	0.458815
H	2.83454	0.0	0.0
