19

C	-0.505329	0.010869	-1.449192
C	0.0	0.0	0.0
F	-0.157367	-1.214514	-2.040378
H	1.091036	0.0	0.0
C	-2.014246	0.114856	-1.573876
H	-2.371877	1.061068	-1.165546
H	-2.501311	-0.708202	-1.046874
H	-2.286207	0.060531	-2.631696
C	0.236721	1.09781	-2.197923
H	-0.02251	2.076334	-1.792529
H	1.310629	0.938047	-2.067236
H	-0.028383	1.05531	-3.25911
N	-0.46353	-1.298826	0.625695
O	-1.532613	-1.283039	1.258962
O	0.21959	-2.30264	0.45686
N	-0.482639	1.139743	0.719604
H	0.181039	1.336395	1.459375
H	-1.383745	0.927924	1.13258
H	2.83325	0.0	0.0
