19

C	-0.52138	0.01349	-1.442811
C	0.0	0.0	0.0
F	-0.202166	-1.210156	-2.049947
H	1.09106	0.0	0.0
C	-2.029846	0.147758	-1.531765
H	-2.356158	1.086898	-1.082779
H	-2.518869	-0.682964	-1.017384
H	-2.332301	0.131089	-2.582592
C	0.228487	1.096351	-2.191761
H	-0.033952	2.077668	-1.796575
H	1.301353	0.938199	-2.052522
H	-0.023749	1.045192	-3.255146
N	-0.477524	-1.25726	0.680959
O	0.120246	-2.301	0.442566
O	-1.463379	-1.17652	1.434077
N	-0.432599	1.179537	0.697125
H	-1.291566	0.984156	1.195213
H	0.289593	1.412724	1.369237
H	2.808741	0.0	0.0
