19

C	-0.479177	0.027334	-1.457125
C	0.0	0.0	0.0
F	-0.025124	-1.139639	-2.090261
H	1.091148	0.0	0.0
C	-1.989174	0.015584	-1.62593
H	-2.403891	-0.912438	-1.230195
H	-2.467273	0.851531	-1.109937
H	-2.231034	0.084017	-2.690251
C	0.195658	1.193651	-2.155003
H	1.266277	1.161778	-1.932858
H	0.03713	1.102117	-3.233294
H	-0.214657	2.148418	-1.819657
N	-0.543453	-1.240739	0.643605
O	0.076374	-2.288576	0.48308
O	-1.613602	-1.149449	1.256116
N	-0.359227	1.141457	0.784054
H	0.433553	1.76933	0.80803
H	-1.20083	1.616265	0.496391
H	2.81504	0.0	0.0
