19

C	-0.458641	-0.020353	-1.451131
C	0.0	0.0	0.0
F	-1.879723	0.090174	-1.471499
H	1.091488	0.0	0.0
C	0.116391	1.206561	-2.128897
H	-0.163446	1.211914	-3.187121
H	-0.255509	2.105676	-1.637575
H	1.207638	1.179262	-2.02769
C	-0.095724	-1.279073	-2.211697
H	-0.342028	-1.13681	-3.2684
H	0.97505	-1.471895	-2.102498
H	-0.645999	-2.141173	-1.83573
N	-0.428271	-1.25575	0.718957
O	-1.252503	-1.159457	1.641184
O	0.103341	-2.315143	0.384084
N	-0.449875	1.172561	0.679722
H	-1.390225	1.035739	1.02867
H	0.171128	1.334419	1.463468
H	2.739599	0.0	0.0
