14
Coordinates from ORCA-job run
  C   0.79399057639856      0.60552209331015     -0.07072980920967
  C   -0.45914039501091      0.22597313535369      0.21346320542883
  H   1.04572957088198      1.64129149217737      0.13954582330291
  C   1.87809406930709     -0.25273181203485     -0.63695724418355
  H   2.72720108658643     -0.28605360325586      0.05211160044127
  H   2.24873222313103      0.18045950311058     -1.57045984263247
  H   1.56166158184094     -1.27501310325245     -0.83855036875572
  C   -1.11276374794575     -1.10444520874012      0.03938683800958
  H   -0.39075738534126     -1.84343275169548     -0.30395744659537
  H   -1.54392281639004     -1.44573641722712      0.98213054422412
  H   -1.92894230197760     -1.04334678828970     -0.68209804800600
  N   -1.36525414277715      1.27192941677425      0.75503217619749
  O   -2.55642976615100      0.96730298117146      0.83550812617625
  O   -0.89919855255231      2.35828106259807      1.08457444560234
