14
Coordinates from ORCA-job run
  C   0.83118075558914     -0.45772823071648     -0.06818075526485
  C   -0.47431307888767     -0.16214869954915      0.02157782904922
  H   1.05080386404396     -1.51623590537360     -0.19410581204407
  C   2.00668068434261      0.47021590745382     -0.02317411563927
  H   1.78794342513991      1.44240478909290     -0.46355509515893
  H   2.30852636912891      0.65405028605846      1.01145603152740
  H   2.85222899444981      0.02348208106544     -0.54847492045450
  C   -1.61080033992080     -1.12762596951686     -0.07593277102608
  H   -2.28159286925953     -1.02240465354684      0.78032781994939
  H   -1.22814784293030     -2.14847215934252     -0.09941853890222
  H   -2.19969428328752     -0.94368495462057     -0.97537976459129
  N   -0.89803577169521      1.23755530607713      0.17410571238561
  O   -1.94706324788419      1.55790125328171     -0.38665510290629
  O   -0.19671665882911      1.99369094963656      0.84640948307589
