14
Coordinates from ORCA-job run
  C   0.89938781880513      0.27361118535432      0.34403810973874
  C   -0.43651273964045      0.19236227140045      0.28186009965929
  H   1.31003273133272      0.86635215535602      1.15668183177596
  C   1.87613976795369     -0.36338222297451     -0.58989859321719
  H   2.55335049171358     -1.01755476535819     -0.03311179597731
  H   1.40540304966684     -0.95059682587520     -1.37689597454370
  H   2.49786092449520      0.40400592596872     -1.06045408468544
  C   -1.30039147699524     -0.53344253661994     -0.69501211423280
  H   -1.98508536611906      0.15704197187898     -1.19028897906094
  H   -0.69166526718605     -1.02793598527960     -1.45010775789718
  H   -1.91180967554097     -1.28130706465390     -0.18766237350157
  N   -1.19934727540658      0.91378788418095      1.33502865874834
  O   -0.59262849520641      1.58867182054982      2.16090301755173
  O   -2.42373448787240      0.77938618607208      1.30491995564207
