14
Coordinates from ORCA-job run
  C   0.87647163473271      0.43682843783944      0.20921898385090
  C   -0.43478782407039      0.17557267824588      0.29520347429400
  H   1.26163699618664      1.20435061034292      0.87469820411292
  C   1.85888358075692     -0.22445386894453     -0.70175802269872
  H   2.65170446022467     -0.69824212511049     -0.11544709963941
  H   1.41282749286138     -0.98031682608471     -1.34633059547706
  H   2.34285653342001      0.52353579097443     -1.33650247254372
  C   -1.26136312866768     -0.80370973706337     -0.46962844104744
  H   -0.63828064586406     -1.37926991362028     -1.15206949024435
  H   -1.76911847413274     -1.49097056877457      0.20921294744764
  H   -2.03543009722556     -0.29142747837997     -1.04313585538194
  N   -1.21169627782938      0.97602976755441      1.27831746140919
  O   -0.62058019881978      1.75278730459996      2.02195259738799
  O   -2.43112405157273      0.79928592842087      1.27726830853000
