14
Coordinates from ORCA-job run
  C   0.79106826775911     -0.40960567407653     -0.33234038209647
  C   -0.47959519832113     -0.14756754511539      0.00773152620437
  H   0.93339978243554     -1.33565336574100     -0.88634144692198
  C   2.02139325961876      0.39812504971509     -0.05384718170846
  H   1.81812753943279      1.46673843102714     -0.00042662253637
  H   2.76738259609666      0.21534875357766     -0.82910406366364
  H   2.45607647291240      0.10978708436530      0.90737111575903
  C   -1.67933976844629     -0.96809711887172     -0.33914977110211
  H   -2.33442931533879     -0.42632236586307     -1.02248431024180
  H   -1.36651434752901     -1.90251796255711     -0.80616483460945
  H   -2.26103568182419     -1.19963080401588      0.55659981885555
  N   -0.79906380342179      1.08443099464853      0.74443685356386
  O   -0.00516219975003      1.48093079037247      1.59762897371053
  O   -1.86130760362400      1.63703373253453      0.45509032478694
