13

C	-0.39054	0.003449	-1.467528
C	0.0	0.0	0.0
Br	-2.457485	0.218572	-1.706099
H	1.09774	0.0	0.0
H	-0.038964	0.921088	-1.934288
N	0.100094	-1.117419	-2.131965
H	-0.240108	-1.991435	-1.75065
H	-0.037736	-1.074158	-3.130104
C	-0.4479	-1.222883	0.652324
N	-0.779133	-2.245216	1.125856
C	-0.457581	1.185833	0.706385
N	-0.778522	2.166623	1.265886
Cl	2.968492	0.0	0.0
