13

C	-0.268067	-0.050666	-1.506196
C	0.0	0.0	0.0
Br	-2.18021	-0.189423	-1.914212
H	1.099447	0.0	0.0
H	0.024538	0.920404	-1.922093
N	0.41747	-1.195705	-2.031387
H	0.303113	-1.236407	-3.042442
H	1.411608	-1.099686	-1.802709
C	-0.495067	-1.184528	0.689534
N	-0.882146	-2.131701	1.264833
C	-0.504954	1.223534	0.606804
N	-0.900864	2.219943	1.084743
Cl	3.225082	0.0	0.0
