13

C	-0.379596	-0.030008	-1.501408
C	0.0	0.0	0.0
Br	-0.341645	-1.967545	-2.122097
H	1.095765	0.0	0.0
H	-1.425274	0.232182	-1.660242
N	0.475534	0.789469	-2.221744
H	0.085008	1.550904	-2.74218
H	1.425006	0.884964	-1.881119
C	-0.546398	-1.065619	0.831402
N	-1.003006	-1.88322	1.539999
C	-0.438819	1.300801	0.514648
N	-0.803095	2.357079	0.877951
Cl	3.196596	0.0	0.0
