13

C	-0.500856	-0.021193	-1.451035
C	0.0	0.0	0.0
Br	0.305609	1.535546	-2.409417
H	1.094797	0.0	0.0
H	-0.066126	-0.884578	-1.956512
N	-1.920781	-0.053843	-1.525868
H	-2.225411	-0.113819	-2.488945
H	-2.315791	0.785943	-1.114594
C	-0.458844	-1.218763	0.673608
N	-0.803081	-2.210474	1.199953
C	-0.512095	1.17554	0.704784
N	-0.956703	2.120904	1.242213
Cl	3.191776	0.0	0.0
