13

C	-0.379439	0.017057	-1.482091
C	0.0	0.0	0.0
Br	-2.394938	0.445215	-1.661577
H	1.097731	0.0	0.0
H	0.078416	0.881809	-1.958937
N	-0.010389	-1.167256	-2.113421
H	-0.4374	-1.992444	-1.714364
H	-0.127757	-1.140937	-3.11475
C	-0.493171	-1.212397	0.646359
N	-0.864228	-2.220929	1.12084
C	-0.446704	1.193394	0.712289
N	-0.776287	2.166651	1.280498
Cl	3.166963	0.0	0.0
