14

C	0.0	0.0	0.0
C	-0.45928	-0.01795	-1.464018
Cl	1.844912	0.0	0.0
H	-1.554946	-0.059939	-1.376626
H	-0.294628	-0.931407	0.482221
N	-0.490402	1.108121	0.738956
H	-1.4826	0.915776	0.899992
H	-0.438876	1.922056	0.133649
C	0.001376	-1.2198	-2.179409
N	0.392352	-2.140925	-2.795931
N	-0.087638	1.225575	-2.125733
H	-0.685265	1.375807	-2.927968
H	0.874654	1.18342	-2.437457
Cl	-3.529695	0.0	0.0
