14

C	0.0	0.0	0.0
C	-0.584473	-0.186385	-1.391038
Cl	1.851618	0.0	0.0
H	-1.670075	-0.251212	-1.180534
H	-0.24842	-0.859866	0.620701
N	-0.51158	1.178327	0.539411
H	-0.195512	1.384149	1.472798
H	-0.419952	1.953714	-0.098996
C	-0.131125	-1.436773	-2.015129
N	0.245625	-2.40446	-2.564361
N	-0.335789	0.994826	-2.209637
H	-1.09523	1.112269	-2.866817
H	0.535141	0.903352	-2.7175
Cl	-3.782892	0.0	0.0
