16

C	-0.396221	-0.116341	-1.448519
C	0.0	0.0	0.0
F	0.128748	-1.244928	-1.989968
H	1.10787	0.0	0.0
N	-1.924236	-0.262129	-1.56817
O	-2.369383	-1.405004	-1.583908
O	-2.574465	0.779915	-1.54471
C	-0.012146	1.041371	-2.268007
N	0.29939	1.933139	-2.966671
C	-0.402508	-1.217997	0.826113
H	-1.478697	-1.290063	1.003815
H	-0.055597	-2.122348	0.324492
H	0.119298	-1.14963	1.783229
C	-0.47412	1.239305	0.576205
N	-0.81676	2.234565	1.102952
H	2.541833	0.0	0.0
