16

C	-0.490478	-0.060621	-1.418476
C	0.0	0.0	0.0
F	-1.863202	-0.111402	-1.512969
H	1.094814	0.0	0.0
N	-0.058687	1.202848	-2.168043
O	-0.824745	2.156053	-2.100358
O	1.030507	1.157457	-2.724264
C	0.044937	-1.214854	-2.153284
N	0.369619	-2.183172	-2.7329
C	-0.360684	-1.270855	0.772047
H	0.135956	-2.125752	0.306452
H	0.044418	-1.175766	1.781732
H	-1.437524	-1.447193	0.825998
C	-0.499672	1.182498	0.672628
N	-0.857691	2.117307	1.291362
H	2.577604	0.0	0.0
