13
Coordinates from ORCA-job run
  C   0.05309220316665      0.11076283557822      0.23334851479961
  C   1.19353211280869     -0.34676604016633     -0.65469405014938
  Br  0.69165943393123     -0.22022869025701      2.16013853118433
  H   2.09097576906713      0.24924066140022     -0.47652314041429
  H   0.88962015356816     -0.22274581159578     -1.69797776841036
  H   1.43627835984119     -1.39265550709010     -0.46836869751129
  N   -0.23350917752217      1.47651575209858      0.00975760864579
  H   0.58274088447750      2.06140077749030      0.13595321615023
  H   -0.97636632121802      1.81179604918001      0.60978314569643
  C   -1.19838944099274     -0.72970347499465      0.07223296690865
  H   -0.98905143942692     -1.78094354957719      0.26869934459178
  H   -1.56134931612342     -0.61512665736315     -0.95310458733169
  H   -1.98023322157727     -0.40254634470312      0.76075491584020
