14
Coordinates from ORCA-job run
  C   -0.81457216754869      0.30821813626853      0.13295155136754
  C   0.27829590590369     -0.77544889088859      0.09809966044664
  Cl  -2.28463224696390     -0.29014036628077      0.89865392600580
  H   -0.15414475464449     -1.61296437948174     -0.45605387395518
  C   -0.33237966929201      1.51117495207495      0.79311602856846
  N   0.11911018845263      2.43097901867946      1.36984398603360
  N   -1.13668159339582      0.63004229864790     -1.33991849356712
  O   -1.39289355050759     -0.33897935305496     -2.03554235048467
  O   -1.11704914860663      1.80490901364431     -1.66860279574572
  C   0.59094787162679     -1.21249260550713      1.46727306808036
  N   0.91276910700984     -1.54829755623832      2.54630540406464
  N   1.39383511006905     -0.23423644271576     -0.64675102256179
  H   1.91766688464455     -0.96776467345420     -1.10504966401198
  H   2.01972806325258      0.29700084830633     -0.05332542424058
