14
Coordinates from ORCA-job run
  C   -0.87734688287093      0.21733167580512      0.12025817869995
  C   0.36624579376080     -0.64083761646653      0.46419439867949
  Cl  -2.30772527786726     -0.80018637588981      0.10291198766035
  H   0.06451639496463     -1.21755057383965      1.34457326881793
  C   -1.05893349138401      1.32565907308876      1.04900641641880
  N   -1.19118112636132      2.21246952594191      1.81017311794627
  N   -0.68071051201253      0.85198333938715     -1.28156728814468
  O   0.48420111875508      1.09270542044176     -1.57266279072833
  O   -1.67708823688435      1.09971868609537     -1.93327238887065
  C   1.50788940045001      0.19684068701288      0.87027581550785
  N   2.45785093656214      0.79811810709185      1.21171120749461
  N   0.62911149410760     -1.55553745637823     -0.62212926610074
  H   1.00472709725586     -2.42755888921232     -0.27704669113094
  H   1.27644329152427     -1.15215560307826     -1.28642596624991
