14
Coordinates from ORCA-job run
  C   -0.76284674680397      0.19345438945343     -0.16861087594141
  C   0.64138930664172     -0.26673912023957      0.28026526008130
  Cl  -1.48583372438031     -0.96329097065750     -1.26697865833962
  H   1.00934724302753      0.51448793697646      0.95197483223545
  C   -1.61632944402501      0.41473114231451      0.98943962039426
  N   -2.31051618190822      0.60839765371136      1.91793121379330
  N   -0.56888297955741      1.56780234297418     -0.86818588713306
  O   -0.10792151286348      2.41932946190266     -0.11872731288600
  O   -0.84651726912152      1.67512292208918     -2.04732486771382
  C   1.53236710392285     -0.31826168666354     -0.89486681820874
  N   2.26232557209385     -0.41208693948754     -1.81109468214159
  N   0.51579744918201     -1.49783801313574      1.02123626332838
  H   0.41637945711943     -2.29228417324639      0.40190590914732
  H   1.32224172667250     -1.64282494599149      1.61403600338422
