14
Coordinates from ORCA-job run
  C   -0.75057090666143      0.21356775558308     -0.20704782592825
  C   0.61672600235104     -0.29071576617390      0.30579871124032
  Cl  -1.42343865200487     -0.88057008369812     -1.39676274034532
  H   0.95136246811569      0.45264087819576      1.03535422955651
  C   -1.66680083078418      0.40064988747545      0.90839546063607
  N   -2.40483644548785      0.56897698287386      1.80747380874595
  N   -0.49139907612260      1.61296698564669     -0.83201694663704
  O   -0.68679259394719      1.77387932568444     -2.02152482824782
  O   -0.06878389458466      2.42415875456744     -0.01804880163960
  C   1.57967432731843     -0.30374607160763     -0.81169103537234
  N   2.36614280265851     -0.36730634776980     -1.68284087550170
  N   0.42701369274115     -1.55214379834473      0.97958914986828
  H   1.19238896345463     -1.73650375330104      1.61459581282072
  H   0.35831414295333     -2.31585474913151      0.31872588080422
