14
Coordinates from ORCA-job run
  C   -0.77845376169870      0.40765413473191      0.05018728852058
  C   0.16799536173314     -0.80489285070826      0.10922949789368
  Cl  -2.38650213527059     -0.00689191555537      0.63971567217782
  H   -0.30125487688170     -1.57617199877536     -0.50766140598956
  C   -0.22626671675791      1.53427628401483      0.78589498754084
  N   0.26531356856400      2.38371838857045      1.43320643236895
  N   -0.89518644403018      0.78043590632591     -1.44082950607940
  O   -1.19362986372217     -0.14215757996414     -2.18151160539987
  O   -0.69499478359951      1.94664305999747     -1.73897156716134
  C   0.27037975016032     -1.29096889030677      1.49362778999190
  N   0.42451748555163     -1.67773750120103      2.59242632631910
  N   1.41777085470823     -0.40205777802067     -0.49783492431493
  H   2.03428946322237      0.04163661492482      0.17245005826335
  H   1.89502209802110     -1.19248587403377     -0.90992904413114
