14
Coordinates from ORCA-job run
  C   -0.72321068124762      0.49135815417512      0.11188608044239
  C   0.12912741878718     -0.78448607584222      0.23729395987965
  Cl  -2.20264114458501      0.36782261888647      1.06114443394076
  H   -0.50847575825653     -1.60129652675507     -0.11153176061127
  C   0.04502284305135      1.66757268556204      0.48859253874308
  N   0.72235764445970      2.56157834183782      0.84128830942957
  N   -1.11361881579725      0.59360174815831     -1.37592127720483
  O   -1.61936642926779     -0.41203593224644     -1.84658366867983
  O   -0.89455382506347      1.65529622766365     -1.93587226174163
  C   0.47874719211241     -1.01336261972163      1.64747262716632
  N   0.82892243025049     -1.20342808980332      2.75288252944145
  N   1.25329583834120     -0.63837208049315     -0.66105426608236
  H   1.58049070279045     -1.53799133780863     -0.98636843201279
  H   2.02290258442489     -0.14625711361293     -0.22322881271051
