14
Coordinates from ORCA-job run
  C   -0.78440458785428      0.21885168279950      0.13233827002033
  C   0.34496828693962     -0.84736933374231      0.06542535723817
  Cl  -2.29951755717544     -0.49029538628160      0.69042385571386
  H   -0.04618289606783     -1.65526276700375     -0.55970926776953
  C   -0.38878381285282      1.34351330407931      0.96450233635568
  N   0.00443278423002      2.20226687977359      1.66501025852298
  N   -1.01362061588794      0.72066727560695     -1.30420818004198
  O   -1.04160500798296     -0.14985568920160     -2.16349801212872
  O   -1.16077686065304      1.92388307135386     -1.46060255420963
  C   0.56379546330597     -1.35925621246185      1.42295589473357
  N   0.75405000714876     -1.75030962610623      2.51337545500851
  N   1.57992023934374     -0.37803593807462     -0.49605412286441
  H   1.98241415046170      0.39907899519714      0.01132849835669
  H   1.50631040704450     -0.17787625593839     -1.48328778893552
