14
Coordinates from ORCA-job run
  C   -0.74677727225869      0.26486197554200     -0.15171240619236
  C   0.61989682933282     -0.32068175350431      0.26704257490277
  Cl  -1.62064017743663     -0.84718858120202     -1.18433973989372
  H   1.08767699527335      0.43989550737624      0.89917166581709
  C   -1.53023717667262      0.60708361684476      1.02627938666734
  N   -2.16413390303103      0.89727990794171      1.97253617924710
  N   -0.44135457126257      1.58954263245297     -0.90479589219539
  O   -0.73896275771508      1.68307663840830     -2.08013911333528
  O   0.11937887641594      2.41717232574994     -0.19780678908726
  C   1.45917397458096     -0.50072708626310     -0.93298145969236
  N   2.14750659142438     -0.70098295184616     -1.86433714499423
  N   0.39802903310202     -1.50910978353723      1.05419279293370
  H   0.20671128543374     -2.31055022372299      0.46644652689577
  H   1.20273227281339     -1.71067222424011      1.63244341892683
