14
Coordinates from ORCA-job run
  C   -0.77999754295477      0.24328376759375      0.11335429414098
  C   0.32381465374741     -0.85126102745140      0.10862249819992
  Cl  -2.31751578930758     -0.40306487982382      0.68672652017687
  H   -0.08057027276910     -1.67835305951513     -0.48203724773997
  C   -0.36604643107195      1.39581066572606      0.89700359683077
  N   0.04033570923650      2.27678941089583      1.56148707539177
  N   -0.98323194592847      0.68301705344338     -1.34733242687820
  O   -1.01961661563857     -0.22530993617836     -2.16622529866294
  O   -1.10501520668568      1.88038810139798     -1.56008280594739
  C   0.51697083836828     -1.30395379221189      1.49085323036729
  N   0.68740937655311     -1.64734114977971      2.60043683093621
  N   1.57500093596840     -0.43820612276705     -0.46059814162906
  H   1.99306712025523      0.35026558943087      0.01547841286765
  H   1.51639517022719     -0.28206462076050     -1.45668653805389
