14
Coordinates from ORCA-job run
  C   -0.68274596997330      0.16877887035453     -0.25402612926218
  C   0.72052239834472     -0.26131812878080      0.29728908437651
  Cl  -1.19954041943491     -0.87496449551640     -1.56025093019016
  H   0.96615995772785      0.47751994840255      1.06767856991728
  C   -1.64568885226068      0.14917260377062      0.83704290404141
  N   -2.37768343062764      0.08123306366106      1.75475085595015
  N   -0.53921677071552      1.63178161286326     -0.73405861141352
  O   -0.61304042146548      1.87153512097433     -1.92433810399525
  O   -0.30349349221009      2.40986265377240      0.18271306223256
  C   1.69393340334025     -0.12848496496108     -0.79315336852049
  N   2.45782365556085     -0.02190221113877     -1.67818910182242
  N   0.78328215044907     -1.57191144842707      0.87492070156707
  H   0.51814961851171     -2.29288232027957      0.21669720131632
  H   0.22153817275315     -1.63842030469506      1.71392386580274
