14
Coordinates from ORCA-job run
  C   -0.81907960060692      0.34567093120435      0.04709218774585
  C   0.25138104955770     -0.69416159796251      0.45686168292922
  Cl  -2.36622927974535     -0.44241614712306     -0.24471641182608
  H   -0.12406075123907     -1.10403836231656      1.40148383962487
  C   -0.96669372847618      1.36388849116208      1.08028667360027
  N   -1.06424667831401      2.14722326668144      1.95174796463009
  N   -0.41782331566505      1.08009225944133     -1.24953129691280
  O   0.54696996933033      0.63714628202318     -1.85978357426795
  O   -1.11313373156261      2.03505428076282     -1.55310776288013
  C   1.51121089393340      0.01496470675263      0.75673768927066
  N   2.54001261713576      0.53208987589323      0.99118606472428
  N   0.35617523125458     -1.77587615592964     -0.48822876123929
  H   0.96405735776776     -1.53026515201717     -1.25676268993699
  H   0.70045996662964     -2.60937267857211     -0.03226560546200
