14
Coordinates from ORCA-job run
  C   -0.68687617136344      0.19978660035945     -0.22235661169663
  C   0.71889797956703     -0.29161354336091      0.26662000711541
  Cl  -1.36874632229880     -0.89719255572861     -1.40288028633873
  H   1.07040793581749      0.48303646455483      0.95656958580339
  C   -1.56639795234134      0.33545055001602      0.92918267117308
  N   -2.23312304422431      0.38916990442475      1.89623773591282
  N   -0.47623957432004      1.60796558539859     -0.82690843405494
  O   -0.12464592199760      2.43349379558603      0.00740577463871
  O   -0.61747606283093      1.76182913483821     -2.02527758162964
  C   1.62028451058465     -0.31592005057017     -0.89158412891387
  N   2.33367184398718     -0.33664230059651     -1.82386611179712
  N   0.73158670201354     -1.55527947806104      0.94345961286331
  H   0.36313596090802     -2.30111804503987      0.36792621760347
  H   0.23552011649856     -1.51296606182079      1.82447154932075
