14
Coordinates from ORCA-job run
  C   -0.80972352057404      0.30063909394819      0.17099857516729
  C   0.31194183019101     -0.75342147736746      0.15253947255621
  Cl  -2.18704041706659     -0.24870518267902      1.12296122410551
  H   -0.13780804833135     -1.65569089808798     -0.27078665928989
  C   -0.31382498463939      1.57873337895993      0.65695786335350
  N   0.15215364773218      2.56551567436489      1.09445585408608
  N   -1.26783865146066      0.45486186995868     -1.29268186901207
  O   -1.31438626207785      1.58777207592939     -1.74353488448275
  O   -1.55305639977683     -0.58875702605867     -1.85670613527447
  C   0.75455172531160     -1.03406745297218      1.52695270226206
  N   1.17841509460098     -1.24529375888456      2.60228042448616
  N   1.34112910828684     -0.26834467793890     -0.74068245937237
  H   1.99429773350686      0.34212881660682     -0.26426639115817
  H   1.85218914429723     -1.03437043577911     -1.15848771742709
