14
Coordinates from ORCA-job run
  C   -0.77400422993569      0.41329251935392      0.06458273774754
  C   0.18564974595009     -0.78211560932584      0.20393956477472
  Cl  -2.31697147989200      0.08918179592407      0.85233845255268
  H   -0.33145949961821     -1.63065528588787     -0.25228389447093
  C   -0.16831281161283      1.62979738036269      0.58322551441209
  N   0.37112434984631      2.55877162716076      1.06096430389281
  N   -1.03125891229861      0.57536149258246     -1.44596843928163
  O   -0.87143888432520      1.68820225331771     -1.92051078756854
  O   -1.38666883374279     -0.44049434123127     -2.02092349247830
  C   0.42011936499080     -1.07010465183793      1.62729827921177
  N   0.67750272389560     -1.30001737827884      2.75050876769856
  N   1.37001056881301     -0.47275247067324     -0.56639323525830
  H   2.04273050499081      0.05674991129281     -0.02505117802228
  H   1.81297739293871     -1.31421724275941     -0.90972659321020
