14
Coordinates from ORCA-job run
  C   -0.76863125312692      0.17157826820789     -0.17269359444904
  C   0.64743177655274     -0.23694824510485      0.29002939272970
  Cl  -1.49171448616658     -1.07308817412433     -1.17068985251955
  H   1.01149256370188      0.59623968773496      0.89820686658035
  C   -1.60834000182570      0.46779331539974      0.97884345222613
  N   -2.28969480175671      0.71855119775037      1.90317382995928
  N   -0.60106546329169      1.49120425937956     -0.97583299459099
  O   -0.14552206339339      2.40318830796522     -0.29753817412655
  O   -0.88921467533403      1.50464852257604     -2.15724701706874
  C   1.52523082298056     -0.36315842591939     -0.88893713637866
  N   2.24611043895361     -0.51441090495625     -1.80472486424125
  N   0.54738216918324     -1.41197182325473      1.12051063867515
  H   0.45390348408261     -2.25112228433961      0.56226231426519
  H   1.36163148944038     -1.50150370131461      1.71363713893896
