14
Coordinates from ORCA-job run
  C   -0.80125818842281      0.34830351226023      0.10897747414766
  C   0.23835311238997     -0.78674794887372      0.11296609963608
  Cl  -2.31625786906981     -0.16900544986096      0.84547306662854
  H   -0.22008944341488     -1.60966004292273     -0.44214606001699
  C   -0.27759374626926      1.53502939825105      0.76694051104032
  N   0.20259102689880      2.43885911510045      1.34556233697219
  N   -1.07309840247176      0.66682722022723     -1.37481103308092
  O   -0.98873793429282      1.83512981283574     -1.71652985401483
  O   -1.36095678887993     -0.29732323208525     -2.06495991233169
  C   0.49662825805833     -1.22153022138845      1.49420594117469
  N   0.77676944616020     -1.55991949205870      2.58401324556773
  N   1.39648750960810     -0.30879003776154     -0.61005426534395
  H   2.03158078922591      0.20055707585019     -0.00722885853342
  H   1.89658223047997     -1.07272970957354     -1.04440869184542
