14
Coordinates from ORCA-job run
  C   -0.83299753572513      0.29253283899883      0.11413275365997
  C   0.34235808038205     -0.65496682546228      0.45515516147498
  Cl  -2.34135025044474     -0.60883635421696      0.00105672651544
  H   0.09060328820650     -1.04416383816721      1.44830907706583
  C   -0.95375118580858      1.34027041703228      1.12093934006049
  N   -1.01999484498425      2.14931070706049      1.97162387989965
  N   -0.60927208401626      0.99658522884675     -1.24037710282597
  O   -1.38614617426672      1.90003312959475     -1.50173646007987
  O   0.30989559448128      0.58030554046879     -1.93426309662871
  C   1.57163820063924      0.15032642026589      0.59839843857787
  N   2.57760670098029      0.74803866251607      0.70631465146987
  N   0.43124671110835     -1.77049644198964     -0.45121825272596
  H   0.93967210525983     -1.52076735985535     -1.28761202125887
  H   0.87849139418811     -2.55617212509241      0.00027690479529
