14
Coordinates from ORCA-job run
  C   -0.76391959275508      0.20937797705110     -0.15533178351114
  C   0.63890209187938     -0.28283421466846      0.26450596398005
  Cl  -1.51631398562315     -0.90678547435356     -1.27569264685145
  H   1.02425349473535      0.47379027304184      0.95432502254163
  C   -1.59874687838439      0.40987694929699      1.02009551891247
  N   -2.27433222281085      0.58480423266921      1.96576545431175
  N   -0.55683754794706      1.59862080351248     -0.81975310347322
  O   -0.08360082957135      2.42540858881653     -0.05045385976322
  O   -0.83540554818319      1.73876467986518     -1.99523779603167
  C   1.51752994224141     -0.31380258177094     -0.92014612113000
  N   2.23967291676854     -0.39278624735576     -1.84394149409702
  N   0.50368558740527     -1.53273330923348      0.97212779912799
  H   0.39039241875402     -2.30824531888709      0.33150074531109
  H   1.31372015349108     -1.70345635798403      1.55323630067274
