14
Coordinates from ORCA-job run
  C   -0.86168612861348      0.17236567602202      0.05643277972927
  C   0.38678677034952     -0.72713327112216      0.09976484428964
  Cl  -2.28613543315875     -0.68289253037064      0.64466492829999
  H   0.14883899220352     -1.59289192476612     -0.52423224491759
  C   -0.64343523714316      1.40055094614387      0.80428576403906
  N   -0.40326570920078      2.34828460381720      1.45729782522425
  N   -1.08584799671942      0.51327643513114     -1.42947799229809
  O   -1.11764854665853     -0.44799774905963     -2.18029512318820
  O   -1.21991058504214      1.69212043363967     -1.71472913594006
  C   0.62902025787518     -1.17797700182804      1.47866230933639
  N   0.89336324308014     -1.51406617611662      2.57311006676139
  N   1.47045971417277      0.01555060433099     -0.50587215880770
  H   2.14743515604587     -0.60561653290747     -0.92808470157258
  H   1.94202550280926      0.60742648708579      0.16747283904426
