14
Coordinates from ORCA-job run
  C   -0.74521770910279      0.25008710988133     -0.17874247195969
  C   0.61568831600047     -0.31169003574233      0.28903930707244
  Cl  -1.54413879610925     -0.85870749084483     -1.27399249111158
  H   1.03456028900115      0.44552418957956      0.95834179691657
  C   -1.58935264723711      0.54674169053905      0.96940837950589
  N   -2.27011626601175      0.80236066473381      1.89278780337404
  N   -0.43854417569916      1.59813394683362     -0.88858838918887
  O   0.06774057272109      2.42322983470822     -0.13888762435427
  O   -0.68193200676867      1.70967102747138     -2.07487061456638
  C   1.51105847904480     -0.44300152736951     -0.87606723307506
  N   2.23881089527980     -0.60263411639783     -1.78492314332133
  N   0.38856281454445     -1.52281598248716      1.03963442721238
  H   1.17722845792331     -1.72300288670431      1.64064755156369
  H   0.23665177641367     -2.31289642420101      0.42521270193217
