14
Coordinates from ORCA-job run
  C   -0.77399672961832      0.41910237612637      0.02647859417015
  C   0.16388324006597     -0.79033452413207      0.19225404343379
  Cl  -2.36827343484849      0.08858492929038      0.70098048329975
  H   -0.32920651452576     -1.61893220511536     -0.32329944711027
  C   -0.19233267313984      1.61294415724778      0.61958702557699
  N   0.32626420571663      2.52277035540896      1.15401702784092
  N   -0.92910419107442      0.62834706395701     -1.49242131766947
  O   -1.25614041426503     -0.36599177624842     -2.11943704033522
  O   -0.72554877479942      1.75215219798365     -1.92199288806928
  C   0.30190380540340     -1.12257896381504      1.61839617190840
  N   0.48722405353765     -1.38596575175306      2.74840376170692
  N   1.39925016731520     -0.47061605862508     -0.48891816031454
  H   1.85716267641460     -1.30649573506907     -0.82635557935447
  H   2.03891458381783      0.03601393474393      0.11130732491632
