14
Coordinates from ORCA-job run
  C   -0.85918326962938      0.26493694191181      0.11216208128247
  C   0.38123401685523     -0.60125110757778      0.45896600112508
  Cl  -2.27863903232271     -0.77251605927183      0.05337850285461
  H   0.10560799063760     -1.14102452485035      1.37729650845758
  C   -1.05940036287188      1.34394506569261      1.06614039919475
  N   -1.21776253708889      2.18643997902930      1.87101521365827
  N   -0.59296806458012      0.89217821600947     -1.27863008965784
  O   -1.22300698472036      0.48512462462835     -2.23301464869550
  O   0.28714738785084      1.74037548530046     -1.25274795836043
  C   1.54136855688275      0.23317955683157      0.78217720483861
  N   2.51067141116106      0.82359677657513      1.08360998217996
  N   0.67803553954641     -1.44724626137234     -0.68056434327596
  H   1.64532585385538     -1.74160519526134     -0.67242875009350
  H   0.08256949442408     -2.26513349764507     -0.68536010350810
