14
Coordinates from ORCA-job run
  C   -0.69356142664816      0.16781366033356     -0.22869546064839
  C   0.72691880755318     -0.25392086802895      0.28303953374037
  Cl  -1.37880003836423     -1.05156568545455     -1.28008458286143
  H   1.07615864766323      0.59005296877706      0.88737184632764
  C   -1.55586333680384      0.40838667494494      0.91882378969884
  N   -2.20931456928809      0.55161977939148      1.88586816972921
  N   -0.51231871607930      1.50982940597346     -0.97609441293886
  O   -0.15753994790248      2.41957130224201     -0.23607952240937
  O   -0.67517620489801      1.53933136918627     -2.18118259611914
  C   1.61129415048962     -0.38032711446675     -0.88126454785416
  N   2.31075930923756     -0.48379082328906     -1.81862448136397
  N   0.76896857184551     -1.44413800123722      1.08100318074831
  H   0.28371774301728     -1.32242137783426      1.96059396124586
  H   0.40475701017773     -2.24844129053799      0.58732512270508
