14
Coordinates from ORCA-job run
  C   -0.67467079773702      0.21252931855474     -0.24655453716986
  C   0.70525882530545     -0.30676374285428      0.28586646622254
  Cl  -1.27143548409354     -0.79062545459799     -1.55032108805480
  H   1.00552715450007      0.41214291841214      1.05573930578861
  C   -1.62293796600615      0.24843972861712      0.85688167905855
  N   -2.34598331509347      0.21987449030864      1.78369776590353
  N   -0.44531994346211      1.66617668258284     -0.72243745698679
  O   -0.15448453454818      2.42439083580041      0.19512748007138
  O   -0.51615569287691      1.91511551141096     -1.91103395429054
  C   1.67425050613217     -0.23122998721578     -0.81398047392711
  N   2.44183447965580     -0.17318412204461     -1.70043436855841
  N   0.69270419632556     -1.62094182452891      0.85854623737466
  H   0.36925992002240     -2.32015950374917      0.20292999038538
  H   0.14215265187593     -1.65376485069612      1.70697295418285
