14
Coordinates from ORCA-job run
  C   -0.86293641369500      0.26528003883952      0.10201676005137
  C   0.37781548499193     -0.59154762431042      0.47439862881643
  Cl  -2.27899769946053     -0.77755835460047      0.05981369269821
  H   0.09659143336638     -1.11573218534398      1.39948636132207
  C   -1.07054886110203      1.36476554897536      1.03075586079701
  N   -1.23723514348532      2.22705856424064      1.81270853977289
  N   -0.59019627426932      0.86087153186709     -1.30010392038572
  O   -1.23052941500665      0.44893758301680     -2.24547071184477
  O   0.30286039304033      1.69591137000294     -1.29167398282419
  C   1.53401710946205      0.25112092230413      0.78978828496105
  N   2.49989267843249      0.85013051004180      1.08491100244745
  N   0.68184203254485     -1.46053861395338     -0.64611688985741
  H   1.65928367847104     -1.71855419312166     -0.65334288534679
  H   0.11714099670979     -2.29914509795837     -0.61617074060759
