14
Coordinates from ORCA-job run
  C   -0.74576332923509      0.23540730207820     -0.19809602917248
  C   0.61231405023912     -0.31876087928552      0.28645690386045
  Cl  -1.39844701312868     -0.73921381207447     -1.49858971713067
  H   0.93761978117901      0.35240808607757      1.08680010501982
  C   -1.68230441942926      0.31564343125945      0.91322417741166
  N   -2.44031854068643      0.39504984248859      1.80793081520439
  N   -0.47539675834983      1.68741516516863     -0.68187506072658
  O   -0.06999901869281      2.41692684673711      0.21408078981316
  O   -0.64725310840594      1.96110738869932     -1.85423440821383
  C   1.59219402089591     -0.23151358225523     -0.81294443258365
  N   2.39255812980723     -0.21866477304069     -1.67340556180433
  N   0.41013355392866     -1.63669809385730      0.83698782227446
  H   0.35093934734864     -2.33566403651764      0.10725767823790
  H   1.16472330452948     -1.88144288547801      1.46440691780969
