14
Coordinates from ORCA-job run
  C   -0.75586470517818      0.22673748918620     -0.16992000652434
  C   0.62740852276970     -0.29204097635947      0.28009709548762
  Cl  -1.53316206111114     -0.90633901414044     -1.25602262302337
  H   1.03042000864435      0.47725037505025      0.94548911305781
  C   -1.59422847192871      0.49468266324704      0.98941832890065
  N   -2.27325571392370      0.71881234029618      1.92222542469144
  N   -0.50124224592491      1.58388684164053     -0.88251826258027
  O   -0.01028899988712      2.42379013774505     -0.13896300345043
  O   -0.76326964173949      1.68848669713566     -2.06545636625574
  C   1.51513691852021     -0.39261143166247     -0.89393178154690
  N   2.24609502047000     -0.52188880998019     -1.80499380620284
  N   0.44818344455607     -1.51029934278478      1.03200173653394
  H   1.24854067986037     -1.68447147353235      1.62541640947842
  H   0.31552724487255     -2.30499549584123      0.41915774143401
