14
Coordinates from ORCA-job run
  C   -0.85419045165410      0.28382230212219      0.09782489345671
  C   0.35485221743945     -0.62221696769588      0.45335418337074
  Cl  -2.29726806940802     -0.71515356400476     -0.02237599828372
  H   0.04239786618868     -1.17837101528151      1.34978758538623
  C   -1.05238685093772      1.34395615848596      1.07324790635970
  N   -1.21841295091793      2.17400569167181      1.88937296363406
  N   -0.53655937079149      0.93771873002152     -1.26928312243855
  O   -1.15514408604625      0.57441006171467     -2.24847843209330
  O   0.36642051903622      1.75912391036591     -1.20092500967779
  C   1.52658617181308      0.17414817410743      0.82731078595051
  N   2.50424163326502      0.72997096780854      1.16541188471366
  N   0.66013497816852     -1.44562552938768     -0.70082914455123
  H   1.61789463257019     -1.76881504258923     -0.67211486080630
  H   0.04243376127436     -2.24597387733898     -0.74330363502071
