14
Coordinates from ORCA-job run
  C   -0.76883067769538      0.22887740164960      0.19375525074882
  C   0.38034928527191     -0.81759087746010      0.16813083596816
  Cl  -2.17537876043496     -0.38880224686028      1.05995819192970
  H   -0.05765978279626     -1.72930494929234     -0.24823355375291
  C   -0.31292737832722      1.48924330411941      0.75718048239946
  N   0.13187543147637      2.46565492043793      1.23844192770147
  N   -1.19404055877559      0.46268019750384     -1.26677081867558
  O   -1.39337700209112      1.61721395875209     -1.61473022309347
  O   -1.30548849336677     -0.54869109159885     -1.94609969505974
  C   0.78796659329896     -1.07503573171031      1.55383820541241
  N   1.12858386602673     -1.26101431701581      2.66177352464753
  N   1.51657474185168     -0.44114549604878     -0.62457238070729
  H   1.95166739286197      0.41965913968066     -0.31948853541717
  H   1.31068534269967     -0.42174421215705     -1.61318321210139
