14
Coordinates from ORCA-job run
  C   -0.82353309512864      0.33403432596845      0.05451841958794
  C   0.27734350616055     -0.66551535838699      0.48383802968731
  Cl  -2.36428678439971     -0.49423641075708     -0.14597347420668
  H   -0.06504414551552     -1.03578231749516      1.45688593657179
  C   -0.95835555653682      1.40323627190714      1.03669939331961
  N   -1.04301682518393      2.23127734031921      1.86726187323794
  N   -0.47545161797429      1.00555421619904     -1.29065432773215
  O   -1.20799808057252      1.91982112146948     -1.63003708605294
  O   0.49070301527483      0.56052129280716     -1.89725095140061
  C   1.53190441780086      0.07756954334569      0.71374980024643
  N   2.55744576237919      0.62201791213406      0.89459141570127
  N   0.37535234663011     -1.78886035108277     -0.41261028087478
  H   0.96294513924733     -1.57161664983845     -1.20509934223850
  H   0.74099191781858     -2.59602093658977      0.07308059415338
