14
Coordinates from ORCA-job run
  C   -0.83309774821739      0.29348128952715      0.11279065060813
  C   0.34111017332381     -0.65259668791918      0.46023265912869
  Cl  -2.34246373766099     -0.60844653744567      0.02015066267935
  H   0.08156329754919     -1.04533188846658      1.44994411836656
  C   -0.94903805532276      1.35612841545361      1.10442675015913
  N   -1.01248968979907      2.18050298796581      1.94046924006495
  N   -0.61333932119505      0.98063280333304     -1.25185218845609
  O   -1.42503069373717      1.84207100413832     -1.54622046225935
  O   0.34329045229979      0.60049401081666     -1.91507290775964
  C   1.57161405439171      0.14795980222030      0.61562746078964
  N   2.58057751485570      0.73815297539151      0.73575929474500
  N   0.43379941144044     -1.76323940693780     -0.45228075485837
  H   0.96161350374196     -1.51383656110022     -1.27678805516836
  H   0.86289083832983     -2.55797220697696      0.00081353196035
