14
Coordinates from ORCA-job run
  C   -0.74960682348600      0.22554926717359     -0.19180040712755
  C   0.61807677047028     -0.31229728845199      0.28210972188446
  Cl  -1.40322273358752     -0.75985702524846     -1.48417292203911
  H   0.94281289179487      0.36443405695809      1.07799769035724
  C   -1.67791671145881      0.29904186088539      0.92704320665537
  N   -2.42880491660895      0.37471774626547      1.82802962055526
  N   -0.50067128107716      1.67929256987790     -0.68235268677024
  O   -0.09408604015124      2.41593992773159      0.20716888141818
  O   -0.68772889017320      1.94776407814623     -1.85363016582499
  C   1.58868729480712     -0.21493780367286     -0.82499446468290
  N   2.38536678449940     -0.18934034419572     -1.68853024527416
  N   0.43547639116938     -1.63038133499375      0.83823191703699
  H   1.20132711973476     -1.86849288763728      1.45443659801751
  H   0.36829014406705     -2.33143282283816      0.11146325579393
