14
Coordinates from ORCA-job run
  C   -0.76807798153953      0.18524116772098     -0.15842687426240
  C   0.64811525773382     -0.25370406763977      0.27450725319324
  Cl  -1.51422503541663     -1.01725386392291     -1.19055239194536
  H   1.02891317357114      0.55428434924474      0.90617652267989
  C   -1.59267038399851      0.45104981070242      1.01126868147351
  N   -2.26183201722124      0.67910320648180      1.95029085887662
  N   -0.59547119580925      1.52981938969287     -0.91786610769867
  O   -0.12192993698608      2.41327735355573     -0.21463353634074
  O   -0.89874702479732      1.58751518929278     -2.09420676972784
  C   1.51208489884387     -0.34969162582278     -0.91752838693540
  N   2.22413418759460     -0.47744671127338     -1.84380776757678
  N   0.54385664430279     -1.45425239164098      1.06715624568025
  H   0.43179989230316     -2.27347820196307      0.48309631120945
  H   1.36504952141917     -1.57346360442844      1.64552596137423
