17

C	0.0	0.0	0.0
C	-0.205282	-0.109005	-1.540308
F	1.363231	0.0	0.0
H	0.426857	0.709512	-1.891561
C	-0.486685	1.253689	0.565269
N	-0.530332	2.346667	1.000988
N	-0.385537	-1.158927	0.883656
O	-0.493142	-2.269644	0.38165
O	-0.404602	-0.912678	2.084785
N	-1.535233	0.245256	-2.146507
O	-1.737117	1.445098	-2.319574
O	-2.236248	-0.659028	-2.582853
C	0.289033	-1.401307	-2.170097
H	0.410953	-1.242842	-3.244495
H	1.252933	-1.677013	-1.745918
H	-0.423338	-2.201364	-2.010848
F	-2.193456	0.0	0.0
