17

C	0.0	0.0	0.0
C	-0.46607	-0.062115	-1.463908
F	1.367553	0.0	0.0
H	-1.456717	-0.523177	-1.426015
C	-0.480208	1.171558	0.730072
N	-0.562475	2.187255	1.318578
N	-0.392111	-1.249787	0.780732
O	-0.225177	-1.16945	1.996023
O	-0.712788	-2.249564	0.159939
N	0.419718	-0.936299	-2.325824
O	1.176761	-1.759222	-1.819842
O	0.252002	-0.819069	-3.542212
C	-0.564073	1.328483	-2.065755
H	-0.829694	1.258457	-3.118561
H	-1.357209	1.848183	-1.530576
H	0.379532	1.877068	-1.968639
F	-2.376448	0.0	0.0
