17

C	0.0	0.0	0.0
C	-0.365265	-0.107104	-1.509349
F	1.354781	0.0	0.0
H	0.557674	0.214213	-2.010633
C	-0.445515	1.212372	0.691788
N	-0.47819	2.212039	1.312096
N	-0.343704	-1.186746	0.905343
O	-0.577452	-0.936612	2.078242
O	-0.180246	-2.311311	0.443619
N	-1.333557	0.95912	-1.966744
O	-1.002402	2.11582	-1.715599
O	-2.272805	0.642961	-2.683087
C	-0.783978	-1.452839	-2.054127
H	0.000199	-2.187787	-1.887687
H	-0.953145	-1.348057	-3.126615
H	-1.703712	-1.757783	-1.564515
F	-2.227129	0.0	0.0
