17

C	0.0	0.0	0.0
C	-0.212297	-0.077573	-1.545238
F	1.382278	0.0	0.0
H	0.490251	-0.857683	-1.838378
C	-0.537595	1.095908	0.794021
N	-0.678877	2.001854	1.534085
N	-0.377363	-1.317469	0.646164
O	-0.456017	-1.326681	1.867087
O	-0.407667	-2.305296	-0.081584
N	0.39809	1.162921	-2.152497
O	0.301941	2.232887	-1.560466
O	0.917088	1.017891	-3.259806
C	-1.522328	-0.319989	-2.261218
H	-1.956251	-1.239254	-1.881464
H	-2.231399	0.468297	-2.039992
H	-1.307395	-0.414678	-3.332536
F	-2.286744	0.0	0.0
