17

C	0.0	0.0	0.0
C	-0.440396	-0.191528	-1.472151
F	1.346629	0.0	0.0
H	-1.448796	-0.5876	-1.447555
C	-0.515213	1.233984	0.589402
N	-0.555063	2.328043	1.024278
N	-0.393277	-1.1801	0.861537
O	-0.427796	-2.269351	0.302875
O	-0.492413	-0.97791	2.064427
N	0.425787	-1.179084	-2.212759
O	-0.141804	-2.172098	-2.667305
O	1.60995	-0.90502	-2.416051
C	-0.351954	1.121304	-2.228072
H	0.648729	1.552972	-2.150502
H	-1.091534	1.805589	-1.813747
H	-0.579473	0.952997	-3.28459
F	-2.35522	0.0	0.0
