17

C	0.0	0.0	0.0
C	-0.450172	-0.171495	-1.471896
F	1.355332	0.0	0.0
H	-1.211664	-0.938107	-1.498327
C	-0.474729	1.229599	0.63417
N	-0.558789	2.301478	1.111971
N	-0.381014	-1.191684	0.857271
O	-0.423467	-0.994944	2.065547
O	-0.456091	-2.277396	0.29893
N	0.718227	-0.700805	-2.280411
O	1.548138	0.104038	-2.702282
O	0.744928	-1.911877	-2.50586
C	-0.933992	1.113286	-2.112831
H	-1.85039	1.368457	-1.587084
H	-1.14188	0.937124	-3.171835
H	-0.19227	1.909215	-2.033123
F	-2.303599	0.0	0.0
