18

C	0.0	0.0	0.0
C	-0.331535	0.046138	-1.554537
Br	1.942031	0.0	0.0
H	0.604359	-0.278274	-2.005829
C	-0.457074	1.121408	0.802974
N	-0.606705	2.090566	1.454767
N	-0.33577	-1.310483	0.717642
O	-0.278778	-2.329912	0.046378
O	-0.508794	-1.246067	1.924593
C	-0.546545	1.508036	-1.944959
H	-0.621086	1.572849	-3.034093
H	-1.484203	1.855763	-1.509355
H	0.27286	2.154188	-1.617516
C	-1.399053	-0.841005	-2.218172
H	-0.994731	-1.133693	-3.196132
H	-2.333863	-0.309298	-2.346465
H	-1.622409	-1.738201	-1.655321
Cl	-3.141156	0.0	0.0
