18

C	0.0	0.0	0.0
C	-0.570822	-0.223033	-1.403574
Br	1.948976	0.0	0.0
H	-1.600999	-0.538682	-1.193894
C	-0.400967	1.261217	0.614668
N	-0.587195	2.332298	1.062443
N	-0.378767	-1.132764	0.978783
O	-0.348003	-0.850564	2.167513
O	-0.609798	-2.228371	0.493727
C	0.15723	-1.273723	-2.237707
H	1.111231	-0.89772	-2.618851
H	-0.47791	-1.512285	-3.096426
H	0.329781	-2.195466	-1.683445
C	-0.652699	1.102423	-2.154749
H	-1.35962	1.775116	-1.66677
H	0.326396	1.588382	-2.234998
H	-1.021236	0.910024	-3.166495
Cl	-3.478735	0.0	0.0
