18

C	0.0	0.0	0.0
C	-0.249952	-0.107144	-1.594357
Br	1.938718	0.0	0.0
H	0.633323	-0.623773	-1.926254
C	-0.50772	1.15842	0.705751
N	-0.563851	2.160833	1.327993
N	-0.351849	-1.30023	0.714854
O	-0.025907	-2.333218	0.132842
O	-0.830006	-1.221505	1.843544
C	-0.197504	1.311614	-2.154549
H	-0.177735	1.270777	-3.247594
H	-1.078512	1.889404	-1.83347
H	0.712018	1.846605	-1.835946
C	-1.382236	-0.906079	-2.260452
H	-1.696313	-1.7455	-1.645317
H	-2.262158	-0.327417	-2.515723
H	-0.921802	-1.302206	-3.172277
Cl	-2.967014	0.0	0.0
