18

C	0.0	0.0	0.0
C	-0.313984	0.078109	-1.553349
Br	1.969062	0.0	0.0
H	0.624186	-0.244298	-2.003308
C	-0.443153	1.114089	0.822344
N	-0.576429	2.095458	1.458354
N	-0.332029	-1.321169	0.688791
O	-0.232719	-2.328085	0.001738
O	-0.543604	-1.277794	1.890741
C	-0.517506	1.547478	-1.921056
H	-1.457123	1.897096	-1.488775
H	0.302578	2.183396	-1.57437
H	-0.577759	1.631966	-3.010318
C	-1.373327	-0.792202	-2.248166
H	-0.970749	-1.018884	-3.245097
H	-1.567459	-1.728108	-1.736023
H	-2.318866	-0.272588	-2.345778
Cl	-3.094533	0.0	0.0
