14

C	0.0	0.0	0.0
C	-0.470802	-0.096892	-1.442832
F	1.386049	0.0	0.0
H	-1.578331	-0.196449	-1.310217
H	-0.374006	-0.848153	0.571558
C	-0.433833	1.258571	0.613897
N	-0.51019	2.280082	1.190297
N	0.079402	-1.385013	-1.97828
O	-0.157448	-2.392037	-1.306951
O	0.707028	-1.388259	-3.035673
N	-0.105708	0.995408	-2.286397
H	-0.771958	1.744382	-2.152827
H	0.824458	1.328783	-2.062498
H	-2.7096	0.0	0.0
