14

C	0.0	0.0	0.0
C	-0.42557	-0.20023	-1.47339
F	1.373762	0.0	0.0
H	0.498582	-0.469011	-1.998343
H	-0.357267	-0.867857	0.553823
C	-0.443551	1.216114	0.695121
N	-0.605029	2.18042	1.347719
N	-0.721111	1.175514	-2.136665
O	-1.600408	1.215781	-2.990776
O	0.043944	2.098928	-1.86067
N	-1.424788	-1.171441	-1.628612
H	-2.218766	-0.812134	-0.995557
H	-1.726771	-1.192176	-2.597554
H	-2.843558	0.0	0.0
