12

C	-0.378249	0.024596	-1.46575
C	0.0	0.0	0.0
F	-0.065295	-1.218514	-2.002145
H	1.091365	0.0	0.0
H	0.216976	0.776252	-1.983923
H	-0.420336	-0.863213	0.51257
C	-1.813825	0.258679	-1.725071
N	-2.959307	0.405944	-1.936503
N	-0.464082	1.20845	0.665274
O	-0.569532	2.234198	-0.021568
O	-0.665963	1.168815	1.879518
F	2.51608	0.0	0.0
