12

C	-0.544486	-0.055846	-1.402223
C	0.0	0.0	0.0
F	0.110374	0.820164	-2.249039
H	1.088288	0.0	0.0
H	-1.605617	0.208098	-1.448055
H	-0.296884	-0.875947	0.58227
C	-0.386291	-1.419776	-1.940348
N	-0.284786	-2.503599	-2.376554
N	-0.524765	1.16608	0.712734
O	-0.336011	1.213064	1.928798
O	-1.103032	2.049434	0.07021
F	2.502165	0.0	0.0
