12

C	-0.540535	-0.066799	-1.40428
C	0.0	0.0	0.0
F	0.249434	0.616496	-2.311371
H	1.088259	0.0	0.0
H	-1.540544	0.372619	-1.480027
H	-0.315377	-0.850617	0.605028
C	-0.62898	-1.474894	-1.838024
N	-0.751981	-2.588379	-2.187776
N	-0.482057	1.199479	0.685443
O	-0.806215	2.179159	0.004587
O	-0.498103	1.18296	1.917275
F	2.497253	0.0	0.0
