12

C	-0.538381	0.040419	-1.406077
C	0.0	0.0	0.0
F	0.24502	0.80419	-2.252586
H	1.088258	0.0	0.0
H	-1.543593	0.472294	-1.448807
H	-0.314721	-0.895167	0.537501
C	-0.607361	-1.328971	-1.952161
N	-0.706801	-2.412151	-2.392516
N	-0.482294	1.143234	0.775078
O	-0.821735	2.167143	0.17042
O	-0.480105	1.03889	2.003004
F	2.497091	0.0	0.0
