12

C	-0.381556	0.041042	-1.464495
C	0.0	0.0	0.0
F	-0.066189	-1.193958	-2.017233
H	1.091531	0.0	0.0
H	0.209028	0.800535	-1.975714
H	-0.41905	-0.869104	0.503423
C	-1.819342	0.271519	-1.7153
N	-2.968279	0.401187	-1.919371
N	-0.464339	1.200509	0.68005
O	-0.65846	1.148881	1.894659
O	-0.578373	2.232477	0.003212
F	2.516156	0.0	0.0
