12

C	-0.457842	0.116008	-1.426889
C	0.0	0.0	0.0
F	0.040856	-0.88198	-2.242542
H	1.088968	0.0	0.0
H	-0.046135	1.063775	-1.795928
H	-0.302129	0.887594	0.558794
C	-1.926235	0.163338	-1.594834
N	-3.085966	0.2908	-1.731875
N	-0.567042	-1.153621	0.703809
O	-0.469329	-1.16243	1.930663
O	-1.072209	-2.062885	0.040692
F	2.526244	0.0	0.0
