12

C	-0.401985	-0.046537	-1.435993
C	0.0	0.0	0.0
F	-1.786545	-0.177791	-1.623597
H	1.092136	0.0	0.0
H	0.064214	-0.94694	-1.848206
H	-0.347895	-0.891313	0.520921
C	0.050375	1.084834	-2.263043
N	0.391162	1.899633	-3.035763
N	-0.538441	1.149078	0.725763
O	-0.717036	1.01447	1.938402
O	-0.744664	2.197592	0.109929
F	2.507218	0.0	0.0
