17

C	-0.425309	-0.015052	-1.433035
C	0.0	0.0	0.0
Br	0.295615	1.512716	-2.386249
H	1.094647	0.0	0.0
N	0.051598	-1.250159	-2.182878
O	-0.386037	-1.381156	-3.322919
O	0.886271	-1.959181	-1.629683
N	-1.948041	-0.050618	-1.575212
O	-2.439515	-1.161852	-1.368156
O	-2.56311	0.993261	-1.751436
C	-0.449838	-1.180806	0.863776
H	0.094448	-1.09959	1.809137
H	-1.523857	-1.170022	1.06471
H	-0.173117	-2.124538	0.400915
C	-0.442745	1.239941	0.615434
N	-0.816051	2.205423	1.175194
H	2.498662	0.0	0.0
