16

C	-0.500081	0.003979	-1.430565
C	0.0	0.0	0.0
F	-1.845229	-0.113794	-1.535745
H	1.089389	0.0	0.0
N	-0.086482	1.160178	-2.125924
H	0.925015	1.25052	-2.117684
H	-0.424479	1.14597	-3.082654
N	0.057351	-1.256341	-2.150954
O	1.211137	-1.577986	-1.874083
O	-0.638078	-1.782714	-3.019345
C	-0.43567	-1.155113	0.779086
N	-0.333866	-1.873706	1.717483
N	-0.465594	1.209888	0.752901
O	-1.646648	1.551052	0.661996
O	0.389534	1.7897	1.425817
Br	2.738892	0.0	0.0
