16

C	-0.641599	-0.02337	-1.387074
C	0.0	0.0	0.0
F	-0.127879	-1.137409	-2.034029
H	1.092931	0.0	0.0
N	-2.03809	-0.007425	-1.31573
H	-2.383622	-0.860261	-0.895117
H	-2.445315	0.15126	-2.227622
N	-0.184389	1.125725	-2.284454
O	-1.008251	1.535164	-3.102177
O	0.982952	1.460979	-2.186109
C	-0.464286	-1.189592	0.70446
N	-0.87938	-2.173651	1.193948
N	-0.436065	1.219103	0.766056
O	-0.578657	1.096499	1.978534
O	-0.55699	2.256955	0.123296
Br	3.323185	0.0	0.0
