18
Coordinates from ORCA-job run
  C   -0.68225536246337     -0.11547725455310     -0.49784501251881
  C   0.67393100747074     -0.35665855983932      0.19856239196993
  Br  -0.60771171126557     -0.52112188921209     -2.40779140589361
  H   0.70324809516304     -1.44506100362587      0.32603202939727
  N   -1.05502047004706      1.36337174589309     -0.42005072991654
  O   -2.24663979245853      1.64415050118677     -0.39501724632886
  O   -0.13536405246817      2.17751151502651     -0.41109066333335
  C   -1.78944710476415     -0.93265987970553      0.13254317409149
  H   -1.84521761150039     -0.67585971316271      1.19094026878225
  H   -1.55146246217507     -1.99201959607507      0.02368304899102
  H   -2.74510518719698     -0.73191928053423     -0.34553223998441
  N   0.53460368847125      0.22780434218965      1.53419119967384
  H   0.88269613129581      1.17933686281504      1.52560564811675
  H   1.08048549125865     -0.30049484462372      2.20231451277279
  C   1.94857174808765      0.04911062615991     -0.53854881425589
  H   1.95857874818187      1.11580938692073     -0.75471179372148
  H   2.07693303339915     -0.50059102415648     -1.47107614618365
  H   2.79817581101114     -0.18523193470360      0.10879177834126
