18
Coordinates from ORCA-job run
  C   -0.70040887169937     -0.25445743449680     -0.47474652576849
  C   0.70365301255966     -0.46075082931674      0.14247325619717
  Br  -0.77672586100818     -1.15409191955937     -2.19660727230658
  H   0.90203497782994     -1.52963037746822      0.01436686138741
  N   -0.87553649108961      1.24844899648908     -0.68820877955068
  O   -0.92539959437736      1.88755518473201      0.36370612132559
  O   -0.90092396445524      1.72838285757846     -1.81115736108758
  C   -1.83999846170485     -0.75043486246683      0.39188022290082
  H   -1.82762394572432     -0.22933076299579      1.34554692116407
  H   -1.70325720813696     -1.81635880269121      0.57779605980530
  H   -2.79372140522781     -0.59756314467746     -0.11677496934963
  N   0.65324150951380     -0.22069300036283      1.58120172898247
  H   1.50205891752831     -0.57914586350313      2.00232472386609
  H   0.60946850029013      0.77537788092986      1.76370495402624
  C   1.78163204408285      0.33549414909150     -0.59488248810848
  H   1.65717713893294      1.40692743313288     -0.41390448232319
  H   1.76941746569701      0.16042101181010     -1.67210946067211
  H   2.76391223698906      0.04784948377448     -0.21260951048843
