18
Coordinates from ORCA-job run
  C   -0.65340712117281      0.16213508638406     -0.32355015844431
  C   0.70393168061900      0.04448916325451      0.42151493268913
  Br  -0.42314998232595      0.98586795603788     -2.06498733653260
  H   0.43606870697868     -0.42080297107610      1.37738945378533
  N   -1.50290435105418      1.08120860765752      0.55397618176770
  O   -1.74638477574378      2.22863272316721      0.20833658885799
  O   -1.83019518687541      0.57007458395124      1.62435235766707
  C   -1.40162990093316     -1.14909537471109     -0.47975692194171
  H   -1.45772230927872     -1.65727170647910      0.48400893619332
  H   -0.88952297557055     -1.78609170145295     -1.19915062505110
  H   -2.41474346509981     -0.96864655425621     -0.84401912285824
  N   1.34532878302483      1.30546463314337      0.72869692044540
  H   0.79159121744041      1.86985556196616      1.36073442109838
  H   1.51247540513584      1.83936248266568     -0.11612481039864
  C   1.68704186202818     -0.86189459367553     -0.30461454499809
  H   1.99536729424903     -0.42333874503876     -1.25568916105138
  H   2.57224205890360     -0.96683426006703      0.32358684758048
  H   1.27561305967480     -1.85411489147087     -0.49570395880871
