16
Coordinates from ORCA-job run
  C   0.81445678335157      0.06557440885103      0.10978115729840
  C   -0.65147365186549     -0.24322120321452      0.44820318855431
  F   1.23601499080268      0.78182524729882      1.27215938909858
  H   -0.69449873323912     -0.94512125928652      1.27636137481096
  N   0.96555806052677      0.80128248303722     -1.07419654405093
  H   1.92383468159148      1.11244378375183     -1.17277100920764
  H   0.34027521621208      1.59527226057502     -1.09698751315198
  N   1.51345341762770     -1.16444105090433      0.03448262648851
  H   1.86897220797185     -1.45208796352964      0.93498318061135
  H   2.24144738516582     -1.15108566142150     -0.66379759330371
  N   -1.35790910725260     -0.88198274419223     -0.71103358408722
  O   -1.40661676332466     -2.10538229954710     -0.69442523373748
  O   -1.81164075415265     -0.13055774845579     -1.56674541462614
  N   -1.45138729967815      0.95198189826573      0.86397709150147
  O   -1.24455855739517      2.02137778645275      0.29914560167062
  O   -2.28492787634211      0.74312206231922      1.74186328213090
