16
Coordinates from ORCA-job run
  C   0.74210336403138      0.35125517330406     -0.07376109706037
  C   -0.78370676288417      0.25484575866366      0.07267362400828
  F   1.06451350907066      1.34825227016754      0.89777839927961
  H   -1.24193736539375      1.17884976675672     -0.26879733046376
  N   1.02568089076366      0.84706828844214     -1.37027691078139
  H   1.87051820675521      0.45346779856877     -1.75638228102138
  H   1.04333119125097      1.85663483775201     -1.39261224151101
  N   1.39737631275257     -0.86774081845171      0.15113500843164
  H   2.39826759892485     -0.72336431505495      0.19809434448829
  H   1.07178488709831     -1.31000379476860      0.99984741840577
  N   -1.25429014156842      0.04279141563244      1.47795869505168
  O   -2.30025566620872      0.61661062210187      1.77085077351400
  O   -0.59719463032459     -0.68813952536094      2.21238651008068
  N   -1.34503950162554     -0.85465714463246     -0.76685098471202
  O   -1.76949685311402     -0.52531815843051     -1.86718152587325
  O   -1.32165503952840     -1.98155217469002     -0.28486240183675
