16
Coordinates from ORCA-job run
  C   0.77938910042809      0.28790540784935      0.07109603115719
  C   -0.75492302529372      0.40650189777286      0.07377182067385
  F   1.22406539189976      1.30606057243128      0.91605853130231
  H   -1.06067460776401      1.42950881137825     -0.13664220364103
  N   1.21342883498291      0.51471211819280     -1.26623648107586
  H   1.10359258033465      1.48728875917001     -1.53003356403988
  H   2.18155802853937      0.24411179158567     -1.37944000235878
  N   1.20018375448890     -0.92970250079420      0.66589472062938
  H   0.93513027792614     -1.72236104620322      0.09777453006155
  H   2.19628101616667     -0.91328816890270      0.84133622083463
  N   -1.31565474803235      0.05279720347871      1.42318291055312
  O   -1.76559704076235     -1.07348918583837      1.57893106485397
  O   -1.24752204094634      0.95056148239378      2.25195131108104
  N   -1.39297155286336     -0.46901706887543     -0.95248628027993
  O   -2.34430724402781      0.02966632144062     -1.55015790196351
  O   -0.95097872507654     -1.60125639507941     -1.10500070778806
