16
Coordinates from ORCA-job run
  C   0.80311167000812      0.13097786920841      0.18254454058429
  C   -0.67050712684867     -0.16161302900131      0.51511482313940
  F   1.31524510806434      0.75887696519599      1.31873712228447
  H   -0.75496910132273     -0.66844929972785      1.47444337274202
  N   0.91202491511426      1.07349547437913     -0.87254060725682
  H   0.58066582299738      0.68299500281659     -1.74381628109028
  H   1.86313797945924      1.40858579820798     -0.95244253496860
  N   1.43994570510645     -1.12519034292211     -0.03137278396356
  H   2.34694076495520     -0.99819012204064     -0.46096126118889
  H   1.54858924466487     -1.63603579916645      0.83742315158303
  N   -1.31978654975526     -1.03290157488508     -0.50730571853590
  O   -1.07827203467099     -0.81965526807723     -1.68925077733156
  O   -2.07675708444953     -1.89236461882136     -0.06066845567299
  N   -1.45645621891273      1.11563674721566      0.62767600262282
  O   -1.32752499946221      1.69809922421523      1.69612351110858
  O   -2.12638809494774      1.46273297340305     -0.33470410405601
