16
Coordinates from ORCA-job run
  C   0.82033186842106      0.09348861596197      0.15816388473541
  C   -0.63700839550491     -0.20247360844633      0.56903892756989
  F   1.45893348712227      0.43476779870756      1.36092419352541
  H   -0.64714735137396     -0.59998756029438      1.58202361649308
  N   0.91426447334935      1.11961134113705     -0.80419228131860
  H   0.61732167319888      2.01230339076933     -0.43051616949709
  H   1.86386494911152      1.19135310659007     -1.14561239672088
  N   1.41245166859981     -1.14981595688760     -0.24177919700642
  H   2.38208881589093     -1.16594757381143      0.04387136847743
  H   1.32467009695928     -1.28252504831587     -1.24032990050436
  N   -1.27891240335190     -1.22114293848437     -0.31119158592322
  O   -1.11657845010194     -1.10277921126479     -1.51979813537781
  O   -1.94164339157218     -2.07942226423377      0.26338470145517
  N   -1.51543803757627      1.01846476878499      0.55724413253869
  O   -1.04445687905221      1.99497561626441      1.13145735160620
  O   -2.61474212411973      0.93812952352317      0.02731148994709
