16
Coordinates from ORCA-job run
  C   0.76489689680380      0.07647314377618      0.00863114855475
  C   -0.76460489037241      0.00694584059795     -0.17359747353084
  F   1.02641018943992     -0.04250049367616      1.37222489772815
  H   -1.02305269259665      0.19737578772974     -1.21431584298571
  N   1.25332617230989      1.28020308282598     -0.55188425692435
  H   2.26436943595008      1.29550134450594     -0.49208531135382
  H   0.87013623111243      2.08102095615855     -0.06554915529804
  N   1.32364231145261     -1.08251147764379     -0.62076747141453
  H   1.76615408490519     -0.85529539882885     -1.49874132160231
  H   1.95704964675635     -1.55708451132271      0.00574635297205
  N   -1.55726905204548      0.98178464783556      0.65654225580870
  O   -2.74917955266267      0.73017494767701      0.77565456072417
  O   -0.97571931088766      1.97030055268244      1.09207213453474
  N   -1.26784988877719     -1.36090901717979      0.15742968622083
  O   -1.22252701836390     -1.68858204970823      1.33686658955649
  O   -1.66578256302431     -2.03289735542981     -0.78622679299029
