16
Coordinates from ORCA-job run
  C   0.76239672346760      0.08692765682601     -0.01773512722493
  C   -0.75277472819557     -0.16774601040432     -0.15165995655207
  F   1.05437792904861      0.14372099681327      1.34341200327887
  H   -1.00768151478184     -0.35784384659539     -1.19350411827498
  N   1.02607238344901      1.39128393218395     -0.54913782951484
  H   1.44903793714133      1.33938604737365     -1.46416794427283
  H   1.59264957958275      1.92716628091196      0.09215457192083
  N   1.47616267821676     -0.92738024851186     -0.69937103173095
  H   1.28679085831355     -1.83316230779811     -0.28878722579725
  H   2.46891179850771     -0.73166484826509     -0.65008173850417
  N   -1.52198388650239      1.04115953266656      0.27215199219214
  O   -1.45822433144060      1.34250854473234      1.45710108055337
  O   -2.13340767189278      1.62772654544463     -0.61282459156035
  N   -1.27707161550908     -1.33347877317607      0.64522972552243
  O   -2.47076527139724     -1.30749966724594      0.91281834153777
  O   -0.49349086800780     -2.24110383495559      0.90440184842697
