15

C	-0.576011	-0.036533	-1.533046
C	0.07662	-0.07215	-0.167548
Br	0.051219	-1.468301	-2.673055
H	1.1603	-0.102485	-0.290727
H	-0.227272	-1.01773	0.303729
N	-2.096971	-0.159088	-1.491265
O	-2.691791	-0.116473	-2.560997
O	-2.61084	-0.305468	-0.387207
N	-0.278604	1.308791	-2.185201
O	-1.181655	2.132071	-2.201402
O	0.869173	1.466507	-2.56887
N	-0.204051	1.142485	0.551173
H	0.717171	1.234187	1.091022
H	-0.982671	0.992921	1.179741
F	2.125115	0.770554	1.437388
