15

C	-0.615109	0.055578	-1.515085
C	0.037335	0.080526	-0.149469
Br	-0.265867	1.674787	-2.514875
H	1.103629	0.312999	-0.265767
H	-0.42252	0.910384	0.405639
N	-0.092166	-1.149642	-2.288432
O	-0.834514	-2.115752	-2.383462
O	1.060145	-1.064461	-2.68137
N	-2.133283	-0.097251	-1.468159
O	-2.651506	-0.142585	-0.357423
O	-2.724134	-0.148529	-2.539721
N	-0.016628	-1.225429	0.452415
H	0.915741	-1.204157	0.981637
H	-0.797506	-1.270771	1.094326
F	2.22241	-0.539156	1.380757
