15

C	-0.41731	0.024018	-1.531851
C	0.124426	0.064287	-0.117996
Br	-2.338303	0.176756	-1.58878
H	1.218773	0.111796	-0.159803
H	-0.225801	0.99281	0.348835
N	0.11027	1.129428	-2.436854
O	0.101206	0.918646	-3.644826
O	0.470323	2.161346	-1.883665
N	0.049173	-1.268213	-2.192067
O	-0.758346	-2.115904	-2.526159
O	1.266698	-1.316437	-2.315204
N	-0.210769	-1.173319	0.545009
H	-1.062261	-1.040946	1.079217
H	0.628645	-1.225713	1.229567
F	1.874622	-0.760835	1.868171
