12
Coordinates from ORCA-job run
  C   0.07471480338535     -0.75366300702217      0.41998587414234
  C   -0.52881939389106      0.33666525894661     -0.47357261154091
  F   -0.14469985649983     -0.48527817359353      1.71602769845135
  H   -0.27261095095171      0.09331098085888     -1.51072110159709
  H   -0.30965046167744     -1.74240700475458      0.16218179510567
  N   1.56612365196834     -0.79084170599981      0.15163360272708
  O   2.32349994989295     -0.56496148677320      1.08061037571870
  O   1.85190200695407     -1.05582813593571     -1.01143043769440
  C   0.04582197818881      1.64316362424076     -0.13607916870776
  N   0.53321972780964      2.67642906735047      0.13284732677314
  C   -1.98649241726095      0.34001091597270     -0.32376117646492
  N   -3.15400903791819      0.30439966670958     -0.20872217691320
