12
Coordinates from ORCA-job run
  C   0.45018796200460     -0.18889676616602      0.70811100383875
  C   -0.23976773651949      0.64101329350449     -0.37894543023227
  F   1.49572194303198      0.51537258273754      1.19498358335446
  H   0.52524728851542      0.86233332461244     -1.13309847258610
  H   -0.21341826304112     -0.50108825245297      1.51405982749393
  N   0.98729030647047     -1.43988911349352      0.05942384077083
  O   1.79744882273084     -1.26331738358343     -0.84420078288998
  O   0.56461973861034     -2.50782764887439      0.48999150397547
  C   -0.73787781876040      1.89295179207351      0.19543207457043
  N   -1.12988673976938      2.89193590277052      0.67074433965691
  C   -1.32113764080719     -0.13046836345222     -0.99676962249244
  N   -2.17742786246609     -0.77211936767595     -1.47973186546000
