12
Coordinates from ORCA-job run
  C   0.36549987289798     -0.20994623689588      0.75042155151051
  C   -0.19309198097026      0.65302447046964     -0.38539409378503
  F   1.34850882951452      0.47472835079228      1.37485481559073
  H   0.65392189792833      0.89278791899100     -1.03979371882860
  H   -0.38780271924112     -0.54198918135266      1.46433807513071
  N   0.97116699975786     -1.44534967954653      0.13197793933306
  O   1.88075301872083     -1.24764395810050     -0.66650837345860
  O   0.49818020186512     -2.52241418863496      0.47918114169408
  C   -0.75418796410999      1.88991654638776      0.16264859948693
  N   -1.19757031807782      2.87573806203386      0.61996906107600
  C   -1.19520211415060     -0.09743714025325     -1.14650823897129
  N   -1.98917572413483     -0.72141496389075     -1.74518675877849
