12
Coordinates from ORCA-job run
  C   0.39374486541733     -0.21452779405886      0.73452327363622
  C   -0.22147445277149      0.65486311898007     -0.36650027258726
  F   1.37843366640135      0.48421909800335      1.34124968028505
  H   0.59870622445231      0.92901304231943     -1.04127646112879
  H   -0.32791830731898     -0.57819940030107      1.46552108561014
  N   1.01107556882959     -1.42186422978941      0.07500840571505
  O   1.88958390538658     -1.18623504729808     -0.74750888822229
  O   0.57701824465062     -2.51713739937959      0.41606233871813
  C   -0.79689590367935      1.86608664089472      0.22270699703879
  N   -1.25132544706946      2.83208876724072      0.71044937998966
  C   -1.22695923890632     -0.10666588759877     -1.11197086295955
  N   -2.02298912539218     -0.74064090901251     -1.69726467609515
