12
Coordinates from ORCA-job run
  C   0.44908523008262     -0.18186058443570      0.70998421135068
  C   -0.24034552232942      0.63923518824123     -0.38416602342378
  F   1.49061558520393      0.52940293163232      1.19563138098589
  H   0.52664748398012      0.86314652840277     -1.13545928163042
  H   -0.21604935381780     -0.49123207367323      1.51587807175352
  N   0.99252504973578     -1.43515549430258      0.07127945845396
  O   1.80656970852823     -1.26168635391304     -0.82946494103142
  O   0.57011023125931     -2.50164081805085      0.50578960915136
  C   -0.75022346827626      1.88866410000847      0.18486029877831
  N   -1.15295136019247      2.88418465279095      0.65846902444219
  C   -1.31343928051734     -0.14167053206049     -1.00466742014698
  N   -2.16254430365671     -0.79238754463984     -1.48813438868331
