12
Coordinates from ORCA-job run
  C   0.28073490933170     -0.41480156814670      0.85363274489273
  C   -0.71020717166665      0.52906408333624      0.15399884640625
  F   0.94524511458976      0.28057139948179      1.79591926128118
  H   -1.30146108713434      0.98631210668369      0.95775872852468
  H   -0.22036882460390     -1.27897017270271      1.29125277880918
  N   1.26465737004425     -0.95249042228068     -0.15971146633539
  O   0.79703553514323     -1.81115105879509     -0.89980997231604
  O   2.39130754270562     -0.48132153112043     -0.16464195238541
  C   -1.62621871538398     -0.18259205138220     -0.74065413885933
  N   -2.40027384643860     -0.73400367520457     -1.42962433442088
  C   0.00451113453503      1.59977103657008     -0.55006762712513
  N   0.57603803887788      2.46061185356058     -1.10705286847186
