12
Coordinates from ORCA-job run
  C   0.25606287653165     -0.40021447606287      0.86807969462004
  C   -0.72498604792192      0.51764348805093      0.12146610371327
  F   0.87253967737021      0.31720253213984      1.82644687239655
  H   -1.35595246510907      0.96983164575983      0.89746362952480
  H   -0.24631106434012     -1.26823178786877      1.29667540968253
  N   1.28641180932664     -0.93133562165849     -0.10128278592639
  O   2.40177648281098     -0.43450234733722     -0.07496766182580
  O   0.86453661622618     -1.81213812257578     -0.84291516716715
  C   -1.59142526714123     -0.22115109032642     -0.80039244794860
  N   -2.32678163045821     -0.79507281266768     -1.51295569093222
  C   -0.00546168720482      1.59554208661414     -0.56612259843997
  N   0.57059069990970      2.46142650593249     -1.11049535769705
