12
Coordinates from ORCA-job run
  C   0.20448269543492     -0.38676344773133      0.88799338286063
  C   -0.70534539771907      0.55128728846947      0.07910651687781
  F   0.81381417818977      0.32985075362582      1.85162298481126
  H   -1.34481399790915      1.05231370766291      0.81716602556288
  H   -0.35145270686737     -1.22066027758223      1.31830586234222
  N   1.24781599614245     -0.98804231840211     -0.02493839874222
  O   0.81621246800917     -1.86743434334313     -0.76265349076028
  O   2.38284774916159     -0.54146080633761      0.03609984848533
  C   -1.56815403002198     -0.17413900633505     -0.85670232196630
  N   -2.30247512871836     -0.73205859578584     -1.58297330572785
  C   0.08759516717383      1.57663008509793     -0.60833617142757
  N   0.72147300712420      2.40047696066119     -1.15369093231591
