12
Coordinates from ORCA-job run
  C   0.48779295692960     -0.19039748582511      0.68343899667755
  C   -0.28422700894491      0.64203381453726     -0.34511709440539
  F   1.51712506667214      0.54666934685204      1.15547351221922
  H   0.43888191789537      0.92985080812389     -1.11791095722701
  H   -0.12755885854835     -0.56300897313696      1.50194563673125
  N   1.05633031177677     -1.39038261860117     -0.03187387371207
  O   1.82017592748875     -1.14280643111395     -0.95877310180091
  O   0.70023849715716     -2.49190137875950      0.37342950907647
  C   -0.82235946902253      1.84449082435699      0.29496013787540
  N   -1.24743149708251      2.80205842143139      0.82405942437176
  C   -1.34874545080800     -0.16096580359827     -0.95203598013592
  N   -2.19122239351348     -0.82664052426661     -1.42659620967035
