12
Coordinates from ORCA-job run
  C   0.36512193351894     -0.24388571445466      0.72569891781757
  C   -0.27838418990349      0.56818048371848     -0.41668585455010
  F   1.14525216855437      0.55909033303099      1.46949377481677
  H   0.49398020940063      0.77804694759327     -1.16729611788169
  H   -0.37879299217670     -0.73982550194547      1.35274015694507
  N   1.23108981743387     -1.33620752985072      0.12657359172515
  O   2.36855778450446     -1.45193932506702      0.55356570533671
  O   0.67796971426837     -2.01315137070331     -0.73242787674707
  C   -0.76338967653803      1.84538897951503      0.12092117929209
  N   -1.15469527636216      2.86433187084414      0.55225887786122
  C   -1.38955263509141     -0.14821294316841     -1.05005679779415
  N   -2.31615685760885     -0.68081622951232     -1.53578555682156
