12
Coordinates from ORCA-job run
  C   0.35235392128414     -0.23522384072089      0.74917266345453
  C   -0.19999611017240      0.66516312574296     -0.36051322660226
  F   1.30328720843767      0.44407948422487      1.42751979554432
  H   0.65685000082147      0.95468467354919     -0.98101589773849
  H   -0.40909457924713     -0.61591502703480      1.42937630972027
  N   1.00289347627902     -1.42646110515381      0.09197123584954
  O   0.54783755087802     -2.52900182253968      0.37791762830595
  O   1.92664479297297     -1.17155235732416     -0.67326363275561
  C   -0.80528753358897      1.86177223686055      0.22855969690780
  N   -1.28461457754145      2.81538543944458      0.71684191614556
  C   -1.16400066234055     -0.07348529600970     -1.17999611664939
  N   -1.92687348778278     -0.68944551103910     -1.82557037218222
