12
Coordinates from ORCA-job run
  C   0.74589814058211     -0.09523978170672      0.43300085816990
  C   -0.63690870526724      0.45434343073376      0.06257251962448
  F   1.69916283762661      0.44997140878462     -0.33792686455420
  H   -1.37527110351860     -0.06157692604174      0.68629514974544
  H   0.97089234860268      0.06200148129844      1.48960496802193
  N   0.71292888873122     -1.59538709494286      0.21988308713418
  O   1.48595351474804     -2.07870531879500     -0.59025420783002
  O   -0.11789751995901     -2.17387569746988      0.91238636375333
  C   -0.93093188147782      0.17919375702229     -1.34780403078121
  N   -1.16290302394938     -0.06790854830953     -2.47153242118395
  C   -0.68381898684379      1.89159166768353      0.34456140864235
  N   -0.70810450927484      3.03659162174311      0.60121316925777
