12
Coordinates from ORCA-job run
  C   0.20678774910298     -0.35935199054267      0.89823234057228
  C   -0.70003592658199      0.56049047977773      0.06533224772939
  F   0.82972778370483      0.38230293706962      1.83372468357314
  H   -1.33044586829950      1.09052230717207      0.79088399756069
  H   -0.35405308205923     -1.17324101356802      1.35926930884278
  N   1.23787374217881     -0.99991658598585     -0.00185683477078
  O   0.79366934190088     -1.90124972365159     -0.70480540884428
  O   2.37662991500651     -0.56001660565079      0.03437087042388
  C   -1.57493434905301     -0.18766285729185     -0.84085442114020
  N   -2.31668508722873     -0.76569337611407     -1.54337012622206
  C   0.09701485980662      1.55666270956564     -0.65907370021862
  N   0.73445092152183      2.35815371921977     -1.23285295750622
