12
Coordinates from ORCA-job run
  C   0.45548132686428     -0.20911025955150      0.69966641662718
  C   -0.26025273957039      0.65233195587702     -0.34573152977280
  F   1.47539606905046      0.50393794165878      1.22630314585106
  H   0.49860977647613      0.94084096810258     -1.08329926508534
  H   -0.19905674532845     -0.58440220134547      1.48587253241718
  N   1.03496849338588     -1.40586169428130     -0.01129408755283
  O   0.64265357992978     -2.50796967928953      0.35740275975498
  O   1.84314706597759     -1.15560747986636     -0.89902979462294
  C   -0.80627105651889      1.85233469771364      0.29228691969495
  N   -1.23527841502125      2.80920909094345      0.81945928237546
  C   -1.30984594409524     -0.12440169125691     -1.01040227450813
  N   -2.13955141114991     -0.77130164870441     -1.53123410517879
