12
Coordinates from ORCA-job run
  C   0.46467405836902     -0.20734506586555      0.69406273857432
  C   -0.27615278673922      0.65012629510143     -0.33675905543810
  F   1.47473286630240      0.52020082341004      1.21996580975098
  H   0.47114145788334      0.95983750892798     -1.07750792787385
  H   -0.17565974427299     -0.60407735362816      1.48148779132008
  N   1.06258316850013     -1.38515510409683     -0.03383822847239
  O   0.69886053942564     -2.49874687740675      0.32954001714615
  O   1.85613889219751     -1.10948759862446     -0.92724720807290
  C   -0.83883144922894      1.83413791623758      0.31653522238730
  N   -1.28211425710935      2.77777957125285      0.85562096538500
  C   -1.31640153825438     -0.14003222869583     -1.00001994855345
  N   -2.13797120707317     -0.79723788661228     -1.52084017615312
