12
Coordinates from ORCA-job run
  C   0.70257145092765     -0.04835567548270      0.50898629368305
  C   -0.66389763411543      0.42009593377252     -0.00589289098599
  F   1.69720586786142      0.54200456828819     -0.17090920779636
  H   -1.43271408559971     -0.12350324309470      0.55432771365810
  H   0.81067886516249      0.13028288857682      1.58050545183650
  N   0.77247727324351     -1.54994740421817      0.31435272175970
  O   1.64687508045948     -1.99620379404472     -0.40921781883052
  O   -0.09183623109716     -2.16755618786997      0.92749853039508
  C   -0.80420320725692      0.10543115809812     -1.43156334435159
  N   -0.91198792190721     -0.17508530458576     -2.56616181015704
  C   -0.81059374836588      1.85760269039174      0.23728281633033
  N   -0.91357570931223      3.00523437016863      0.46079154445875
