12
Coordinates from ORCA-job run
  C   0.19341399886242     -0.55432680472589      0.63800047570121
  C   -0.63307962879928      0.16903236254023     -0.43209964230345
  F   0.26478444275587      0.17548121422322      1.76138840462477
  H   -0.61150893250451     -0.44674255168646     -1.33809202286200
  H   -0.20582115062146     -1.54803781453514      0.84999896683656
  N   1.58550323312626     -0.76360524805956      0.07565327546984
  O   1.60858881923798     -1.44672370189163     -0.94285109286825
  O   2.52574275527841     -0.25553669699968      0.66329332447845
  C   -0.04056506266873      1.47671247824548     -0.73213125929737
  N   0.45843477392495      2.51036431416409     -0.97743244110842
  C   -2.01770816505170      0.30431051441270      0.02804979904788
  N   -3.12678508354020      0.37707193431263      0.40522221228077
