12
Coordinates from ORCA-job run
  C   0.40347543129638     -0.19727434267537      0.73311016309473
  C   -0.21439879121613      0.64647292150256     -0.38618163684312
  F   1.41692218919360      0.49949533823038      1.29346881730602
  H   0.59826517583000      0.87686873716794     -1.08579352973946
  H   -0.31035402872113     -0.51674887595612      1.49191149900720
  N   0.97889746945191     -1.44232537603926      0.10612828676477
  O   1.84556740322512     -1.25721180766400     -0.74152800873741
  O   0.52666924014875     -2.51369714611522      0.49573248251534
  C   -0.74921427124778      1.89110210165234      0.17083898229753
  N   -1.17090387574834      2.88319482989660      0.63514177931935
  C   -1.25241844000068     -0.11671552749704     -1.08352329977276
  N   -2.07350873697028     -0.75316073762378     -1.63030656016014
