12
Coordinates from ORCA-job run
  C   0.12175693899685     -0.38357501148189      0.76784147923004
  C   -0.60657304647531      0.11789328961835     -0.48512895341984
  F   0.27462809746167      0.60689140717601      1.65988487980126
  H   -0.65684067636293     -0.71537772776708     -1.19467446028294
  H   -0.39512417596946     -1.23188269472702      1.22071585160041
  N   1.48112185095098     -0.89311656415357      0.33253645531967
  O   2.47276389411186     -0.35646352401147      0.79757324983531
  O   1.42701400984099     -1.82215011571750     -0.46659677058910
  C   0.14117163993122      1.22056634475467     -1.09844183571868
  N   0.76106137624901      2.08844624481105     -1.58861733210749
  C   -1.96551427856016      0.53266009130323     -0.12632103569083
  N   -3.05646563017474      0.83610826019523      0.18222847202220
