12
Coordinates from ORCA-job run
  C   0.18583843483366     -0.53706199010787      0.65841293525225
  C   -0.63641966785135      0.16684677831353     -0.42769332579134
  F   0.29700072501599      0.23467031076942      1.75001393337304
  H   -0.65903378208112     -0.49111342254739     -1.30363385513454
  H   -0.23890277306672     -1.50888754279255      0.91638245091993
  N   1.56113369939514     -0.80923009489763      0.08348391438159
  O   1.54814335253385     -1.54061771662056     -0.90097957827640
  O   2.52429064479039     -0.29591178799372      0.62780393734243
  C   -0.00231017081662      1.43547949860703     -0.80252457923224
  N   0.52391616262899      2.44002369380044     -1.10515412971976
  C   -2.00379590217886      0.38089120917568      0.05425052822688
  N   -3.09886072320335      0.52591106429360      0.45063776865816
