12
Coordinates from ORCA-job run
  C   0.68187126946148     -0.08608919861338      0.52769644995905
  C   -0.65423128243953      0.43217174141652     -0.01770147210300
  F   1.71367947660506      0.50974295515272     -0.08896008312589
  H   -1.45342655332042     -0.12777690244095      0.48062002383885
  H   0.75212017673473      0.04639688666116      1.60908444167338
  N   0.72987745295897     -1.58005939097183      0.27549109777017
  O   -0.16869137899757     -2.20321698501424      0.83108150023524
  O   1.62499414832495     -2.01603144387227     -0.42891601125340
  C   -0.73856685878153      0.19651546893144     -1.46275811707266
  N   -0.80104601558204     -0.01642581574650     -2.61529390665386
  C   -0.79237826545884      1.85614302369721      0.29928546276908
  N   -0.89420216950526      2.98862966080013      0.59037061396303
