12
Coordinates from ORCA-job run
  C   0.22315110715053     -0.34765377027687      0.89917154883924
  C   -0.70945229519710      0.54959729435709      0.07024223500609
  F   0.85271450409375      0.41427991168332      1.81383445737659
  H   -1.35286582183640      1.06156046600450      0.79728288545858
  H   -0.31952723119195     -1.16205772580870      1.38003545962466
  N   1.24634759380271     -0.98733065511006     -0.00963088879106
  O   2.36200207285255     -0.49070075718501     -0.04527163444498
  O   0.82073440255701     -1.94418828105504     -0.64766710649768
  C   -1.56292289816152     -0.22435187501395     -0.83493722455247
  N   -2.28316027958451     -0.82929356478883     -1.53709804889465
  C   0.05759035489323      1.56791278412828     -0.65593933977024
  N   0.66438849062171      2.39122617306526     -1.23202234335408
