12
Coordinates from ORCA-job run
  C   0.43509608099137     -0.20954665186809      0.71127965194535
  C   -0.25515415299826      0.65243554631807     -0.35088322614017
  F   1.43167550335970      0.50866575820957      1.27419139065983
  H   0.52400983483409      0.95315330825271     -1.06170330392741
  H   -0.24086418606215     -0.59529684850506      1.47403303538796
  N   1.04773361057132     -1.39685912887745      0.01213224882031
  O   1.88092884334090     -1.13375771820788     -0.84834616920896
  O   0.65557486059317     -2.50469136285296      0.36337918779409
  C   -0.83118203631730      1.84313297115204      0.27807806715550
  N   -1.28552098349863      2.79143573744345      0.79951900405167
  C   -1.27692846811472     -0.12948111141064     -1.05147192917601
  N   -2.08536890669948     -0.78019049965376     -1.60020795736218
