12
Coordinates from ORCA-job run
  C   0.24829087465799     -0.34294305537133      0.89457581087997
  C   -0.72536139999735      0.52486198377149      0.08123413142320
  F   0.85667587684089      0.43468734275452      1.81018995235201
  H   -1.36189524941972      1.02854112110366      0.81998426829588
  H   -0.25769193122966     -1.18187335318462      1.37380454521097
  N   1.28695747166720     -0.93497084905940     -0.03016471169103
  O   0.87057373856712     -1.86042070028828     -0.71869371729738
  O   2.40281521684290     -0.43848370874409     -0.02450634798339
  C   -1.58582868456325     -0.27310401402112     -0.79586072338283
  N   -2.31715016915627     -0.89259667839411     -1.47354563493029
  C   0.00124024096390      1.55384411401256     -0.67068185239299
  N   0.58137401482625      2.38245779742071     -1.26633572048413
