12
Coordinates from ORCA-job run
  C   0.26963413862588     -0.33502712651147      0.89197255671119
  C   -0.73019562632717      0.51700128677312      0.09447184468767
  F   0.89351446273107      0.45689346891652      1.78493238404763
  H   -1.36650972367951      1.00653968952823      0.84289979779526
  H   -0.21819876002988     -1.17268116060711      1.39147446166022
  N   1.29019162106183     -0.92863641853562     -0.05056867935567
  O   0.88218040056512     -1.89604863963648     -0.68429571205248
  O   2.38528547455809     -0.39052426284594     -0.11290792575729
  C   -1.58470936735963     -0.29523834088558     -0.77538770516984
  N   -2.30758222785086     -0.92786350516141     -1.44997852168107
  C   -0.03376008655035      1.56216887535181     -0.66413265727453
  N   0.51914969425540      2.40441613361392     -1.26647984361111
