12
Coordinates from ORCA-job run
  C   0.23870349515062     -0.36578672774380      0.88921030086237
  C   -0.73129383228148      0.51674854504393      0.08751396428958
  F   0.82982118356015      0.39115591265446      1.83307324822786
  H   -1.38554917357787      0.98958507003171      0.83106223083519
  H   -0.26840191329812     -1.22017203689474      1.33925889941245
  N   1.29305902738376     -0.92601046130897     -0.03707201756901
  O   0.89339068872505     -1.83892941224097     -0.75194561213151
  O   2.40364208241800     -0.41867110690037     -0.00810795993982
  C   -1.56718079549689     -0.26169479781626     -0.82997391299222
  N   -2.27591205454594     -0.86688293593018     -1.54366058144081
  C   -0.00408366853984      1.57581030743560     -0.62104947591237
  N   0.57580496050255      2.42484764366962     -1.18730908364170
