17

C	0.0	0.0	0.0
C	-0.575484	-0.293226	-1.376791
Br	1.94182	0.0	0.0
H	-1.656177	-0.390308	-1.204337
H	-0.434277	0.634674	-1.942051
C	-0.515122	1.315306	0.541556
H	-0.204748	2.119114	-0.128433
H	-0.12982	1.504296	1.541368
H	-1.60914	1.2496	0.561585
N	-0.354667	-1.103079	1.006733
O	-0.623347	-2.213785	0.565749
O	-0.300187	-0.808067	2.195193
C	-0.036115	-1.459398	-2.196898
H	-0.297808	-2.414574	-1.747744
H	1.049735	-1.409468	-2.313785
H	-0.483372	-1.417004	-3.194435
Cl	-3.835269	0.0	0.0
