17

C	0.0	0.0	0.0
C	-0.448571	-0.427947	-1.390761
Br	1.954813	0.0	0.0
H	-0.083828	-1.441071	-1.563748
H	0.083485	0.224191	-2.089959
C	-0.530463	1.343069	0.439304
H	-0.278875	2.085778	-0.320071
H	-0.101916	1.63872	1.394556
H	-1.618789	1.284311	0.538059
N	-0.370238	-1.054904	1.044915
O	-0.526221	-2.206303	0.659285
O	-0.43955	-0.675791	2.208744
C	-1.952584	-0.33333	-1.624661
H	-2.190955	-0.80427	-2.583965
H	-2.55951	-0.822429	-0.863626
H	-2.299246	0.697623	-1.662828
Cl	-4.95783	0.0	0.0
