12
Coordinates from ORCA-job run
  C   0.95922731294345     -0.28477480976116     -0.00704852438300
  C   -0.34600525935210      0.48665865120194     -0.09032646445464
  F   1.09174383726678     -0.84617835863801      1.25472456218562
  H   -0.31141074230378      1.28504692603563      0.65641192787882
  H   0.97408806101595     -1.10819732715976     -0.72840092168083
  H   -0.39621987157848      0.96383848993817     -1.07408878401305
  C   2.12095573172591      0.58341421096059     -0.25828473325984
  N   3.03956398092711      1.27771210623664     -0.48324177949772
  C   -1.55132812382636     -0.41806148375083      0.13943396634454
  H   -1.60085442968535     -1.20866070280223     -0.61374633789367
  H   -2.47764636878003      0.15618329332267      0.08263586701767
  H   -1.50211412835309     -0.88598099558366      1.12293122175612
