12
Coordinates from ORCA-job run
  C   0.95669621419789      0.04461774227971      0.29640707512652
  C   -0.34212350126736      0.06829996958865     -0.49005631574411
  F   0.87486352760475      0.93018621271448      1.36166465776808
  H   -0.48052697868238      1.08230960847771     -0.87592319620843
  H   1.14195305482328     -0.94844335363507      0.71834068820611
  H   -0.22837394960434     -0.59494447944193     -1.35328312229369
  C   2.10448427355644      0.42528607066044     -0.54238468428824
  N   3.00249174473498      0.71852932611602     -1.23823385495366
  C   -1.52957609942682     -0.35145996355610      0.36869624781359
  H   -1.64217527474576      0.31409514215910      1.22487029607824
  H   -1.40658554917995     -1.37154848924957      0.74165250715043
  H   -2.45312746201074     -0.31692778611344     -0.21175029865484
