12
Coordinates from ORCA-job run
  C   1.08632251620075     -0.39604080307376      0.08336708204584
  C   -0.29704653975437     -0.55864433376347     -0.52342113768424
  F   1.07948351090123     -0.85665857625401      1.39235026170232
  H   -0.52657643534119     -1.62835293585713     -0.50586191244834
  H   1.82716420428049     -0.98779441503611     -0.46205961257747
  H   -0.24345537442375     -0.25445390997044     -1.57378116739752
  C   1.51767781007816      1.01244497889235      0.08600265838566
  N   1.84434939342046      2.13894857410843      0.05868401499168
  C   -1.36574558052487      0.23335705470949      0.22049019799079
  H   -1.17321719930633      1.30698127167002      0.16713530632056
  H   -2.34919980165439      0.04617850481231     -0.21400897186452
  H   -1.39875650387620     -0.05696541023768      1.27110328053524
