12
Coordinates from ORCA-job run
  C   1.09636480540344     -0.17281750201160     -0.26819056834209
  C   -0.32115033659030     -0.71079592732035     -0.19260609531445
  F   1.99260600816315     -1.22496210654754     -0.37026928201414
  H   -0.38520151836018     -1.36942306414847      0.67766103698210
  H   1.22832177353296      0.45418100267343     -1.15577705849697
  H   -0.47340407050199     -1.32759347414141     -1.08286178925610
  C   1.43674888306122      0.62364688876985      0.92274081096301
  N   1.67378319831320      1.26416566370847      1.87691898432128
  C   -1.35880533038814      0.40421035102482     -0.11597593573269
  H   -1.23928131786684      0.99897208609570      0.79173071767942
  H   -2.36629876200058     -0.01432639301489     -0.11021854389733
  H   -1.28368333276595      1.07574247491200     -0.97515227689204
