14
Coordinates from ORCA-job run
  C   -0.78997790190502      0.31903054776228      0.07160386648497
  C   0.38070441289752     -0.54170251140133     -0.42151581795323
  Br  -0.91413314453125      1.92648253843128     -1.07090946899854
  H   0.15954980778907     -0.81420335174627     -1.45905910586101
  H   0.33736285614486     -1.46389736811708      0.17212076076627
  C   -0.53568970088031      0.77940206884369      1.43996837335676
  N   -0.29853220809397      1.08291009004791      2.55003620608949
  N   -2.08672835726135     -0.31779669462404      0.03603855718270
  H   -2.25400517958035     -0.69909019051764     -0.88869705037386
  H   -2.11623653279052     -1.07059142058749      0.71622930835424
  C   1.76319932164291      0.08608108286899     -0.30745580974790
  H   1.84444530827785      0.97981482215616     -0.92652694681820
  H   2.52224496845825     -0.62596461397696     -0.63840269417679
  H   1.98879634983232      0.35952500086049      0.72556982169510
