14
Coordinates from ORCA-job run
  C   -0.69725788181243      0.37648595660287      0.16630163646251
  C   0.79307066370302      0.09693100935071      0.37207912534109
  Br  -0.94516513413793      1.92893487123196     -1.02149452350313
  H   0.85306832847410     -0.70379589703911      1.12130286598227
  H   1.24507885952223      0.98317679745181      0.82460907669573
  C   -1.30187591289335      0.76801701648691      1.45140802030292
  N   -1.76964889784930      1.00677560197549      2.50381948317524
  N   -1.34552088304927     -0.75216107830635     -0.45763862409957
  H   -2.33983967630379     -0.58445645231241     -0.56028847571506
  H   -1.21396473427496     -1.57505875689978      0.12306937518000
  C   1.53499892147719     -0.31111612836784     -0.89400725913860
  H   1.08178991482767     -1.18935419243768     -1.35230137802101
  H   2.57418329817293     -0.54170368876465     -0.64913799606447
  H   1.53108313414388      0.49532494102807     -1.62772132659795
