16

C	0.0	0.0	0.0
C	-0.533907	-0.217178	-1.431894
Cl	1.787251	0.0	0.0
H	-1.608113	-0.438518	-1.285661
C	-0.40459	1.324543	0.493138
N	-0.507837	2.431362	0.877333
C	-0.424417	-1.018458	0.973246
N	-0.587077	-1.812368	1.824123
N	0.086083	-1.444806	-2.024929
O	0.279345	-2.397059	-1.274709
O	0.304081	-1.450815	-3.235287
C	-0.362668	0.989417	-2.329159
H	-0.760295	0.762538	-3.317167
H	-0.942484	1.815053	-1.913766
H	0.685169	1.282476	-2.426952
Cl	-3.274729	0.0	0.0
