16

C	0.0	0.0	0.0
C	-0.472111	-0.59292	-1.348597
Cl	1.789615	0.0	0.0
H	-0.088822	-1.614107	-1.397726
C	-0.472559	1.36196	0.255108
N	-0.802379	2.459184	0.51582
C	-0.442788	-0.898692	1.069894
N	-0.690569	-1.695922	1.897173
N	0.222058	0.12087	-2.470862
O	0.173695	1.347506	-2.474102
O	0.751943	-0.583724	-3.327685
C	-1.96644	-0.515896	-1.559422
H	-2.327253	0.51209	-1.550917
H	-2.529663	-1.027378	-0.777029
H	-2.212756	-0.979668	-2.51808
Cl	-4.799428	0.0	0.0
