15
Coordinates from ORCA-job run
  C   -0.91575451961794      0.43920905647225     -0.34448092482586
  C   0.34579639817378      0.07889094452317      0.43767223443602
  H   -0.64802637995945      0.53087545722860     -1.39925164042242
  H   0.10654957622807     -0.06666776908848      1.49305482248958
  H   -1.27443272013774      1.42336589872769     -0.00968186231184
  N   -1.88838422661298     -0.63728581940071     -0.18521359967936
  H   -2.56087462245810     -0.61562338508127     -0.94000176262946
  H   -2.40008441714234     -0.51831116454278      0.68006975203352
  N   1.24835265006034      1.27311409311487      0.41971090935652
  O   1.63368666359817      1.65883424962846     -0.68312677989119
  O   1.53282792995417      1.79634772075373      1.49600808485595
  C   1.07638114053956     -1.11891388590214     -0.13412424755438
  H   0.39487918539819     -1.96900749593648     -0.13746850723921
  H   1.39191948904606     -0.91002974780124     -1.15759481578916
  H   1.95616385293022     -1.36479815269564      0.46442833717127
