15
Coordinates from ORCA-job run
  C   -1.09420902030614      0.04612557621616      0.38648822607578
  C   0.40674401225509     -0.11408262893354      0.60817571032106
  H   -1.45441150702437      0.82223043349170      1.06259906203397
  H   0.59443720558207     -0.31466135993807      1.66801688735638
  H   -1.57782480736647     -0.89639979351144      0.67867788410598
  N   -1.35307918714495      0.44399724239251     -0.99194948277680
  H   -1.56634547373392     -0.35362122622556     -1.57414475802793
  H   -2.13246247014800      1.08375294276662     -1.04258698798048
  N   1.03396420299156      1.23793557690091      0.37393124252385
  O   1.90408428303896      1.34628665925103     -0.48353320858541
  O   0.61655194552982      2.15347505383063      1.08003763977001
  C   1.03995134925289     -1.16389634073787     -0.27697256928030
  H   2.11080460289073     -1.24772533254269     -0.09368043842721
  H   0.89573682238731     -0.91045763079335     -1.32648810585147
  H   0.57605804179543     -2.13195917216705     -0.06857110125741
