15
Coordinates from ORCA-job run
  C   -1.00870688969938     -0.24125882010852     -0.32357959615574
  C   0.29305166371046     -0.13632943001147      0.44517859916167
  H   -0.79059753948134     -0.30760168657900     -1.39680223247728
  H   0.08235688413952     -0.10428876416669      1.51498449697737
  H   -1.47401518107174     -1.18420733046723     -0.02052401602384
  N   -1.89467553057429      0.85934492019968      0.04174780354525
  H   -2.85611597772156      0.61256309405870     -0.15095052090045
  H   -1.66959814700242      1.66937137242517     -0.52158272914172
  N   0.94527915990996      1.18814495195307      0.15982066679243
  O   1.67220179183305      1.64811743084969      1.03535936968675
  O   0.75254318201445      1.69872044242091     -0.94424562596750
  C   1.30190154977343     -1.22076944226055      0.10322348644214
  H   1.55241201573950     -1.18739511254414     -0.95962263832178
  H   2.21518070826416     -1.09444854005491      0.68658689430919
  H   0.87978231016618     -2.20196308571470      0.33040604207353
