15
Coordinates from ORCA-job run
  C   -0.93482114589243      0.52124348272255     -0.18605376259027
  C   0.34946040841372      0.05038932518167      0.49558934191125
  H   -1.33282803101696      1.36637093550051      0.38307370404367
  H   0.13703845417291     -0.18860867515180      1.53752190292635
  H   -0.68338348918084      0.88528084058592     -1.19050752227849
  N   -1.90550224895691     -0.56991788193484     -0.16837363071143
  H   -1.84246321891341     -1.11058447923630     -1.02066652758737
  H   -2.84555479465658     -0.20298447647163     -0.11317957727065
  N   1.28357504596901      1.21918104846711      0.54277999489108
  O   1.77560653155150      1.58564146630751     -0.52402184518731
  O   1.46752409540242      1.75855858459863      1.63320877474202
  C   1.01236687212177     -1.10881154718430     -0.21890206183155
  H   1.95587454261255     -1.37692644297638      0.26093265192332
  H   1.21362542049965     -0.85475915817668     -1.26079765339526
  H   0.34948155787359     -1.97407302223196     -0.17360378958537
