16

C	-0.300091	0.04279	-1.480663
C	0.0	0.0	0.0
F	-0.268618	-1.276056	-1.911228
H	1.088484	0.0	0.0
H	-0.435403	-0.875868	0.471459
N	-1.751155	0.446447	-1.76589
O	-2.598776	0.009612	-0.99139
O	-1.989963	1.107026	-2.773606
C	0.689953	0.839224	-2.276253
H	0.530294	1.902406	-2.115721
H	1.668333	0.561385	-1.864459
H	0.596916	0.606365	-3.337239
N	-0.475446	1.18345	0.713498
O	-0.647509	2.2268	0.07449
O	-0.638895	1.086267	1.928228
F	2.577882	0.0	0.0
