16

C	-0.296206	0.06889	-1.480546
C	0.0	0.0	0.0
F	-0.263657	-1.242468	-1.935613
H	1.08849	0.0	0.0
H	-0.434614	-0.886343	0.451444
N	-1.7464	0.476025	-1.759051
O	-2.595408	0.016299	-0.997573
O	-1.982352	1.161272	-2.750742
C	0.696319	0.879754	-2.259716
H	0.536918	1.941137	-2.076016
H	0.604805	0.668756	-3.325243
H	1.673544	0.591784	-1.85428
N	-0.483097	1.166085	0.735476
O	-0.662615	1.037061	1.945643
O	-0.647503	2.22622	0.120888
F	2.577954	0.0	0.0
