16

C	-0.287584	-0.278798	-1.457991
C	0.0	0.0	0.0
F	-0.07435	-1.576465	-1.798922
H	1.088524	0.0	0.0
H	-0.379447	0.987312	0.251816
N	-1.761017	-0.004582	-1.790145
O	-2.143716	1.149191	-1.606109
O	-2.455599	-0.925158	-2.20788
C	0.604241	0.607671	-2.296735
H	0.320927	1.65347	-2.180077
H	1.613426	0.456063	-1.894041
H	0.531071	0.314952	-3.346559
N	-0.603007	-0.944955	0.946901
O	-0.367371	-2.145567	0.816347
O	-1.292023	-0.469134	1.858378
F	2.582971	0.0	0.0
