16

C	-0.495276	-0.278654	-1.404807
C	0.0	0.0	0.0
F	-0.714444	0.94863	-1.992394
H	1.09586	0.0	0.0
H	-0.343911	0.993084	0.283047
N	0.624882	-0.928348	-2.226526
O	1.146658	-0.271785	-3.115988
O	0.870199	-2.092093	-1.941869
C	-1.739834	-1.109397	-1.609192
H	-1.989873	-1.097072	-2.672941
H	-1.58599	-2.128065	-1.269146
H	-2.559204	-0.654274	-1.04739
N	-0.470847	-0.91253	1.03628
O	-0.525765	-2.123209	0.800576
O	-0.720237	-0.420329	2.141969
F	2.492499	0.0	0.0
