16

C	-0.629352	-0.159119	-1.3639
C	0.0	0.0	0.0
F	-0.30006	0.978467	-2.073146
H	1.095645	0.0	0.0
H	-0.33373	0.961171	0.394246
N	0.003669	-1.298707	-2.166173
O	-0.697266	-2.277556	-2.420387
O	1.157774	-1.125842	-2.528174
C	-2.13054	-0.3009	-1.386088
H	-2.490039	-0.329152	-2.41561
H	-2.555722	0.568079	-0.880301
H	-2.441223	-1.21195	-0.881059
N	-0.471559	-1.019165	0.926976
O	-0.479285	-2.191195	0.533022
O	-0.784613	-0.675938	2.071329
F	2.499799	0.0	0.0
