16

C	-0.515798	-0.007682	-1.429572
C	0.0	0.0	0.0
Cl	0.137648	1.44813	-2.285239
H	1.093571	0.0	0.0
H	-0.363812	0.925419	0.466752
C	-0.030795	-1.187644	-2.155775
N	0.258817	-2.175681	-2.722842
C	-2.037105	0.048547	-1.56135
H	-2.341064	0.107769	-2.608855
H	-2.481565	-0.843649	-1.113946
H	-2.402827	0.932818	-1.03388
C	-0.443914	-1.224246	0.794501
H	-0.074475	-2.137312	0.319185
H	0.031526	-1.174268	1.777226
H	-1.52643	-1.318722	0.943405
F	2.651814	0.0	0.0
