14

C	-0.528109	0.019475	-1.429185
C	0.0	0.0	0.0
Br	0.36771	-1.413916	-2.500109
H	1.093074	0.0	0.0
H	-0.128256	0.926809	-1.880926
N	-1.943977	0.013072	-1.508755
H	-2.301705	-0.877559	-1.189262
H	-2.249455	0.174756	-2.458902
N	-0.43449	-1.1942	0.807873
O	-0.044851	-1.223851	1.967395
O	-1.131174	-2.052633	0.266448
C	-0.470157	1.189753	0.704514
N	-0.837724	2.168055	1.240895
Br	3.342108	0.0	0.0
