14

C	-0.388805	-0.292192	-1.447315
C	0.0	0.0	0.0
Br	-0.14901	1.426198	-2.504496
H	1.091619	0.0	0.0
H	-1.452435	-0.489602	-1.560753
N	0.405794	-1.367041	-1.868957
H	0.233576	-1.639542	-2.825855
H	1.397658	-1.193239	-1.704809
N	-0.484904	-1.177612	0.822774
O	0.318845	-1.724031	1.563982
O	-1.669585	-1.481444	0.689032
C	-0.583154	1.196315	0.581154
N	-1.063224	2.135311	1.098822
Br	3.392828	0.0	0.0
