16

C	0.0	0.0	0.0
C	-0.504548	0.301797	-1.402868
F	1.39747	0.0	0.0
H	-1.581063	0.48018	-1.319351
H	-0.021461	1.230695	-1.724494
C	-0.367456	1.115937	0.903137
N	-0.543782	2.013261	1.64012
C	-0.494894	-1.313331	0.565298
H	-0.106187	-2.136489	-0.03707
H	-0.142929	-1.431828	1.592305
H	-1.58776	-1.310129	0.542372
C	-0.225545	-0.823345	-2.396336
H	-0.367375	-0.461505	-3.417493
H	0.800273	-1.191393	-2.308995
H	-0.916061	-1.653647	-2.245877
Br	-3.9194	0.0	0.0
