16

C	0.0	0.0	0.0
C	-0.419593	0.138714	-1.468306
F	1.396927	0.0	0.0
H	0.381715	0.710806	-1.947657
H	-0.395512	-0.867728	-1.900508
C	-0.35938	1.220455	0.758194
N	-0.577093	2.198879	1.370105
C	-0.547079	-1.230285	0.684271
H	-0.205423	-2.117679	0.145404
H	-1.640966	-1.195168	0.672862
H	-0.199909	-1.280582	1.71825
C	-1.766159	0.811103	-1.715734
H	-2.585748	0.40435	-1.119899
H	-2.036531	0.687397	-2.767791
H	-1.704202	1.879749	-1.50432
Br	-4.862078	0.0	0.0
