16

C	0.0	0.0	0.0
C	-0.414686	0.105296	-1.471545
F	1.39665	0.0	0.0
H	-0.359822	-0.907002	-1.887657
H	0.372397	0.692682	-1.955671
C	-0.362013	1.237101	0.72855
N	-0.567386	2.239565	1.303936
C	-0.549646	-1.216089	0.70831
H	-0.211789	-1.243401	1.745953
H	-1.643455	-1.180869	0.685524
H	-0.20492	-2.114942	0.191721
C	-1.780399	0.731358	-1.724719
H	-2.056035	0.590389	-2.772324
H	-2.584573	0.306778	-1.120759
H	-1.759736	1.803815	-1.519054
Br	-4.874127	0.0	0.0
