15

C	-0.306931	-0.048717	-1.466178
C	0.0	0.0	0.0
Br	-2.253193	-0.163986	-1.899745
H	1.094389	0.0	0.0
H	0.096146	-0.995358	-1.830357
C	0.265652	1.011581	-2.288322
N	0.69075	1.793744	-3.05514
C	-0.43232	-1.229165	0.766611
H	0.018279	-1.203721	1.757221
H	-0.049137	-2.112074	0.248997
H	-1.519057	-1.31072	0.867543
N	-0.483299	1.22919	0.63523
O	-0.660378	2.227079	-0.068855
O	-0.643245	1.218048	1.85916
F	2.481891	0.0	0.0
