15

C	-0.301071	-0.059622	-1.467023
C	0.0	0.0	0.0
Br	-2.244394	-0.193493	-1.909295
H	1.094421	0.0	0.0
H	0.111678	-1.004782	-1.824631
C	0.268229	1.000184	-2.292091
N	0.72577	1.773791	-3.04846
C	-0.427553	-1.227908	0.771519
H	-0.038101	-2.110893	0.258887
H	-1.513728	-1.315285	0.870452
H	0.020997	-1.195288	1.762718
N	-0.492802	1.229302	0.626027
O	-0.654076	1.225689	1.850181
O	-0.678842	2.220089	-0.085295
F	2.481011	0.0	0.0
