15

C	-0.423856	-0.005736	-1.462076
C	0.0	0.0	0.0
Br	0.284032	-1.581989	-2.383114
H	1.094858	0.0	0.0
H	0.029271	0.842976	-1.969862
C	-1.873731	0.015789	-1.646598
N	-3.044349	0.040751	-1.75295
C	-0.528443	-1.1344	0.845103
H	-0.077804	-1.075934	1.833942
H	-1.61918	-1.115186	0.94884
H	-0.225545	-2.080642	0.394663
N	-0.401752	1.30528	0.564916
O	-0.527941	2.267301	-0.204762
O	-0.530354	1.39489	1.787644
F	2.513769	0.0	0.0
