15

C	-0.549736	-0.042467	-1.411662
C	0.0	0.0	0.0
Br	0.362054	1.231209	-2.599493
H	1.09064	0.0	0.0
H	-1.598494	0.255091	-1.453121
C	-0.40749	-1.365123	-2.007741
N	-0.379574	-2.430496	-2.50179
C	-0.395092	-1.209142	0.836667
H	0.088526	-2.093791	0.422803
H	-1.479044	-1.372021	0.886647
H	-0.002935	-1.056655	1.841029
N	-0.488591	1.219136	0.680314
O	-0.109368	1.402202	1.837036
O	-1.246308	1.992686	0.080544
F	2.509243	0.0	0.0
