15

C	-0.544892	-0.038137	-1.412493
C	0.0	0.0	0.0
Br	0.307435	-1.525699	-2.355832
H	1.089913	0.0	0.0
H	-0.290109	-0.946128	0.472832
C	-2.047992	-0.178274	-1.534033
H	-2.354768	-0.241435	-2.576432
H	-2.360196	-1.079398	-1.00454
H	-2.52529	0.688279	-1.067081
N	-0.136424	1.223457	-2.178939
O	0.649062	1.990961	-1.639741
O	-0.648259	1.381312	-3.287643
C	-0.592411	1.088944	0.751927
N	-1.086036	1.972804	1.351544
F	2.524887	0.0	0.0
