15

C	-0.257509	0.046986	-1.491996
C	0.0	0.0	0.0
Br	-0.04109	1.870467	-2.163063
H	1.093082	0.0	0.0
H	-0.316286	-0.984526	0.362135
C	0.731255	-0.866503	-2.18993
H	0.692254	-0.751683	-3.271575
H	1.712141	-0.621139	-1.758881
H	0.488711	-1.902861	-1.927642
N	-1.684914	-0.345354	-1.87814
O	-1.912531	-0.540531	-3.070014
O	-2.509862	-0.463061	-0.974289
C	-0.622893	1.031174	0.799695
N	-1.103009	1.853286	1.489004
F	2.603445	0.0	0.0
