15

C	-0.234403	-0.010678	-1.489246
C	0.0	0.0	0.0
Br	-2.139405	0.234827	-1.991021
H	1.091909	0.0	0.0
H	-0.297317	0.992606	0.355366
C	0.638604	1.047144	-2.12814
H	0.301574	2.032316	-1.801644
H	0.60345	0.986409	-3.213814
H	1.644591	0.858736	-1.725175
N	0.141895	-1.359928	-2.10201
O	0.24997	-1.40113	-3.325997
O	0.30366	-2.30856	-1.342811
C	-0.671535	-0.996709	0.80456
N	-1.232589	-1.740029	1.522112
F	2.580814	0.0	0.0
