15

C	-0.256642	-0.010595	-1.496515
C	0.0	0.0	0.0
Br	0.125597	1.777206	-2.20043
H	1.093029	0.0	0.0
H	-0.423705	0.877619	0.486231
C	0.639727	-1.017604	-2.176877
H	0.599535	-0.9386	-3.261685
H	1.640421	-0.814769	-1.77355
H	0.330791	-2.023502	-1.877844
N	-1.731041	-0.227924	-1.830349
O	-2.555961	0.292589	-1.085496
O	-2.000059	-0.897998	-2.825505
C	-0.50827	-1.217384	0.604675
N	-0.916085	-2.211058	1.083087
F	2.586334	0.0	0.0
