14
Coordinates from ORCA-job run
  C   -0.13557175213590      0.12020233742625      0.31507265504887
  C   0.78171612048308     -0.71148445527449     -0.58716291445547
  Cl  0.71304257884634      0.21404621451392      1.95857907735638
  H   0.24352139482228     -0.91557073392621     -1.51778942297563
  H   1.01776845006082     -1.66070053115282     -0.10227128926364
  N   -0.35306081610786      1.39524881049735     -0.26325578280665
  H   0.51095752901859      1.91229280164945     -0.37923767860661
  H   -0.99160951344354      1.94765911434516      0.29503165641067
  C   -1.45380781050308     -0.59348597189634      0.54717566839449
  H   -1.98372797393212     -0.68332846280181     -0.40378642924286
  H   -1.28969426856871     -1.58348153849865      0.97339373018459
  H   -2.07309998563765     -0.02434577920875      1.24324512070988
  C   2.02060085264431     -0.00814648562943     -0.90810174634700
  N   2.99396519445341      0.59209467995639     -1.17089264440702
