14
Coordinates from ORCA-job run
  C   -0.06666096946085      0.09927294058380      0.38681785537778
  C   0.81922375508299     -0.58960488490969     -0.65571274924421
  Cl  0.74318256524759     -0.03781121644484      1.98575694800174
  H   0.95703968108589     -1.63864822464366     -0.38253214508929
  H   0.30277921719528     -0.56709982751321     -1.62274754505536
  N   -0.14088521990897      1.50753344093552      0.07074899419348
  H   -0.61205821913452      1.63428558599469     -0.81904082768317
  H   -0.66362867563772      2.00210397799529      0.78429100498289
  C   -1.40927521501610     -0.61525226477611      0.48930775817139
  H   -1.28786462929943     -1.66810710604441      0.75215911131202
  H   -1.93156463118429     -0.54691541907664     -0.47019873534565
  H   -2.02606567800706     -0.13916065448999      1.25374492100751
  C   2.12651524874272      0.04349595154670     -0.80903667607952
  N   3.18926277029447      0.51490770084254     -0.96355791454960
