14
Coordinates from ORCA-job run
  C   -0.07572084849948      0.08135680298109      0.38919911628105
  C   0.81598922086764     -0.58800133548746     -0.66109341313514
  Cl  0.67264556600078     -0.17591993239413      2.00301127128833
  H   0.33449961337535     -0.49071823099986     -1.64143534421336
  H   0.90045674979059     -1.65534527685413     -0.44232438321990
  N   -0.08098509234702      1.50653311433680      0.14877385577801
  H   -0.51727046795789      1.70065204382183     -0.74665619317713
  H   -0.60637479312110      1.98405707699176      0.87194429299089
  C   -1.44944978812242     -0.57905793636150      0.40929728482957
  H   -2.07190703543273     -0.11830276624865      1.17852204129534
  H   -1.38069560491932     -1.64868807612365      0.61785968360896
  H   -1.93525648238396     -0.43723825394327     -0.56125737691891
  C   2.15323982242953     -0.00538292218574     -0.73666259971397
  N   3.23982914032003      0.42605569246690     -0.83017823569376
