14
Coordinates from ORCA-job run
  C   -0.14135494270052      0.07671927746364      0.32528017439723
  C   0.77927663100858     -0.63922302919209     -0.66791687795458
  Cl  0.66654658609674     -0.09433644870830      1.98387113430454
  H   0.97787612108860     -1.65567025042277     -0.32289883033701
  H   0.26253844104309     -0.68913645748372     -1.63110690091949
  N   -0.31284010461085      1.42800646447704     -0.06404709414249
  H   -0.95135844340130      1.91091220724401      0.55540155240969
  H   0.56617383275245      1.93212268948183     -0.08626216648921
  C   -1.48176277813626     -0.62700191152559      0.42135549562536
  H   -1.35256048541336     -1.67205174242870      0.70423657469674
  H   -1.98840250623632     -0.56504850635158     -0.54450397328776
  H   -2.10571654941570     -0.14700621634812      1.17778902344469
  C   2.04331496015416      0.06809748620604     -0.85237143401541
  N   3.03826923777068      0.67261643758831     -0.99882667773229
