14
Coordinates from ORCA-job run
  C   -0.11552470174966      0.34841145684140      0.38822694151223
  C   0.96097260799181      0.08360548747407     -0.68505838673201
  Cl  0.75184849719646      0.49380707750181      1.95894553469563
  H   1.69138925087965      0.89741648414289     -0.66800629101663
  H   0.47209150552001      0.09298994554362     -1.66552057797682
  N   -0.82073580210197      1.58883243298578      0.17680943682902
  H   -0.17775046450022      2.36442177009582      0.06722779185383
  H   -1.40729139361831      1.52131618582121     -0.64707482454670
  C   -1.11350235479646     -0.78882936522492      0.48204938033674
  H   -0.61900783333947     -1.72646887161754      0.73478117738266
  H   -1.85183432656720     -0.55167481961393      1.24761475988559
  H   -1.62510567289549     -0.91206490910854     -0.47849691458635
  C   1.65762084402501     -1.18902084819177     -0.52006882512656
  N   2.19582984395584     -2.22374202664991     -0.39042920251064
