14
Coordinates from ORCA-job run
  C   -0.01123856525363      0.38686843619438      0.32487730628337
  C   1.00707009464919      0.02867792221384     -0.76419445405517
  Cl  0.87767226025785      0.56013872319713      1.87502274895141
  H   1.78279288771064      0.79665086156073     -0.77304504518677
  H   0.50163797155485      0.05362749377823     -1.73636217129574
  N   -0.52980790706751      1.70183325404448     -0.01153444162555
  H   -1.14940738095725      1.61653683320022     -0.81172167105441
  H   -1.07593222751354      2.06061340906154      0.76388081428166
  C   -1.06733836113465     -0.69310253936292      0.50831697284607
  H   -0.62620255648723     -1.64663030538925      0.80205980166028
  H   -1.77880695800065     -0.38657579708573      1.27735886975127
  H   -1.60952160665721     -0.83215784977655     -0.43290021184881
  C   1.60621521882044     -1.28978258915667     -0.58235047519921
  N   2.07286713007870     -2.35669785247942     -0.43940804350839
