15
Coordinates from ORCA-job run
  C   -0.65307675879973     -0.17234832369493     -0.16251059589280
  C   0.81609124194258     -0.48761791878553     -0.01508230555266
  F   -0.85431439589489      0.52228755999705     -1.34861682923550
  H   0.96949341868450     -0.90028909999014      0.98222242115977
  H   1.02444739770121     -1.28534856557981     -0.73686721706286
  N   -1.48414258390499     -1.29824691248106     -0.04042621210264
  H   -2.45030716067542     -1.05079556334166     -0.21815508062980
  H   -1.18947740881315     -2.04115987905789     -0.65880750698892
  N   -1.15386204410316      0.79663316436298      0.91109750247981
  O   -2.28552457942657      1.23345098065857      0.73175790153900
  O   -0.42909246248860      1.03108942800942      1.87149467211687
  C   1.74150686191908      0.69442504902599     -0.27998685514414
  H   2.78141233887271      0.36863540066382     -0.21699635346696
  H   1.57466556179781      1.10579004837677     -1.27536571842897
  H   1.59318057318862      1.48349463183641      0.45624217720981
