15
Coordinates from ORCA-job run
  C   -0.72160824933285     -0.18626515058055     -0.30127330740376
  C   0.75693902220764     -0.48032407612672     -0.11458969432498
  F   -0.91130272126636      0.35827843452714     -1.53045091214807
  H   1.02063758601714     -1.20233425532758     -0.89499216662289
  H   0.87698429839813     -0.97722167551908      0.85119200835215
  N   -1.65703571890453     -1.24741671712436     -0.13427708244924
  H   -1.62843795894121     -1.58764815215379      0.81786215322660
  H   -1.43793679089432     -2.00093844416646     -0.77382547965881
  N   -1.10727059187747      0.87067918358444      0.73020840637980
  O   -1.32025512982157      2.01005802265818      0.34699528415125
  O   -1.12253610299091      0.46832064294778      1.89131672709727
  C   1.64125167806454      0.75906900392279     -0.20581502146934
  H   1.47072381952752      1.43066542094984      0.63804340150427
  H   1.44633792332292      1.31060755383941     -1.12613482950828
  H   2.69450893649131      0.47347020856894     -0.19325948712596
