15
Coordinates from ORCA-job run
  C   -0.71785442865561     -0.01456915372994     -0.20646380331077
  C   0.63065989730154      0.59096107427675      0.14986002077911
  F   -0.90489352075583      0.09460931916715     -1.54714214074475
  H   0.71775647967998      0.59723852795930      1.23938021790577
  H   0.62118363564926      1.63161417749601     -0.18998547922628
  N   -1.00796851929047     -1.35691433649300      0.16736892596438
  H   -0.38183837431236     -1.99481649162899     -0.30528519422430
  H   -0.94081975370488     -1.47230280982748      1.16928497928111
  N   -1.78292248063393      0.84275626450183      0.47745685119257
  O   -1.87851896516428      0.67147770829045      1.68990637556180
  O   -2.41211215386983      1.63700986444452     -0.20385038567575
  C   1.78812773775711     -0.16623852245449     -0.49067350940841
  H   1.86692287136904     -1.18385855089675     -0.10204814083033
  H   2.73231213471210      0.33713021192723     -0.27654918738844
  H   1.67096543991814     -0.21409728303258     -1.57425952987573
