15
Coordinates from ORCA-job run
  C   -0.65372973898236      0.02447974957354     -0.08235223009361
  C   0.70942792200126      0.61114311500082      0.18241604000632
  F   -0.95306345605138      0.19155302220697     -1.43876705023932
  H   0.70075163104641      1.63330333104311     -0.19767287942624
  H   0.85360294280479      0.66366919578687      1.26254358328318
  N   -0.81573414839245     -1.29405650314595      0.35793499821285
  H   -1.75354581804818     -1.62314508993298      0.16575927183405
  H   -0.13068960894095     -1.90844385701401     -0.05799145794971
  N   -1.76021727781755      0.83609425137371      0.59720679251133
  O   -2.88380718172112      0.34725221199508      0.53935142339304
  O   -1.46434487564168      1.91050991169956      1.10708025591422
  C   1.81822174646830     -0.19994446613483     -0.48346827213592
  H   1.96033205778300     -1.16952342067032     -0.00080219132109
  H   1.60574377503528     -0.35820533129658     -1.54219223135616
  H   2.76605203045663      0.33531387951500     -0.40904605263294
