15
Coordinates from ORCA-job run
  C   -0.65701654090727     -0.03765777998893     -0.03393519616978
  C   0.66568295212039      0.68353524553861      0.01683133783726
  F   -1.05757744147390     -0.13637497584183     -1.37111569867527
  H   0.54597379792599      1.61741947382845     -0.53350123110697
  H   0.87396297823839      0.93969522690116      1.05669483778753
  N   -0.67756015465939     -1.26507171612724      0.63796681865723
  H   -1.59577591534916     -1.68769975117670      0.58334847324179
  H   0.02566338588243     -1.89388162708814      0.27756832810291
  N   -1.78161637339282      0.80065307688941      0.58080757679569
  O   -1.54566382859435      1.96818477717625      0.86889601209075
  O   -2.86009961985262      0.22885179481921      0.70204784259215
  C   1.79397653556529     -0.15245121768064     -0.58198791663624
  H   2.04771179999419     -1.00665767553512      0.04980663534648
  H   2.69617950564923      0.45379566638994     -0.67633067582179
  H   1.52815891885362     -0.51334051810446     -1.57709714404173
