15
Coordinates from ORCA-job run
  C   -0.62303299829285     -0.30368567209339     -0.01554193802033
  C   0.87984354135826     -0.32297482750551     -0.15889911076891
  F   -1.18469436202282      0.24589605105658     -1.16148927231912
  H   1.10420178929645     -1.13009098172976     -0.86515385434821
  H   1.30227092415608     -0.60560426202013      0.80553238867889
  N   -1.17142550722245     -1.55296229512346      0.31775764815360
  H   -0.86459775945869     -2.27232244507640     -0.32209661121306
  H   -2.18306060875682     -1.50534643345620      0.34047950305807
  N   -1.09230191686103      0.63517566835692      1.09886500152428
  O   -2.30409139054986      0.81630361270401      1.15014098211220
  O   -0.25755589524260      1.08923203127755      1.87320149715865
  C   1.47799981719263      0.98299640700684     -0.66966655293790
  H   1.05734331747523      1.25319266591305     -1.63804510926055
  H   2.55758847544289      0.87199685043442     -0.78688632430788
  H   1.30051257348558      1.79819363025548      0.03080175249030
