15
Coordinates from ORCA-job run
  C   -0.83666261423309     -0.17758337594271     -0.31919549998335
  C   0.48283536881597      0.20834684718941     -0.94303091837404
  F   -1.85921623875785      0.04065704843213     -1.20080315621217
  H   0.64499396042506     -0.48812572798259     -1.76931636597296
  H   0.34766408799724      1.20599354374679     -1.36400042175938
  N   -0.90351973944642     -1.49920613682555      0.13381823192544
  H   -1.76111073639873     -1.67220624369981      0.64258175978131
  H   -0.11882496092877     -1.73270626542162      0.72382997989867
  N   -1.12735415258549      0.86513780370601      0.81113503663538
  O   -1.21193741736146      2.03680361030646      0.46441012781294
  O   -1.21758512942117      0.43995458010192      1.96056247322531
  C   1.65499478031836      0.19249908499262      0.03294691662115
  H   1.85310761845373     -0.80710111480056      0.42682735799373
  H   2.56338018605081      0.52080767779663     -0.47457367193316
  H   1.48823498707176      0.86772866840081      0.87480815034114
