15

C	-0.507042	0.046465	-1.453664
C	0.0	0.0	0.0
F	-0.133612	-1.185271	-2.013639
H	1.09099	0.0	0.0
N	-1.895634	0.286274	-1.545771
H	-2.206612	0.240774	-2.507317
H	-2.412084	-0.355878	-0.957756
C	0.198411	1.094467	-2.21803
N	0.660942	1.935322	-2.894108
N	-0.486616	-1.296883	0.604384
O	0.347041	-2.144713	0.880471
O	-1.70748	-1.408957	0.760174
C	-0.522395	1.107443	0.784186
N	-0.917099	2.00273	1.433767
Cl	3.175846	0.0	0.0
