15

C	-0.502422	0.066751	-1.454234
C	0.0	0.0	0.0
F	-0.129856	-1.161478	-2.025747
H	1.091025	0.0	0.0
N	-1.887984	0.314305	-1.552507
H	-2.409827	-0.343338	-0.987033
H	-2.191084	0.297828	-2.518028
C	0.211983	1.119397	-2.20301
N	0.6793	1.967634	-2.866641
N	-0.483566	-1.302393	0.594282
O	-1.706736	-1.451902	0.678364
O	0.356896	-2.115289	0.944214
C	-0.522453	1.097361	0.798748
N	-0.92382	1.983982	1.455988
Cl	3.17708	0.0	0.0
