15

C	-0.324599	-0.020225	-1.506903
C	0.0	0.0	0.0
F	-0.224534	1.339909	-1.902
H	1.096575	0.0	0.0
N	0.595621	-0.846256	-2.155559
H	0.524098	-0.786574	-3.160895
H	1.545005	-0.665387	-1.827524
C	-1.720731	-0.388863	-1.826068
N	-2.836642	-0.648788	-2.081986
N	-0.412954	-1.253875	0.722421
O	-0.792122	-2.21169	0.057745
O	-0.295201	-1.221339	1.942167
C	-0.56144	1.147069	0.687588
N	-1.031751	2.073343	1.235024
Cl	3.157816	0.0	0.0
