15

C	-0.494347	0.024402	-1.453218
C	0.0	0.0	0.0
F	0.164022	-0.993088	-2.138364
H	1.092092	0.0	0.0
N	-1.907533	-0.066611	-1.56155
H	-2.191866	0.04396	-2.527051
H	-2.202161	-0.970809	-1.216016
C	-0.068144	1.296152	-2.079552
N	0.196087	2.277123	-2.666287
N	-0.406438	-1.245032	0.74217
O	-0.084365	-1.284909	1.9211
O	-0.996286	-2.137611	0.131522
C	-0.506017	1.145968	0.739726
N	-0.920475	2.075326	1.326303
Cl	3.118107	0.0	0.0
