15

C	-0.559722	-0.010212	-1.449685
C	0.0	0.0	0.0
F	-0.177203	-1.224597	-1.97809
H	1.091454	0.0	0.0
N	-1.976644	0.112849	-1.591205
H	-2.26013	1.082584	-1.576103
H	-2.445651	-0.385534	-0.843149
C	0.077457	1.077212	-2.218859
N	0.486131	1.973799	-2.856796
N	-0.494006	-1.25833	0.661879
O	-1.686005	-1.279839	0.990758
O	0.296767	-2.179728	0.788633
C	-0.528831	1.155317	0.706958
N	-0.958319	2.121271	1.219379
Cl	3.171045	0.0	0.0
