15

C	-0.339328	-0.028433	-1.502016
C	0.0	0.0	0.0
F	-1.662097	0.335678	-1.712582
H	1.092177	0.0	0.0
N	0.507668	0.936409	-2.111312
H	1.469909	0.832262	-1.781942
H	0.475918	0.860974	-3.121827
C	-0.226889	-1.388746	-2.09238
N	-0.163932	-2.397128	-2.692829
N	-0.542123	-1.203248	0.704074
O	0.096854	-2.240431	0.56443
O	-1.590713	-1.077659	1.334927
C	-0.518214	1.220064	0.595426
N	-0.905188	2.216317	1.083252
Cl	3.166339	0.0	0.0
