15

C	-0.50607	0.012492	-1.45152
C	0.0	0.0	0.0
F	0.222404	-0.929595	-2.169438
H	1.094944	0.0	0.0
N	-1.909336	-0.196912	-1.541888
H	-2.218731	-0.080252	-2.498751
H	-2.116927	-1.137312	-1.228608
C	-0.193289	1.330272	-2.048424
N	0.038901	2.371379	-2.538452
N	-0.386139	-1.252664	0.740129
O	-0.206314	-1.234846	1.950258
O	-0.798365	-2.215852	0.093656
C	-0.517642	1.140151	0.739514
N	-0.946422	2.082986	1.293621
Cl	3.119317	0.0	0.0
