15
Coordinates from ORCA-job run
  C   -0.57533302010366     -0.31596091158461      0.25442102424279
  C   0.69084668811762     -0.40014264939088     -0.54230315095690
  F   -0.49118997822595     -0.94412717946354      1.43341647069153
  H   0.50344607121550      0.03808134646311     -1.52280662470428
  H   0.89991318841385     -1.46239664992641     -0.69036700169383
  N   -1.79616009545151     -0.88867550519689     -0.45395679921629
  O   -2.84750897351136     -0.77187474078390      0.16334375993110
  O   -1.62195482051317     -1.43081882641617     -1.53804293579022
  N   -0.93675661429429      1.13762031862738      0.50974695694981
  O   -0.85825020181114      1.54766941638550      1.65639058454572
  O   -1.22959391465841      1.76538040584927     -0.50093639685810
  C   1.84174224882861      0.30001671307846      0.17678801337297
  H   2.77307406130678      0.11854171917046     -0.36090538695994
  H   1.95906196298718     -0.07140297999867      1.19561182318127
  H   1.68866339769994      1.38008952318689      0.21859966326439
