15
Coordinates from ORCA-job run
  C   -0.55113958715352      0.40113965440752      0.17575123549099
  C   0.70781203583735      0.22329653962134     -0.61701519904465
  F   -0.41316396558933      1.27133950078913      1.18343180785753
  H   0.98110054682656      1.20960589143943     -0.99979720555222
  H   0.48115633877217     -0.41106383810601     -1.47419764765877
  N   -0.99965220879289     -0.93188131049971      0.75073824374744
  O   -0.93268274850151     -1.07811914342616      1.96037709874609
  O   -1.34380078636836     -1.75056567446823     -0.09343910236777
  N   -1.74243929931798      0.87684782440671     -0.64566585418993
  O   -2.79126786475215      0.96898581738620     -0.01996213283216
  O   -1.54814018661499      1.14945111112120     -1.82356592681187
  C   1.82148856689545     -0.36943536631264      0.24337139920946
  H   1.60160750762677     -1.40047992562739      0.52681054085220
  H   2.75556629104134     -0.37321259624808     -0.31957699247094
  H   1.97455536009110      0.21309151551668      1.15273973502462
