15
Coordinates from ORCA-job run
  C   -0.58481176376731     -0.06619629995783     -0.34949056008942
  C   0.71086867752037     -0.58271055542610      0.20480759210142
  F   -0.53288207860332      0.16336078081700     -1.66116530687814
  H   0.58194185751254     -0.73715981157012      1.27521188164887
  H   0.86897367329216     -1.56057629971146     -0.26238393805750
  N   -1.05642814875891      1.22333128603249      0.32160335823758
  O   -0.66233866929107      1.42834170475898      1.46263426164073
  O   -1.81502068369585      1.91699790980539     -0.34341892090682
  N   -1.72002458928025     -1.05476413696733     -0.08578627534956
  O   -1.93888936411235     -1.27844170419328      1.09849831686576
  O   -2.27526853026969     -1.53805283906102     -1.05973658748149
  C   1.87905060262680      0.35056111635867     -0.09753444470762
  H   2.80697970927552     -0.10019763447837      0.25713684969635
  H   1.75987689684389      1.30896309610062      0.40881668547387
  H   1.97797241070745      0.52654338749238     -1.16919291219403
