15
Coordinates from ORCA-job run
  C   -0.78580370722463     -0.00489624735816     -0.41338347790003
  C   0.64798046442711     -0.16018446612520     -0.83742081189256
  F   -1.60378460131320      0.09238039012533     -1.47182667057442
  H   0.78786441985536      0.58270580683325     -1.62889127876065
  H   0.73104268385054     -1.14899198188299     -1.29463611287760
  N   -0.95705658893719      1.24556848718751      0.43207390053591
  O   -0.78552764416930      1.10759991811380      1.63686456170131
  O   -1.16999052602594      2.27906706003002     -0.18441579702134
  N   -1.33244494789069     -1.14127716341789      0.43759844998999
  O   -2.51541898373410     -1.03695465414454      0.73287490219805
  O   -0.57095560484947     -2.05909359739847      0.71905210719660
  C   1.68327000898538      0.02636788396477      0.26673003688012
  H   2.67513669853264     -0.17738522714511     -0.13954512636287
  H   1.50906553381444     -0.65386618501781      1.09837794598699
  H   1.68562279467906      1.04895997623550      0.64654737090047
