15
Coordinates from ORCA-job run
  C   -0.78179880474969      0.01121776244425     -0.42066631342460
  C   0.65918868460868     -0.06847659355490     -0.84122518669853
  F   -1.60842877971472     -0.19429458468790     -1.45666706480947
  H   0.71612910604705     -0.95649703032860     -1.47845115775099
  H   0.84686829568702      0.80321725236210     -1.47258336734367
  N   -1.20064728014769      1.33787666313867      0.19487819717543
  O   -2.38716031089696      1.41669175464905      0.48380325018299
  O   -0.34406522790064      2.20592350950603      0.31417750624740
  N   -1.08424133340281     -1.03424775245386      0.63919367395474
  O   -1.40882266660532     -2.13602939961491      0.22176120444613
  O   -0.89550502541449     -0.69302916464063      1.80019706722071
  C   1.67147439169441     -0.15475586127212      0.29614097124653
  H   2.67836628728956     -0.13691364270858     -0.12365016861169
  H   1.56482700861292     -1.08292251428320      0.85925250951496
  H   1.57381565489269      0.68323960144459      0.98383887865005
