15
Coordinates from ORCA-job run
  C   -0.57994558379849     -0.31264558597221      0.24780987870995
  C   0.70032793838438     -0.40525917564901     -0.52491704474008
  F   -0.51611752558511     -0.92582602480085      1.43609353078183
  H   0.91213693346076     -1.46898657164384     -0.65760853312004
  H   0.53026229702658      0.02201537131805     -1.51344279587307
  N   -1.78726431064205     -0.89587615608956     -0.47468266930875
  O   -2.84987650527267     -0.76990947296103      0.12106009071563
  O   -1.59303427882849     -1.45447293755069     -1.54693835421858
  N   -0.94780374548041      1.14350575743591      0.47825425203585
  O   -1.22391914200625      1.75799553787973     -0.54510103799337
  O   -0.88911936032162      1.56817150906317      1.62072217794600
  C   1.83877476652216      0.30206852415564      0.20650397391172
  H   1.68148466296421      1.38168843515339      0.24421796385096
  H   1.94489441841680     -0.06643521654082      1.22759164949507
  H   2.77719943516021      0.12296600620214     -0.31956308219312
