19

C	0.0	0.0	0.0
C	-0.311435	-0.246211	-1.517228
Cl	1.817525	0.0	0.0
H	0.359129	0.450408	-2.051167
C	-0.51666	1.361582	0.415819
H	-0.185613	2.142126	-0.277564
H	-1.610611	1.270939	0.405806
H	-0.168961	1.617359	1.421954
C	-0.55599	-1.078961	0.897788
H	-1.647563	-1.001749	0.790772
H	-0.274098	-0.892869	1.93915
H	-0.213145	-2.063978	0.586845
N	-1.653865	0.021565	-1.963936
H	-2.374274	-0.156339	-1.209765
H	-1.728976	1.014998	-2.146612
N	-0.005894	-1.642429	-1.851335
H	0.997189	-1.773537	-1.918594
H	-0.423682	-1.792155	-2.761241
F	-3.311062	0.0	0.0
