19

C	0.0	0.0	0.0
C	-0.547805	-0.030643	-1.430653
Cl	1.805577	0.0	0.0
H	-1.617251	-0.237657	-1.254765
C	-0.506173	1.227488	0.734556
H	-0.102755	2.14641	0.304373
H	-1.602415	1.156862	0.644014
H	-0.209867	1.18166	1.786601
C	-0.488149	-1.249317	0.7142
H	-0.162534	-2.143473	0.181412
H	-1.583273	-1.154492	0.702613
H	-0.105384	-1.275277	1.738841
N	0.056158	-1.100147	-2.202531
H	0.976981	-0.79376	-2.501032
H	-0.506543	-1.26377	-3.029209
N	-0.359153	1.27756	-2.096875
H	-0.700189	1.155682	-3.046657
H	-1.01586	1.921164	-1.662874
F	-3.057645	0.0	0.0
