19

C	0.0	0.0	0.0
C	-0.517705	0.277164	-1.470841
Cl	1.80397	0.0	0.0
H	0.369578	0.35615	-2.108306
C	-0.439741	1.052762	1.009064
H	-1.529231	0.984452	1.062694
H	-0.13945	2.04928	0.690694
H	0.001458	0.828981	1.985556
C	-0.43424	-1.363591	0.520911
H	-1.52679	-1.34272	0.542361
H	-0.066487	-2.181709	-0.103363
H	-0.039123	-1.510194	1.530194
N	-1.22254	1.554246	-1.497929
H	-2.077869	1.345407	-0.963547
H	-1.52436	1.659022	-2.462804
N	-1.389681	-0.748765	-2.040544
H	-2.209015	-0.739479	-1.412161
H	-0.945928	-1.6591	-1.987995
F	-3.038075	0.0	0.0
