19

C	0.0	0.0	0.0
C	-0.531034	-0.513147	-1.383363
Cl	1.803971	0.0	0.0
H	0.337594	-0.743176	-2.009449
C	-0.424032	1.432297	0.30601
H	0.020695	1.743104	1.256318
H	-1.513187	1.419367	0.388173
H	-0.115692	2.114781	-0.483964
C	-0.428369	-0.879707	1.16866
H	0.014573	-0.491425	2.090876
H	-1.517639	-0.813066	1.218697
H	-0.121386	-1.913669	1.020971
N	-1.286861	0.5534	-2.047384
H	-1.550947	0.193737	-2.960909
H	-2.150012	0.606571	-1.482044
N	-1.279705	-1.758204	-1.1881
H	-2.1379	-1.429636	-0.716847
H	-1.561126	-2.07431	-2.112383
F	-3.051931	0.0	0.0
