19

C	0.0	0.0	0.0
C	-0.536748	0.11612	-1.46849
Cl	1.803961	0.0	0.0
H	0.328883	0.174261	-2.137055
C	-0.420077	1.173112	0.880448
H	-1.509263	1.132745	0.952141
H	0.025875	1.053851	1.872283
H	-0.109651	2.123194	0.449986
C	-0.428079	-1.288769	0.691949
H	0.015145	-1.323628	1.692136
H	-1.517489	-1.248682	0.764748
H	-0.122292	-2.16544	0.123949
N	-1.299508	1.360512	-1.616065
H	-1.57021	1.41246	-2.594066
H	-2.159183	1.158321	-1.078844
N	-1.287134	-1.096717	-1.813013
H	-2.14935	-0.991535	-1.255962
H	-1.553956	-1.001345	-2.789223
F	-3.061696	0.0	0.0
