19

C	0.0	0.0	0.0
C	-0.310244	0.122972	-1.532923
Cl	1.817589	0.0	0.0
H	0.355063	-0.621634	-2.006711
C	-0.551064	1.150681	0.80865
H	-0.202831	2.10626	0.420643
H	-1.643082	1.071436	0.709601
H	-0.268521	1.046309	1.861586
C	-0.520866	-1.320356	0.524013
H	-1.614102	-1.225979	0.505698
H	-0.192892	-2.155044	-0.104251
H	-0.17318	-1.496415	1.546803
N	0.006359	1.48542	-1.979665
H	-0.403992	1.557379	-2.904055
H	1.012206	1.600898	-2.052145
N	-1.655373	-0.170572	-1.960657
H	-1.733467	-1.176587	-2.06757
H	-2.372118	0.06453	-1.218608
F	-3.306898	0.0	0.0
