19

C	0.0	0.0	0.0
C	-0.525872	0.002203	-1.442581
Cl	1.816278	0.0	0.0
H	-1.611301	0.102865	-1.268186
C	-0.483537	1.252877	0.709968
H	-1.579105	1.164362	0.674903
H	-0.147258	2.147625	0.187051
H	-0.124827	1.269199	1.744367
C	-0.502529	-1.222581	0.743935
H	-0.127129	-2.153195	0.311924
H	-0.191798	-1.178531	1.791714
H	-1.599246	-1.139602	0.662212
N	-0.29998	-1.242105	-2.187349
H	0.636208	-1.586741	-1.992672
H	-0.955764	-1.936712	-1.848702
N	-0.024914	1.159999	-2.172398
H	0.970435	1.025057	-2.33448
H	-0.471887	1.125262	-3.082807
F	-3.02935	0.0	0.0
