19

C	0.0	0.0	0.0
C	-0.508979	-0.21383	-1.482703
Cl	1.815007	0.0	0.0
H	0.380489	-0.273506	-2.119636
C	-0.42021	1.339501	0.593268
H	0.028884	1.455849	1.584833
H	-1.509138	1.309851	0.672683
H	-0.11355	2.165048	-0.0468
C	-0.444927	-1.099775	0.951901
H	-0.052568	-0.894783	1.95211
H	-1.538265	-1.05952	0.959255
H	-0.086874	-2.086201	0.647908
N	-1.298461	0.938693	-1.896309
H	-1.609255	0.713501	-2.837054
H	-2.137359	0.861366	-1.296688
N	-1.295088	-1.429047	-1.701183
H	-2.126224	-1.284069	-1.114485
H	-0.789965	-2.241513	-1.362937
F	-3.028473	0.0	0.0
