16
Coordinates from ORCA-job run
  C   -0.72756870941599      0.11472025313084     -0.62145778996380
  C   0.50155881435382      0.16020986591584      0.28288240490437
  F   -0.74141930736233     -0.97790614871773     -1.40408102080773
  H   0.38206591588927      0.98926513553101      0.98284514689388
  N   -1.93131952590102      0.00251250962073      0.34674976087430
  O   -2.09005642979164      0.97005435534953      1.07805614737572
  O   -2.57503996054938     -1.03136156597981      0.30808774894316
  C   -0.93630036133974      1.33282334874987     -1.40486130004522
  N   -1.12744980161533      2.32313406451145     -2.00761245325417
  N   1.72871235192095      0.49250211382602     -0.52465183397579
  O   2.71712970482519      0.79532555608813      0.13331885250688
  O   1.66184712950966      0.40608472339735     -1.74767764057001
  C   0.73810517536122     -1.15451120606103      1.00721063721723
  H   0.89173394148919     -1.96242228382082      0.29116188158587
  H   1.62077631080498     -1.05669871138353      1.63838435538689
  H   -0.11377524817883     -1.40373201015785      1.64164510292842
