16
Coordinates from ORCA-job run
  C   -0.77598333872044      0.56305902512429     -0.15509490621237
  C   0.67831307095550      0.15333528113483      0.02786137588171
  F   -0.89502600135002      1.84232094941723      0.31798924366450
  H   1.28797308999020      0.88859651669620     -0.50049463794414
  N   -1.13813454102820      0.66316718795730     -1.64050354918759
  O   -0.24548622532451      1.08538772334766     -2.36355747251287
  O   -2.28999697411478      0.39810328328317     -1.94936363601067
  C   -1.73242711940130     -0.29925721051759      0.53448084624569
  N   -2.46006000698182     -0.95505440156606      1.18314784112102
  N   0.93074823165092     -1.15420863898266     -0.66226940688385
  O   -0.03663361661176     -1.73897426587838     -1.14806076239690
  O   2.09263849524314     -1.53803617790801     -0.67369804777252
  C   1.06964937212732      0.04104603059040      1.48992986998350
  H   0.51705452326192     -0.76206703318787      1.98170272345820
  H   0.85980288201767      0.98176905313091      1.99997610307034
  H   2.13656815828616     -0.16718732264141      1.55995441549595
