16
Coordinates from ORCA-job run
  C   -0.85207330033817      0.43999708616847     -0.14432488974155
  C   0.65327924876326      0.23825672986545     -0.04920524425227
  F   -1.10494748973901      1.74109094537607      0.19891912663819
  H   1.11896056693495      0.97718135664781     -0.70377801773103
  N   -1.33394169929655      0.31985633876241     -1.59372697899253
  O   -0.56055226857465      0.75958102162466     -2.43421651937677
  O   -2.46086658995957     -0.11804543000809     -1.76908565277019
  C   -1.63168001035967     -0.44694474232258      0.71554030862864
  N   -2.23327644340410     -1.09376508973661      1.49020301630117
  N   1.02535469388423     -1.09892808978600     -0.61715327371533
  O   0.11059766384062     -1.85347089470090     -0.94583266211534
  O   2.22393391802141     -1.33287591083596     -0.69620615685522
  C   1.16394807714312      0.34442987536880      1.37607880677534
  H   0.87006882339899      1.30440803564048      1.80183548107589
  H   0.76085499203669     -0.45881348208469      1.99619294625860
  H   2.25133981764845      0.27904225002068      1.37275970987240
