16
Coordinates from ORCA-job run
  C   -0.87136754350597      0.02783332705339     -0.41101748507655
  C   0.56205469430754      0.18164457954359      0.09179582653133
  F   -1.11320881474680     -1.20661280888430     -0.88466952262524
  H   0.64971266324935      1.15133646876219      0.58527358689388
  N   -1.75724054023158      0.22081743385593      0.84441058576556
  O   -1.69572881545471      1.33454489582772      1.34643259971190
  O   -2.39609411344124     -0.74573010900799      1.22186236483192
  C   -1.27982676145954      1.05456526577547     -1.37018914341374
  N   -1.62279736532830      1.89842689460675     -2.11239343718848
  N   1.51760551417205      0.23670134615195     -1.07082309068061
  O   1.11149806850714     -0.11337858865753     -2.17547625061830
  O   2.65283881427802      0.60497488360856     -0.79287115723485
  C   0.97979960284566     -0.95468867512036      1.01007918337152
  H   0.92015069450749     -1.90941859986947      0.48671612398163
  H   2.00445040966743     -0.78471084554536      1.33912093192078
  H   0.33715349263348     -0.99530546810053      1.89074888382927
