16
Coordinates from ORCA-job run
  C   -0.68759597283143      0.65247263091911     -0.46457101271138
  C   0.67776848446232      0.32248763220719      0.14144399124006
  F   -0.50595666002038      1.43752387000421     -1.55081159513415
  H   1.13824400751657      1.28833977564242      0.36233600040849
  N   -1.45853079162190     -0.60006245699983     -0.92137527732048
  O   -1.84268545719025     -1.31456479371400     -0.00639488660507
  O   -1.61654716812093     -0.74603994957886     -2.11821320107982
  C   -1.52930932768607      1.33417062232478      0.52069611149043
  N   -2.17277156967518      1.91824115265692      1.31173450280438
  N   1.53417223762398     -0.27326564443504     -0.94017894460919
  O   2.56706629809004      0.32303484889060     -1.22459960372205
  O   1.13744899302133     -1.32983028783443     -1.42457535048961
  C   0.68207655041484     -0.58990721122362      1.35198721029270
  H   0.05642880179010     -0.17499282547700      2.14363336379672
  H   1.70528363220201     -0.66627491692436      1.72470820742325
  H   0.31590794202493     -1.58133244645810      1.09518048421572
