16
Coordinates from ORCA-job run
  C   -0.71272528208379      0.37058108137578     -0.53262884178980
  C   0.46443420766704      0.02392238268850      0.37578138353406
  F   -0.54439681170739     -0.09477582401517     -1.78212966770697
  H   0.20427929421761      0.30912199388060      1.39677289363633
  N   -1.92280239983820     -0.37881457396456      0.07800121066717
  O   -2.42434252285963     -1.25947547316076     -0.59826679432133
  O   -2.23196335523267     -0.01671620705296      1.20487761535505
  C   -1.06298634733958      1.79137542966633     -0.53596241619368
  N   -1.37065780666117      2.92512131805596     -0.51042677847571
  N   1.66150696061237      0.86484784082925      0.01824071273298
  O   1.65011277204155      1.47008787970678     -1.05005222842677
  O   2.57417976677214      0.84261157495041      0.83547532109746
  C   0.85537465419369     -1.44163933064037      0.28629475905557
  H   0.02405478902432     -2.08158384057482      0.58581318969878
  H   1.14724295579412     -1.69771418941237     -0.73269737465751
  H   1.69168912539960     -1.62595006233261      0.95990701579435
