16
Coordinates from ORCA-job run
  C   -0.75729278668114     -0.01379271731419     -0.57869528525535
  C   0.49739538050914      0.19550787867546      0.27015329627184
  F   -0.82459315931952     -1.24578636523049     -1.10956121282654
  H   0.37284496386595      1.11622785278842      0.84057713415019
  N   -1.94457664711796      0.12931032931339      0.40521464328815
  O   -2.59634770301209     -0.87648594607275      0.62768596373393
  O   -2.08436540837145      1.24716645159381      0.88102294250901
  C   -0.92775561786089      1.00773982481635     -1.61239686990198
  N   -1.04312011639545      1.83340881575233     -2.44061631295321
  N   1.66865153192326      0.44492568954513     -0.63538083137949
  O   2.40799037616589      1.37538503618516     -0.33006550141134
  O   1.80940337747905     -0.32540547888405     -1.58148525616716
  C   0.79804143626609     -1.00380575961634      1.15055203075304
  H   0.97353548234090     -1.88644631390592      0.53649241714695
  H   -0.03484944474459     -1.20273359512710      1.82697267082205
  H   1.68603833495282     -0.79621570251920      1.74953017121992
