16
Coordinates from ORCA-job run
  C   -0.69544651329663      0.65726064277408     -0.44779876496251
  C   0.68205079899395      0.32171475803087      0.12812133524789
  F   -0.53608847192027      1.44069897459791     -1.53874461128991
  H   1.15430062530048      1.28535034186048      0.33231865860223
  N   -1.46989325432057     -0.59860107646764     -0.88912863267926
  O   -1.60819698299225     -0.76862980695494     -2.08574120923462
  O   -1.86570963221031     -1.29653519671544      0.03358031460491
  C   -1.51465009756630      1.34080983477747      0.55425173773867
  N   -2.12752924100075      1.92698437262495      1.36770268601091
  N   1.50422223716114     -0.28175435136223     -0.97681147350060
  O   2.48160658732380      0.35491297961376     -1.35570867106800
  O   1.13489055808149     -1.37797270683897     -1.38955435486284
  C   0.70362741413211     -0.58751738973489      1.33996145058544
  H   0.32161224303221     -1.57546645918560      1.09310937846766
  H   0.09979826092811     -0.16419435915590      2.14411945412881
  H   1.73340546835379     -0.67606055786390      1.69132270221122
