16
Coordinates from ORCA-job run
  C   -0.67732333927259      0.17651105122814     -0.62666416187990
  C   0.50607119309476      0.17062330715583      0.34250648824126
  F   -0.51925582298952     -0.75832581566727     -1.58480381955387
  H   0.35923625483290      0.97732751595163      1.06125736379161
  N   -1.90882110002520     -0.20661324187748      0.21570111560372
  O   -2.43345086393702     -1.27900408359505     -0.02778015988495
  O   -2.20270339686221      0.60917778096695      1.07843349663310
  C   -0.95209524305460      1.48046840401595     -1.23100828984102
  N   -1.18400710045624      2.51355365170088     -1.74088810853000
  N   1.71474913798972      0.56913642732986     -0.46665059984577
  O   2.36811883923733     -0.33049593995686     -0.98474853077209
  O   1.92786912182780      1.77642008237064     -0.55644580261144
  C   0.70808088128901     -1.17779342822045      1.00016662113749
  H   -0.10692313881809     -1.37863613078848      1.69793997574886
  H   0.75878633714077     -1.97277566412378      0.25861275563021
  H   1.64066824000318     -1.16957391649050      1.56537165613278
