16
Coordinates from ORCA-job run
  C   -0.79112224679998      0.55087269432615     -0.20831456452223
  C   0.67676452826990      0.18151486056678      0.01013284813267
  F   -0.93122515747474      1.86999292351041      0.07422779328084
  H   1.25538601709822      0.82612501165327     -0.65515025471877
  N   -1.11257767250364      0.36493311960692     -1.69875173816259
  O   -0.78794860991816      1.29177617839974     -2.42244370442568
  O   -1.60636320444522     -0.71024323274300     -2.01073745660729
  C   -1.73416480499569     -0.23257312772806      0.58628484604257
  N   -2.48458049599082     -0.80491266910887      1.28640681722067
  N   0.89032115230906     -1.21854408320582     -0.49466847163243
  O   1.35214769045273     -1.32316043873653     -1.62873901850833
  O   0.57752238447163     -2.13691580691990      0.25734085992429
  C   1.09045752588495      0.30942969732790      1.45964198808341
  H   0.93264380605993      1.33490973196898      1.79582685785113
  H   0.51989222379600     -0.37372881398750      2.08812024531001
  H   2.15084686378584      0.07152395506952      1.55882295273173
