16
Coordinates from ORCA-job run
  C   -0.80275241364877      0.54893525304717     -0.16396920621349
  C   0.67064440508687      0.19736963842859      0.04732944536910
  F   -0.98808566419482      1.82280515116713      0.26309574992757
  H   1.24338980755966      0.92926894257178     -0.52641008860205
  N   -1.08674750993425      0.52567414102574     -1.67332864209249
  O   -1.53749588538951     -0.52156629812564     -2.11742619750959
  O   -0.77714396119825      1.53852511924915     -2.27856804449043
  C   -1.73904809106463     -0.34541056478938      0.51275165781327
  N   -2.48558482805770     -1.01526961104399      1.12499717105145
  N   0.93759782448816     -1.12966469085965     -0.60712943024726
  O   1.42228608598676     -1.09099969591035     -1.73580243731299
  O   0.64246869192211     -2.13627097167915      0.03018534238795
  C   1.04876380331807      0.17131182194440      1.51189030405228
  H   0.48803051421439     -0.59659342997043      2.04399761082097
  H   0.84946172280761      1.14625686221504      1.95836541944030
  H   2.11421549810429     -0.04337166727041      1.61002134560540
