16
Coordinates from ORCA-job run
  C   -0.78531958029789      0.56706363487936     -0.18543769318936
  C   0.67905827171324      0.17087242809372      0.00994356614820
  F   -0.90636204169775      1.87717460608858      0.14261297598023
  H   1.26167888590650      0.82277812938666     -0.64475995031758
  N   -1.12130404903147      0.43603011911674     -1.67896976699598
  O   -0.80028078054436      1.38671834968874     -2.37222865594085
  O   -1.62421306461464     -0.62486161943434     -2.02352706796152
  C   -1.73185307818720     -0.23290995679707      0.58811317916757
  N   -2.47858688438167     -0.83263737137360      1.26916431902975
  N   0.86699930114472     -1.21986599834299     -0.53073378586601
  O   0.57135037392354     -2.15250665696443      0.21067784932895
  O   1.29156825672213     -1.30255702370136     -1.68097302548574
  C   1.10776598309580      0.25798189418327      1.45815976640794
  H   2.16438658793347     -0.00168342974060      1.54170170532195
  H   0.97241306860494      1.27821100660244      1.81879045818862
  H   0.53069874971064     -0.42880811168509      2.07646612618386
