16
Coordinates from ORCA-job run
  C   -0.70024079229823      0.64127402291048     -0.46127485338501
  C   0.67581082565916      0.33110667549273      0.13072385233458
  F   -0.54038841021208      1.41946134657384     -1.55598702346402
  H   1.12804591101125      1.30371783147850      0.33862422000467
  N   -1.46277436292853     -0.62338433557701     -0.89917550251113
  O   -1.82743308629683     -1.33527489957274      0.02586295838059
  O   -1.63341755631985     -0.78056573927884     -2.09289161752683
  C   -1.53766008453907      1.32150297203463      0.52858140050299
  N   -2.17914241437285      1.90374485672522      1.32263467362527
  N   1.52533668417231     -0.26421005190182     -0.95654965200335
  O   2.54760175233600      0.34139646564369     -1.25934828739725
  O   1.13483681179454     -1.32968626870667     -1.42637950918194
  C   0.70465161642833     -0.57121185204760      1.34838073393957
  H   0.34472079533677     -1.56826644773158      1.10482000499757
  H   0.08566008649947     -0.15561233304535      2.14489905069842
  H   1.73339222372963     -0.63499224299748      1.70807955098587
