16
Coordinates from ORCA-job run
  C   -0.71422405023579      0.63413901920609     -0.45395744213379
  C   0.67157827665038      0.33976030111763      0.12381152952824
  F   -0.57529060976426      1.41747829415841     -1.54766353709783
  H   1.11293891781514      1.31735509877263      0.33175341198839
  N   -1.46609255490783     -0.63818734940442     -0.88768021002372
  O   -1.65218765845085     -0.79143917560051     -2.07951402676041
  O   -1.80798552288580     -1.35953009108567      0.03865141292580
  C   -1.54782849291543      1.30081664186510      0.54840018700379
  N   -2.17445474494866      1.86592205921327      1.36622927479857
  N   1.51975162052758     -0.23958815098434     -0.97293242129669
  O   1.13309790598478     -1.30184803469624     -1.45311398164654
  O   2.53920796700656      0.37303970508885     -1.27092594400425
  C   0.72392414932434     -0.56760548335779      1.33709967573840
  H   0.38236039278434     -1.57016815370859      1.08969498113520
  H   0.10009029994176     -0.16885735358498      2.13811927986342
  H   1.75511410407372     -0.61328732699943      1.69202780998141
