16
Coordinates from ORCA-job run
  C   -0.68430907317565      0.67411425135892     -0.44057768582479
  C   0.68139094111888      0.31131952945590      0.14558266515668
  F   -0.50121891071223      1.48926427558482     -1.50430644702455
  H   1.15440891410235      1.26509650102762      0.39095464235403
  N   -1.47243144716307     -0.55531287909522     -0.92902880768450
  O   -1.64167471757392     -0.66296848188053     -2.12837493158009
  O   -1.85677689630603     -1.29362670330113     -0.03315896211863
  C   -1.51057247297342      1.33568027528393      0.57111785348342
  N   -2.13374908274438      1.89782492550475      1.39376906017451
  N   1.52373015354090     -0.26168852431499     -0.95949342936752
  O   2.56247627427978      0.33003028976607     -1.23181590985919
  O   1.11136289514558     -1.29861496323645     -1.47260416574079
  C   0.68441554070285     -0.63701867059332      1.32803318315605
  H   0.06964852537077     -0.23942336015717      2.13687883439216
  H   0.30478470578824     -1.61597002022061      1.04419266539301
  H   1.70951465059934     -0.73670644518258      1.68983143509020
