16
Coordinates from ORCA-job run
  C   -0.77544179698461      0.06007637457105     -0.52662579210789
  C   0.58955198414831      0.17834828783312      0.15355860886043
  F   -0.96253782431732     -1.18179993696654     -1.01646154644493
  H   0.71634516476239      1.21066465793554      0.48095116201050
  N   -1.81688988467817      0.29777410317779      0.58311935004263
  O   -1.79911516996389      1.42501127395776      1.05760713999882
  O   -2.51320070009575     -0.65021401057042      0.90054799488352
  C   -1.01597399813445      1.05809960855767     -1.56944515788267
  N   -1.23032914773241      1.84144739430069     -2.41873902472081
  N   1.61869854536540     -0.02873460215940     -0.92888042565937
  O   1.95327580312133      0.97653964406420     -1.55214631525233
  O   2.01894574714105     -1.17308869374201     -1.11540369845933
  C   0.76493640727739     -0.82318904762277      1.27494307303737
  H   0.11485155752834     -0.56372957633953      2.11243582730920
  H   0.54048834302498     -1.83332618092621      0.93787507511584
  H   1.79639496953739     -0.79587929607095      1.62766372926901
