16
Coordinates from ORCA-job run
  C   -0.62878940733378      0.74080361925863     -0.42989092965728
  C   0.69915621435920      0.24546452208561      0.15133471605007
  F   -0.40988756968589      1.75243956184500     -1.29795066876910
  H   1.27899415636916      1.15960930485898      0.32144122242123
  N   -1.40364641414627     -0.36234102322692     -1.17809014564217
  O   -1.94393405726534     -0.03971843798640     -2.21693055509517
  O   -1.43363564166021     -1.44218735473345     -0.60604707495862
  C   -1.52539579626837      1.20337456775719      0.63557710504855
  N   -2.23713914874752      1.60198179363200      1.48148563848861
  N   1.48757907239549     -0.48871037882268     -0.91348945401272
  O   1.03899607683701     -0.50749647451141     -2.05519134388695
  O   2.54900861892805     -0.97380567254357     -0.54416791926512
  C   0.63734844013881     -0.57639782526268      1.42595673097141
  H   0.10665939620848     -0.02391960834507      2.20233120306073
  H   1.65290461718499     -0.76490629009364      1.76924250784593
  H   0.13178144268618     -1.52419030391160      1.25438896740060
