16
Coordinates from ORCA-job run
  C   -0.76232169106065      0.59070883637251     -0.21085595281122
  C   0.68260965982668      0.15204934121877      0.03195733977504
  F   -0.85239367035103      1.90603968097153      0.10769233528600
  H   1.30475325108209      0.79118751024563     -0.59842794530645
  N   -1.05254042885493      0.46164652831349     -1.71376938615897
  O   -0.67719127373318      1.39714772770810     -2.40083911286590
  O   -1.57430127845770     -0.58641859472523     -2.06962026456335
  C   -1.75856403614939     -0.17305057756234      0.53639362181059
  N   -2.54693981588810     -0.73721977108340      1.20057508015762
  N   0.85169318397620     -1.24019121016981     -0.50936442136619
  O   0.47182615440411     -2.16526605123320      0.20248836350885
  O   1.34801132648223     -1.33153977998245     -1.62995572938746
  C   1.06372159264863      0.21935748328013      1.49458887354096
  H   2.11049213516126     -0.06582498388687      1.61229505895087
  H   0.44925224221128     -0.45764712766547      2.08738733504580
  H   0.93989264870251      1.24002098819861      1.85845480438382
