16
Coordinates from ORCA-job run
  C   -0.72208771751641      0.61991859950638     -0.45808836604531
  C   0.66836001138073      0.34983871563280      0.12015881601703
  F   -0.59482783137680      1.39165554524496     -1.56155806220322
  H   1.09789339671316      1.33522167803303      0.31563867187386
  N   -1.45722801360861     -0.66779992689001     -0.87560370928688
  O   -1.63625134824285     -0.84096912333793     -2.06582039960750
  O   -1.79494575082196     -1.37884903450072      0.06008036057466
  C   -1.56458124214893      1.28763375973803      0.53581714671149
  N   -2.20316524391479      1.85575127603137      1.34229650013160
  N   1.51990148085691     -0.23060746892906     -0.97368035373589
  O   1.15269257841891     -1.30984914903619     -1.43054424151596
  O   2.52084398331171      0.40054109966854     -1.29477730194721
  C   0.73451355364543     -0.54349662258247      1.34287763144645
  H   0.11271714342622     -0.14006765972936      2.14342413282066
  H   1.76823962563462     -0.57768006210860      1.69207964093654
  H   0.39892537424265     -1.55124162674080      1.10869953382966
