16
Coordinates from ORCA-job run
  C   -0.71252224281777      0.64335517644021     -0.44166028679481
  C   0.67232913294571      0.33662292066395      0.13183773551603
  F   -0.57088566151818      1.44683799826337     -1.52063965782978
  H   1.11493879198675      1.30983177916762      0.35682898471810
  N   -1.46413103961532     -0.62016418987744     -0.90033618115837
  O   -1.64319022230323     -0.75381358484281     -2.09565124752743
  O   -1.81281278749955     -1.35587766529865      0.01215105844730
  C   -1.54793752382694      1.29255839463087      0.57036248066576
  N   -2.17831843290497      1.84468138902937      1.39422045281380
  N   1.51933358382129     -0.22406133533336     -0.97576464899909
  O   1.13723171534804     -1.28318305610246     -1.46627000227729
  O   2.53180748339468      0.40018985911918     -1.27328586822158
  C   0.72254309871177     -0.59279421352480      1.32816601963530
  H   1.75501052656477     -0.65257840236899      1.67763311868826
  H   0.10541608608673     -0.20354776305225      2.13929333334206
  H   0.37218749162622     -1.58805730691382      1.06411470898176
