15

C	-0.336489	-0.022452	-1.495767
C	0.0	0.0	0.0
F	-1.729274	-0.067372	-1.64191
H	1.093814	0.0	0.0
H	-0.365416	0.913018	0.477581
C	0.179236	1.235615	-2.158123
H	-0.318165	2.111386	-1.734245
H	-0.029665	1.181066	-3.22742
H	1.255597	1.321341	-1.990212
N	0.189801	-1.182074	-2.175441
H	-0.124646	-2.015757	-1.688351
H	1.203139	-1.154265	-2.087244
C	-0.530379	-1.168325	0.686729
N	-0.956389	-2.128399	1.211558
Cl	3.357165	0.0	0.0
