15

C	-0.352691	-0.035251	-1.483186
C	0.0	0.0	0.0
F	-1.734049	-0.241452	-1.638531
H	1.094362	0.0	0.0
H	-0.345164	-0.930785	0.456452
C	-0.030575	1.273755	-2.180551
H	-0.616811	2.095271	-1.76519
H	1.032812	1.490575	-2.06189
H	-0.267003	1.180371	-3.244279
N	0.31648	-1.188548	-2.027616
H	1.28033	-1.193653	-1.699014
H	0.332352	-1.127129	-3.040569
C	-0.563931	1.13924	0.704177
N	-1.052337	2.050102	1.260889
Cl	3.345545	0.0	0.0
