15

C	-0.340505	-0.067339	-1.48354
C	0.0	0.0	0.0
F	-1.729375	-0.176947	-1.661822
H	1.094328	0.0	0.0
H	-0.353687	0.93935	0.431299
C	0.081271	1.2191	-2.173134
H	1.15282	1.368322	-2.025444
H	-0.134303	1.144047	-3.242875
H	-0.465438	2.075946	-1.770562
N	0.257658	-1.259513	-2.018444
H	1.213156	-1.329573	-1.678945
H	0.283081	-1.21115	-3.030304
C	-0.541726	-1.120788	0.755343
N	-0.97781	-2.019413	1.371299
Cl	3.358028	0.0	0.0
