15

C	-0.484052	-0.06685	-1.446167
C	0.0	0.0	0.0
F	-0.155838	1.172459	-2.045552
H	1.092346	0.0	0.0
H	-0.324552	-0.910331	0.512237
C	0.269724	-1.129082	-2.21386
H	-0.019731	-1.095696	-3.26828
H	1.340755	-0.941612	-2.122894
H	0.039705	-2.116823	-1.811439
N	-1.899101	-0.270885	-1.50712
H	-2.365214	0.487171	-1.019448
H	-2.193529	-0.242228	-2.47691
C	-0.561206	1.153859	0.690304
N	-1.066201	2.080123	1.205527
Cl	3.414582	0.0	0.0
