15

C	-0.450896	-0.003253	-1.437415
C	0.0	0.0	0.0
Br	-2.376697	0.128497	-1.640575
H	1.092231	0.0	0.0
H	-0.007001	0.822712	-1.991746
N	0.078876	-1.274068	-2.082277
O	-0.682453	-2.172447	-2.408477
O	1.299757	-1.278935	-2.184193
N	-0.509458	-1.094875	0.717157
H	-1.515915	-1.056664	0.825371
H	-0.074631	-1.17434	1.626865
N	-0.392191	1.371482	0.534163
O	0.108651	2.340708	-0.039768
O	-1.053744	1.421528	1.574925
Br	2.747836	0.0	0.0
