15

C	-0.40941	-0.056171	-1.479449
C	0.0	0.0	0.0
Br	0.246608	1.449493	-2.470971
H	1.089992	0.0	0.0
H	0.032083	-0.958304	-1.901788
N	-1.905239	-0.219139	-1.67109
O	-2.320418	-1.34498	-1.380548
O	-2.592864	0.710387	-2.062591
N	-0.426656	-1.088811	0.816455
H	-1.281309	-1.524986	0.504036
H	0.325796	-1.757239	0.90444
N	-0.554878	1.269614	0.588846
O	0.215475	2.151103	0.946223
O	-1.784352	1.306156	0.678938
Br	3.428058	0.0	0.0
