15

C	-0.478611	0.004927	-1.434165
C	0.0	0.0	0.0
Br	0.70141	0.845024	-2.705389
H	1.09228	0.0	0.0
H	-0.577997	-1.034663	-1.754296
N	-1.888786	0.570548	-1.55956
O	-2.630949	0.239427	-0.636195
O	-2.212311	1.223692	-2.536432
N	-0.467198	-1.127141	0.718715
H	-0.017767	-1.174144	1.624177
H	-1.471204	-1.077415	0.844986
N	-0.378348	1.324773	0.645941
O	-0.461852	2.322293	-0.075205
O	-0.391013	1.339112	1.878388
Br	2.748973	0.0	0.0
