15

C	-0.611664	-0.036665	-1.38859
C	0.0	0.0	0.0
Br	0.15682	-1.467845	-2.423679
H	1.088165	0.0	0.0
H	-1.690107	-0.181421	-1.368098
N	-0.398683	1.246514	-2.147048
O	-1.196827	1.471819	-3.053626
O	0.546086	1.951664	-1.816475
N	-0.436829	-1.137955	0.750233
H	0.210023	-1.313332	1.506414
H	-1.37932	-1.033415	1.102667
N	-0.474364	1.274381	0.677631
O	0.173695	1.677186	1.633949
O	-1.54965	1.75044	0.29167
Br	3.467091	0.0	0.0
