17

C	0.0	0.0	0.0
C	-0.310498	0.223845	-1.508135
Br	1.949653	0.0	0.0
H	0.049683	1.223819	-1.758196
N	-0.461297	1.180406	0.816192
O	-0.554294	2.256712	0.239236
O	-0.59196	0.993634	2.016584
C	-0.404515	-1.334977	0.590515
H	0.032081	-1.436401	1.583648
H	-0.019404	-2.129733	-0.053042
H	-1.496205	-1.313051	0.613389
N	-1.746836	0.204475	-2.041549
O	-2.21704	1.303196	-2.297627
O	-2.182746	-0.878639	-2.4016
C	0.395992	-0.76163	-2.33162
N	0.985796	-1.50963	-3.019079
F	-2.494831	0.0	0.0
