17

C	0.0	0.0	0.0
C	-0.306085	0.178805	-1.513444
Br	1.949508	0.0	0.0
H	0.05845	1.168154	-1.793388
N	-0.464446	1.200825	0.781615
O	-0.561218	2.258749	0.17243
O	-0.592915	1.050594	1.987267
C	-0.401056	-1.320095	0.625608
H	0.00876	-1.37681	1.634102
H	-1.493195	-1.312819	0.623096
H	0.014886	-2.131897	0.024041
N	-1.742809	0.15611	-2.050994
O	-2.204684	1.253569	-2.327197
O	-2.189545	-0.930013	-2.386081
C	0.395729	-0.837199	-2.30457
N	0.940242	-1.624295	-2.9864
F	-2.488629	0.0	0.0
