17

C	0.0	0.0	0.0
C	-0.525306	-0.062983	-1.446298
Br	1.938013	0.0	0.0
H	0.180765	-0.702965	-1.980264
N	-0.442328	1.218753	0.780197
O	-0.54824	2.270376	0.16385
O	-0.567098	1.083837	1.989202
C	-0.373891	-1.282147	0.737161
H	-0.044775	-2.135501	0.138008
H	-1.455025	-1.278875	0.850478
H	0.131939	-1.31045	1.700232
N	-0.417409	1.245847	-2.205431
O	-1.445865	1.832342	-2.511269
O	0.723905	1.599003	-2.495146
C	-1.872482	-0.656151	-1.636291
N	-2.477872	-1.360736	-2.374284
F	-2.555362	0.0	0.0
