15

C	-0.448888	-0.002593	-1.459056
C	0.0	0.0	0.0
Br	0.00788	-1.702275	-2.339971
H	1.09514	0.0	0.0
H	0.174507	0.716515	-2.002323
N	-1.878489	0.18521	-1.607084
H	-2.139736	1.028746	-1.105879
H	-2.104602	0.313446	-2.58718
C	-0.509791	-1.164001	0.844339
H	-0.010309	-2.078777	0.521198
H	-0.243437	-0.992469	1.890191
H	-1.592237	-1.291666	0.759381
C	-0.435368	1.273269	0.560132
N	-0.815739	2.30024	0.991654
H	2.760731	0.0	0.0
