15

C	-0.49446	0.049874	-1.434975
C	0.0	0.0	0.0
Br	0.267207	-1.527918	-2.467789
H	1.094163	0.0	0.0
H	-0.031572	0.890422	-1.952801
N	-1.910573	0.110729	-1.551415
H	-2.333266	-0.708034	-1.128001
H	-2.18764	0.143522	-2.52384
C	-0.456667	-1.212504	0.808459
H	-1.535376	-1.236804	0.987068
H	0.051203	-1.184989	1.773889
H	-0.148255	-2.126205	0.29948
C	-0.4272	1.233645	0.652364
N	-0.751804	2.223064	1.198045
H	2.751318	0.0	0.0
