15

C	-0.205725	-0.028417	-1.499734
C	0.0	0.0	0.0
Br	-2.139438	-0.10491	-2.001981
H	1.101533	0.0	0.0
H	0.203357	-0.971988	-1.868311
N	0.432063	1.047832	-2.204156
H	0.124822	1.925742	-1.795516
H	1.426979	0.946397	-1.968224
C	-0.493906	-1.226039	0.75083
H	-1.584979	-1.288918	0.772009
H	-0.096076	-2.121491	0.264446
H	-0.110925	-1.207367	1.774826
C	-0.472913	1.241995	0.579623
N	-0.839064	2.25705	1.048685
H	2.715064	0.0	0.0
