15

C	-0.448693	-0.110433	-1.455077
C	0.0	0.0	0.0
Br	-0.289911	1.738689	-2.351642
H	1.0942	0.0	0.0
H	-1.523588	-0.280708	-1.548242
N	0.281071	-1.076052	-2.134573
H	1.236855	-1.211377	-1.836052
H	-0.202824	-1.837794	-2.568215
C	-0.417573	-1.279055	0.738737
H	-1.500208	-1.444922	0.695095
H	-0.113567	-1.214789	1.78494
H	0.096672	-2.130988	0.292243
C	-0.528379	1.157633	0.701228
N	-0.964039	2.04041	1.345199
H	2.792185	0.0	0.0
