15

C	-0.333162	-0.201947	-1.490251
C	0.0	0.0	0.0
Br	-0.507248	1.560995	-2.423881
H	1.096761	0.0	0.0
H	-1.325592	-0.639053	-1.632276
N	0.661322	-0.986617	-2.143695
H	1.56953	-0.830042	-1.693994
H	0.421813	-1.968156	-2.128016
C	-0.39269	-1.265864	0.770439
H	-1.475312	-1.435962	0.767586
H	-0.049922	-1.185608	1.804411
H	0.113419	-2.126612	0.326941
C	-0.576718	1.164442	0.638561
N	-1.05935	2.071339	1.212036
H	2.78486	0.0	0.0
