15

C	-0.479568	0.056954	-1.441919
C	0.0	0.0	0.0
Br	0.235138	-1.564376	-2.444074
H	1.094163	0.0	0.0
H	0.027396	0.871457	-1.961649
N	-1.887294	0.175046	-1.580644
H	-2.355568	-0.60711	-1.14054
H	-2.15625	0.203593	-2.556141
C	-0.467966	-1.206126	0.810851
H	-0.144381	-2.123982	0.318224
H	-1.55216	-1.233491	0.965485
H	0.016132	-1.16792	1.789343
C	-0.423367	1.237271	0.647422
N	-0.740635	2.224701	1.201858
H	2.750441	0.0	0.0
