16

C	-0.132116	0.094687	-1.548626
C	0.0	0.0	0.0
Cl	-0.144573	-1.591854	-2.239519
H	1.097032	0.0	0.0
C	-1.399337	0.708025	-1.970494
N	-2.418154	1.232509	-2.234325
N	0.991358	0.800589	-2.102682
H	1.806968	0.595125	-1.484026
H	0.804834	1.795902	-2.113776
C	-0.642952	-1.134652	0.620444
N	-1.189547	-2.012015	1.181873
C	-0.416252	1.308021	0.673093
H	-0.126143	1.270458	1.725166
H	0.131725	2.135623	0.21696
H	-1.4913	1.503383	0.605976
F	2.6191	0.0	0.0
