16

C	-0.078147	0.017357	-1.534813
C	0.0	0.0	0.0
Cl	-1.725844	-0.449598	-2.190682
H	1.103192	0.0	0.0
C	0.12193	1.397277	-2.027362
N	0.355076	2.465076	-2.463263
N	0.916427	-0.895215	-2.003342
H	1.770255	-0.703269	-1.435497
H	1.093337	-0.76586	-2.99198
C	-0.499736	-1.260179	0.515565
N	-0.932566	-2.234123	1.012636
C	-0.612648	1.194138	0.711039
H	-0.496887	1.070717	1.789908
H	-1.678982	1.30375	0.487377
H	-0.089151	2.106708	0.421497
F	2.618482	0.0	0.0
