16

C	-0.480709	-0.106097	-1.445515
C	0.0	0.0	0.0
Cl	0.207948	-1.586785	-2.204062
H	1.103653	0.0	0.0
C	-1.95368	-0.271097	-1.515703
N	-3.128044	-0.295699	-1.591143
N	-0.044807	1.02632	-2.226596
H	-0.451019	0.979866	-3.154015
H	-0.342962	1.883259	-1.776977
C	-0.511851	-1.118374	0.767951
N	-0.920515	-2.003336	1.427349
C	-0.400143	1.327652	0.649845
H	-0.156626	1.27653	1.7125
H	-1.465218	1.573806	0.551443
H	0.218925	2.124454	0.231611
F	2.516566	0.0	0.0
