16

C	-0.516297	0.004151	-1.43396
C	0.0	0.0	0.0
Cl	0.279434	1.424643	-2.320438
H	1.104253	0.0	0.0
C	-0.062722	-1.18453	-2.168765
N	0.240843	-2.136877	-2.784332
N	-1.940976	0.072325	-1.513752
H	-2.248655	0.169231	-2.474202
H	-2.271697	0.86596	-0.978776
C	-0.458415	-1.209939	0.661
N	-0.797796	-2.170044	1.250131
C	-0.40079	1.231035	0.813342
H	-0.092813	2.135177	0.286328
H	0.163075	1.194602	1.747163
H	-1.468415	1.287266	1.058793
F	2.518761	0.0	0.0
