16

C	-0.101365	0.048605	-1.546915
C	0.0	0.0	0.0
Cl	0.002535	-1.708364	-2.204541
H	1.097444	0.0	0.0
C	-1.393029	0.524889	-2.059747
N	-2.421904	0.945046	-2.445344
N	0.96722	0.854802	-1.975717
H	1.102801	0.825865	-2.976018
H	1.823338	0.598423	-1.427044
C	-0.627127	-1.145819	0.619245
N	-1.156433	-2.020031	1.201427
C	-0.481983	1.307883	0.62774
H	-1.559926	1.458444	0.50915
H	-0.244138	1.300499	1.694305
H	0.05381	2.135863	0.162951
F	2.634571	0.0	0.0
