16

C	-0.095235	-0.060837	-1.536099
C	0.0	0.0	0.0
Cl	-1.735379	-0.638	-2.138321
H	1.099037	0.0	0.0
C	0.016723	1.301517	-2.100199
N	0.166909	2.366283	-2.577082
N	0.934176	-0.946074	-1.971144
H	1.112501	-0.849056	-2.962922
H	1.782549	-0.722055	-1.401592
C	-0.471884	-1.244327	0.579153
N	-0.85958	-2.21238	1.122041
C	-0.6281	1.215329	0.659374
H	-0.50269	1.143526	1.74157
H	-0.124771	2.123038	0.323719
H	-1.697661	1.294455	0.439338
F	2.624147	0.0	0.0
