16

C	-0.487533	-0.208453	-1.441586
C	0.0	0.0	0.0
Cl	0.095371	1.165927	-2.451809
H	1.103585	0.0	0.0
C	0.116942	-1.43307	-1.991257
N	0.51716	-2.442466	-2.438098
N	-1.927075	-0.306593	-1.659251
H	-2.258257	-1.112914	-1.135927
H	-2.358535	0.518569	-1.257495
C	-0.497273	-1.116732	0.780522
N	-0.924925	-2.011879	1.416246
C	-0.428876	1.322477	0.630628
H	-1.515111	1.48123	0.656046
H	-0.057992	1.337927	1.657866
H	0.049207	2.146113	0.100151
F	2.515522	0.0	0.0
