15

C	0.0	0.0	0.0
C	-0.421788	0.057173	-1.517886
Cl	1.757769	0.0	0.0
H	-1.486786	-0.097275	-1.62872
H	-0.416162	0.80401	0.599133
N	-0.391372	-1.324019	0.686707
O	-0.141319	-1.343481	1.895116
O	-0.803475	-2.252868	0.002524
C	0.19888	-1.029433	-2.277691
N	0.69609	-1.918882	-2.859767
C	-0.107236	1.416037	-2.138975
H	-0.533321	1.423237	-3.142368
H	0.963696	1.597692	-2.20848
H	-0.589484	2.203639	-1.556336
Br	-3.226411	0.0	0.0
