13

C	0.0	0.0	0.0
C	-0.530193	0.004839	-1.432756
Br	1.957697	0.0	0.0
H	-1.640754	-0.040885	-1.260234
H	-0.195449	-0.880847	-1.978606
N	-0.571293	1.109207	0.680122
H	-1.612456	0.916246	0.561386
H	-0.35779	1.047725	1.671861
C	-0.318768	-1.32128	0.600801
N	-0.497172	-2.370064	1.103606
C	-0.167418	1.208833	-2.160599
N	0.087489	2.157937	-2.804752
H	-2.903124	0.0	0.0
