13

C	0.0	0.0	0.0
C	-0.53065	0.097823	-1.428341
Br	1.958002	0.0	0.0
H	-1.641666	0.040748	-1.257258
H	-0.196546	-0.750431	-2.030782
N	-0.57062	1.06416	0.750159
H	-0.358422	0.938715	1.735937
H	-1.611795	0.879609	0.619439
C	-0.319624	-1.35768	0.513683
N	-0.495131	-2.442214	0.934286
C	-0.168772	1.346574	-2.077016
N	0.084733	2.334573	-2.660157
H	-2.898424	0.0	0.0
