13

C	0.0	0.0	0.0
C	-0.534333	-0.121237	-1.423801
Br	1.961754	0.0	0.0
H	-0.301131	0.809095	-1.948175
H	-1.644794	-0.175721	-1.242075
N	-0.572386	1.186632	0.545893
H	-0.376608	1.221604	1.541846
H	-1.613211	0.977466	0.449333
C	-0.316804	-1.230313	0.767471
N	-0.491696	-2.183368	1.434581
C	-0.052161	-1.270764	-2.167958
N	0.302599	-2.194111	-2.802309
H	-2.906158	0.0	0.0
