13

C	0.0	0.0	0.0
C	-0.518065	-0.058645	-1.434679
Br	1.962714	0.0	0.0
H	-1.629383	-0.093894	-1.273661
H	-0.246394	0.881397	-1.922527
N	-0.564704	1.170579	0.586518
H	-1.606345	0.964759	0.488757
H	-0.352871	1.178815	1.580747
C	-0.32791	-1.254876	0.719401
N	-0.513499	-2.227159	1.35595
C	-0.053935	-1.194976	-2.210527
N	0.295884	-2.101921	-2.870379
H	-2.893373	0.0	0.0
