15

C	0.0	0.0	0.0
C	-0.293282	0.005465	-1.535215
F	1.33014	0.0	0.0
H	0.486647	0.697025	-1.872921
N	-0.424339	1.321194	0.630102
O	-0.716421	1.36963	1.809539
O	-0.268302	2.268281	-0.136161
N	-0.378833	-1.230499	0.810282
O	-0.855797	-2.186811	0.223703
O	0.004427	-1.189549	1.973403
C	-1.505271	0.545973	-2.166834
N	-2.139149	1.164781	-2.939747
C	0.068444	-1.286846	-2.130846
N	0.470925	-2.280406	-2.609273
Cl	-3.003729	0.0	0.0
