15

C	0.0	0.0	0.0
C	-0.312647	-0.289582	-1.492585
F	1.330204	0.0	0.0
H	0.369672	-1.127416	-1.681983
N	-0.374222	1.369636	0.540845
O	1e-06	1.59	1.686247
O	-0.864807	2.165519	-0.243363
N	-0.428615	-1.162877	0.888514
O	-0.686024	-0.969056	2.06096
O	-0.32128	-2.246971	0.32173
C	0.193681	0.814134	-2.319476
N	0.685984	1.636252	-2.998011
C	-1.607971	-0.761846	-2.004722
N	-2.240044	-1.288176	-2.855398
Cl	-3.034931	0.0	0.0
