17

C	-0.212205	0.020768	-1.492885
C	0.0	0.0	0.0
Br	-2.15208	0.191633	-2.008369
H	1.099611	0.0	0.0
H	0.059104	-0.953275	-1.90676
C	0.604281	1.117517	-2.137231
H	0.238211	2.091581	-1.812679
H	1.615134	0.967137	-1.736879
H	0.590925	1.055758	-3.228548
C	-0.54908	-1.238577	0.683925
H	-1.646542	-1.268348	0.652591
H	-0.165826	-2.149327	0.212668
H	-0.230537	-1.2499	1.731253
N	-0.423991	1.261931	0.606208
H	-1.358463	1.173482	0.993459
H	0.219961	1.469786	1.360384
F	2.709167	0.0	0.0
