17

C	-0.338089	-0.128869	-1.493098
C	0.0	0.0	0.0
Br	-0.1915	1.623845	-2.395151
H	1.096157	0.0	0.0
H	-1.38219	-0.417863	-1.676521
C	0.678661	-1.062343	-2.145572
H	1.660185	-0.792738	-1.741938
H	0.664126	-0.996542	-3.233813
H	0.461305	-2.099083	-1.864481
C	-0.467647	-1.259516	0.723549
H	-0.064197	-2.169115	0.274303
H	-1.565638	-1.334849	0.736067
H	-0.110693	-1.225947	1.757048
N	-0.559297	1.199588	0.626913
H	0.21684	1.716733	1.025466
H	-1.183189	0.944899	1.385456
F	2.747615	0.0	0.0
