17

C	-0.442667	0.022468	-1.459847
C	0.0	0.0	0.0
Br	0.256664	-1.545931	-2.446763
H	1.095393	0.0	0.0
H	0.067462	0.860962	-1.941103
C	-1.941737	0.068636	-1.720114
H	-2.393101	0.924431	-1.205943
H	-2.155231	0.166044	-2.787534
H	-2.424421	-0.840763	-1.358019
C	-0.593943	-1.129235	0.819085
H	-0.41559	-2.101973	0.353189
H	-0.106352	-1.122669	1.795988
H	-1.673426	-1.00673	0.982585
N	-0.310661	1.29795	0.635942
H	-1.125921	1.754017	0.240248
H	0.500619	1.888032	0.487827
F	2.682714	0.0	0.0
