13

C	-0.215889	0.007083	-1.494296
C	0.0	0.0	0.0
F	-1.483989	-0.517206	-1.87466
H	1.093515	0.0	0.0
H	-0.254645	1.048054	-1.844909
H	-0.349474	-0.964908	0.391609
N	0.820742	-0.791248	-2.080763
H	0.977141	-0.529557	-3.044751
H	1.682344	-0.633197	-1.535198
N	-0.563269	1.169381	0.679887
H	-1.421917	0.921313	1.153735
H	0.099952	1.452873	1.389943
F	2.767576	0.0	0.0
