13

C	-0.605738	0.076597	-1.366439
C	0.0	0.0	0.0
F	-2.046013	0.115653	-1.222234
H	1.091759	0.0	0.0
H	-0.366841	1.025869	-1.84668
H	-0.34735	-0.946459	0.454987
N	-0.244763	-1.011676	-2.204864
H	-0.862909	-1.052747	-3.004769
H	-0.312478	-1.879573	-1.690619
N	-0.407057	1.181733	0.77572
H	0.362323	1.389277	1.399717
H	-1.230678	0.993458	1.328678
F	2.728339	0.0	0.0
