13

C	-0.157552	-0.209079	-1.485762
C	0.0	0.0	0.0
F	-1.437972	-0.68412	-1.841697
H	1.100693	0.0	0.0
H	-0.032276	0.754974	-1.987343
H	-0.347619	-0.908999	0.519606
N	0.834841	-1.13981	-1.994448
H	1.714239	-0.819672	-1.554944
H	0.642857	-2.031576	-1.543115
N	-0.578017	1.248262	0.494864
H	0.006056	1.582256	1.251027
H	-1.503979	1.085918	0.870833
F	2.758328	0.0	0.0
