13

C	-0.217904	-0.087681	-1.491745
C	0.0	0.0	0.0
F	-1.484219	-0.637305	-1.83731
H	1.093507	0.0	0.0
H	-0.258642	0.928165	-1.908427
H	-0.347566	-0.939277	0.450258
N	0.818951	-0.921866	-2.026397
H	0.976278	-0.720743	-3.005217
H	1.679961	-0.727874	-1.491975
N	-0.564024	1.20744	0.608855
H	-1.422473	0.986356	1.095514
H	0.099427	1.534837	1.299608
F	2.767898	0.0	0.0
