13

C	-0.149883	0.076098	-1.525624
C	0.0	0.0	0.0
F	-0.106926	-1.280533	-2.025852
H	1.095963	0.0	0.0
H	-1.115667	0.433147	-1.911865
H	-0.369777	0.929616	0.443727
N	0.928594	0.851222	-1.999204
H	1.052134	0.757543	-2.997139
H	1.784992	0.593858	-1.471799
N	-0.581544	-1.162039	0.660887
H	-1.516688	-1.326245	0.299601
H	-0.028619	-1.959747	0.373162
F	2.795126	0.0	0.0
