13

C	-0.577539	0.086863	-1.386652
C	0.0	0.0	0.0
F	-1.967139	0.508692	-1.29202
H	1.094254	0.0	0.0
H	-0.106288	0.888155	-1.961551
H	-0.337818	0.892208	0.542892
N	-0.499246	-1.148082	-2.068729
H	-1.117337	-1.149321	-2.868125
H	-0.764144	-1.865076	-1.400951
N	-0.439659	-1.248892	0.657772
H	-1.145329	-1.065918	1.358396
H	0.379289	-1.619631	1.124259
F	2.725982	0.0	0.0
