13

C	-0.154699	0.118	-1.516919
C	0.0	0.0	0.0
F	-0.138538	-1.21129	-2.064793
H	1.096032	0.0	0.0
H	-1.116994	0.522378	-1.861318
H	-0.452298	-0.922911	0.361977
N	0.933329	0.892614	-1.984881
H	1.05365	0.81293	-2.98596
H	1.786918	0.60128	-1.471823
N	-0.479533	1.163579	0.749093
H	-1.400723	1.440718	0.421767
H	0.149115	1.924594	0.527187
F	2.792148	0.0	0.0
