17

C	0.0	0.0	0.0
C	-0.510899	0.151911	-1.433022
Cl	1.758757	0.0	0.0
H	-1.529318	0.524364	-1.250408
H	-0.381907	-0.89052	0.482468
N	-0.432432	1.125226	0.902222
O	-0.537006	0.854227	2.093341
O	-0.549904	2.243618	0.415707
C	-0.690452	-1.249054	-2.006739
H	-0.996521	-1.194699	-3.057288
H	-1.494268	-1.716273	-1.436567
H	0.226082	-1.851485	-1.954858
C	0.312662	1.055185	-2.341801
H	-0.27259	1.25637	-3.24549
H	0.529495	2.011094	-1.863537
H	1.258122	0.598853	-2.652817
F	-2.610256	0.0	0.0
