17

C	0.0	0.0	0.0
C	-0.38921	0.121617	-1.51624
Cl	1.755786	0.0	0.0
H	0.557126	0.217666	-2.060035
H	-0.377133	-0.907549	0.450747
N	-0.418523	1.082534	0.950342
O	-0.421013	2.244664	0.562975
O	-0.596835	0.725927	2.109579
C	-1.255922	1.302361	-1.953641
H	-1.470854	1.175859	-3.022508
H	-0.742716	2.254959	-1.820973
H	-2.17232	1.2604	-1.365577
C	-1.030676	-1.204243	-1.931003
H	-1.180632	-1.22804	-3.016231
H	-1.978566	-1.246001	-1.391314
H	-0.395293	-2.058838	-1.664721
F	-2.522759	0.0	0.0
