17

C	0.0	0.0	0.0
C	-0.39602	0.258288	-1.492474
Cl	1.763662	0.0	0.0
H	0.545914	0.401801	-2.03243
H	-0.377307	-0.943291	0.37201
N	-0.4162	0.998598	1.040967
O	-0.339337	2.192276	0.769839
O	-0.685386	0.538478	2.143785
C	-1.267345	1.474781	-1.806192
H	-2.178875	1.370508	-1.216163
H	-1.49425	1.449077	-2.879851
H	-0.753273	2.411418	-1.588534
C	-1.046392	-1.026396	-2.009531
H	-0.399488	-1.896262	-1.839858
H	-1.227173	-0.951174	-3.087818
H	-1.982837	-1.112421	-1.452813
F	-2.577352	0.0	0.0
