16

C	-0.519932	-0.035272	-1.448427
C	0.0	0.0	0.0
Cl	0.018275	1.500761	-2.28768
H	1.089325	0.0	0.0
C	0.151006	-1.141337	-2.142867
N	0.598859	-2.057529	-2.725873
N	-1.927412	-0.259676	-1.522188
H	-2.229955	-0.324242	-2.485837
H	-2.406013	0.494276	-1.043025
N	-0.468304	-1.10514	0.773538
H	-1.280061	-1.545105	0.362931
H	0.285018	-1.761357	0.922304
N	-0.479085	1.269247	0.675693
O	0.317992	1.88082	1.370188
O	-1.672263	1.570243	0.544395
Cl	3.281167	0.0	0.0
