16

C	-0.307838	-0.034767	-1.510154
C	0.0	0.0	0.0
Cl	-2.055499	-0.424041	-1.797786
H	1.093794	0.0	0.0
C	-0.018932	1.231348	-2.19038
N	0.25584	2.212728	-2.773387
N	0.483019	-1.063103	-2.155985
H	0.32264	-1.931367	-1.654943
H	1.462747	-0.818003	-1.997164
N	-0.427876	-1.143854	0.727024
H	0.339382	-1.759874	0.940677
H	-1.22854	-1.61726	0.337833
N	-0.513987	1.241182	0.68832
O	-0.170282	1.390478	1.853079
O	-1.247197	2.004901	0.055915
Cl	3.224353	0.0	0.0
