16

C	-0.316552	0.002587	-1.518591
C	0.0	0.0	0.0
Cl	0.121884	-1.709067	-2.116728
H	1.090855	0.0	0.0
C	-1.740759	0.12773	-1.848463
N	-2.878934	0.200741	-2.132529
N	0.443422	1.023949	-2.11106
H	0.390912	1.018045	-3.120317
H	1.411812	0.979943	-1.790352
N	-0.531732	-1.030192	0.815192
H	-1.457421	-1.319777	0.533448
H	0.10429	-1.813225	0.82181
N	-0.500985	1.323242	0.521462
O	-1.709235	1.376988	0.760201
O	0.29781	2.239275	0.671577
Cl	3.2934	0.0	0.0
