16

C	-0.286516	-0.067112	-1.527657
C	0.0	0.0	0.0
Cl	-2.02532	-0.510299	-1.842807
H	1.093375	0.0	0.0
C	-0.098484	1.216454	-2.223599
N	0.085873	2.187505	-2.861626
N	0.56043	-1.115506	-2.020506
H	0.577016	-1.114659	-3.032369
H	1.508046	-0.952717	-1.667507
N	-0.453565	-1.101156	0.771397
H	0.178688	-1.877259	0.629331
H	-1.399252	-1.370196	0.532367
N	-0.560836	1.271699	0.546296
O	0.095628	2.297001	0.376972
O	-1.662321	1.208202	1.092445
Cl	3.261281	0.0	0.0
