14
Coordinates from ORCA-job run
  C   0.36626697842382      0.02939460807481     -0.50182315279557
  C   -0.49160400411647     -0.74282164835094      0.47739530164497
  H   0.13031552618128     -0.21053577666616     -1.53610666285261
  H   -0.15877090232265     -0.51328446515361      1.49583531359402
  H   -0.30909855023010     -1.80200469156357      0.28419649808219
  N   1.81849336919958     -0.28224331749820     -0.27906309604475
  O   2.50908288042887      0.54102338092349      0.30922033320800
  O   2.16444306137642     -1.38971077826832     -0.67586026628914
  N   0.19911867744016      1.50821605118776     -0.34882635488219
  O   -0.23051035768513      1.92751809721663      0.72254216466935
  O   0.53632301266014      2.18288376199770     -1.31593584438302
  N   -1.88109688692498     -0.41609263118751      0.19838438505832
  H   -2.48114664549097     -1.20157620616101      0.40554840783191
  H   -2.17281615893997      0.36823361544893      0.76549297315852
