14
Coordinates from ORCA-job run
  C   0.38401111346156      0.16845562492697     -0.45958619738035
  C   -0.62244143028983     -0.78143470855131      0.15357999430772
  H   0.14947457122659      0.40719455237828     -1.49445064740869
  H   -0.29255941800262     -1.04057047363708      1.16587534704277
  H   -0.60877781851725     -1.68675683191946     -0.45697935519647
  N   1.75760917841808     -0.43802699071748     -0.42945290500352
  O   1.93397177929844     -1.33185621316786     -1.25023981520954
  O   2.55077610992349     -0.04561179603120      0.41768135038146
  N   0.45345212927654      1.46625006357454      0.28174693001153
  O   0.92633161000792      2.40969099858989     -0.34321132896037
  O   0.06271168725735      1.48155980269323      1.44590027115535
  N   -1.92904584902727     -0.14768078324893      0.07785899235678
  H   -2.10887858103155      0.37848324427197      0.92199948843940
  H   -2.65663508200146     -0.83969648916156     -0.02972212453606
