14
Coordinates from ORCA-job run
  C   0.70460058862075      0.18781690399744      0.26193749689007
  C   -0.45940105563162     -0.62952821235516      0.78516151731235
  H   1.51707732483594      0.29845989912389      0.97977380579581
  H   -0.11229311905213     -1.66548644785055      0.89893161954859
  H   -0.67767175520686     -0.23870175191050      1.78129543858051
  N   0.21885667043843      1.57518286093007     -0.06108246746337
  O   -0.08985864174725      2.23212377321440      0.92438954269860
  O   0.14109583421227      1.90926169365903     -1.23285304928255
  N   1.31829975046075     -0.37697132744160     -0.98161231606270
  O   0.67998185591465     -1.21717538897097     -1.61116515905357
  O   2.42691698728945      0.06169785236070     -1.27003568442119
  N   -1.62411674369987     -0.44530851876014     -0.05762373902292
  H   -2.47075742281332     -0.65046215272360      0.45276397634672
  H   -1.57273027362118     -1.04190918327302     -0.87088098186633
