14
Coordinates from ORCA-job run
  C   0.70501866280123      0.17159968485453      0.27176993765518
  C   -0.47717087599646     -0.63544274627839      0.76959261911497
  H   1.58155660534132      0.10332358468407      0.91571687328661
  H   -0.83539651372944     -0.16268979608318      1.69415567689338
  H   -0.08157071322363     -1.61978459221170      1.02890347675053
  N   0.40888825548151      1.63157055187749      0.12069000660198
  O   1.38912701782274      2.36157241321954      0.01638676876989
  O   -0.76796175669474      1.98455914099173      0.10854910246740
  N   1.11665517595566     -0.35037252776283     -1.07848109537108
  O   1.60916877750577     -1.47036491838854     -1.04567835639708
  O   0.90359660071862      0.34076123071277     -2.06216778992874
  N   -1.46288818847998     -0.78718796291752     -0.28213212919485
  H   -2.04062772646666     -1.59841757127752     -0.11627271024225
  H   -2.04939532103595      0.03287350857953     -0.34103238040597
