14
Coordinates from ORCA-job run
  C   0.18187439423457      0.57044187209422     -0.19276886669236
  C   -0.74120448677869     -0.32766555534634      0.60985779211506
  H   -0.35191448170180      1.27445958865337     -0.83036081239502
  H   -0.12212099815161     -0.94306812009803      1.26592520794483
  H   -1.36789545415062      0.30147803520876      1.24277088122133
  N   1.03312407086720     -0.26374099548147     -1.09355658837220
  O   1.07415853895955      0.05288196608715     -2.27605022444222
  O   1.61759745250286     -1.20245351477746     -0.56067685994889
  N   1.11227081067089      1.37262469111204      0.67788816319760
  O   2.21275376497266      1.65327753208243      0.21974455103615
  O   0.65906483529803      1.72181031294183      1.76340082814531
  N   -1.50239709997932     -1.12440040666062     -0.34239557165812
  H   -1.31003507442138     -2.10864731058047     -0.23554270369850
  H   -2.49527627232233     -0.97499809523540     -0.24823579645298
