15
Coordinates from ORCA-job run
  C   0.58298892584323     -0.29572684704129     -0.06437614181132
  C   -0.76374204239562      0.42923240863824     -0.08685383301033
  F   0.35159693467290     -1.64154249881155      0.00662237392039
  H   -0.60538212788369      1.47483028383826      0.18824688170061
  N   1.35831398301658      0.09329138473401      1.19875611498820
  O   2.09880784134330     -0.76577103690318      1.65213388814231
  O   1.22617915454198      1.24534615574510      1.58545057376092
  N   1.39014516615300      0.10449711712852     -1.13817641692708
  H   2.31089145421596     -0.31447857135174     -1.07399990391047
  H   0.97109021116257     -0.12459495176572     -2.03121605883384
  N   -1.70201016760376     -0.13835690633601      0.96478582586730
  O   -2.89063481278152     -0.17129582138579      0.67967279387812
  O   -1.18606215257410     -0.44295464281127      2.03120010323927
  C   -1.37157201281077      0.32085631591612     -1.40491568186768
  N   -1.77161035490004      0.22766761040631     -2.50533051913643
