15
Coordinates from ORCA-job run
  C   0.60831475476393     -0.42452391508291     -0.09735944557503
  C   -0.69411908862957      0.40237151413559     -0.09574873210540
  F   0.28822026117501     -1.72560843761795     -0.19280514220008
  H   -0.45164298024560      1.45126168126417      0.09567360115217
  N   1.33943951497393     -0.17630457337795      1.22059334466053
  O   1.48796997524562      1.01430775667987      1.48350312645746
  O   1.74197178966254     -1.13845981430409      1.84146382012354
  N   1.53370065195700     -0.09828956846365     -1.11453394163775
  H   1.82112577506740      0.87131427940158     -1.08634145770204
  H   1.18592359244029     -0.35540990012082     -2.02968941607187
  N   -1.66776739640711      0.01378134854779      1.00756209043559
  O   -2.82910504208076      0.35032679266511      0.82763182309603
  O   -1.19992257211820     -0.55473550580675      1.98454970211560
  C   -1.35069873138456      0.25390245666865     -1.38696330445204
  N   -1.81341050441993      0.11606588541138     -2.45753606829674
