15
Coordinates from ORCA-job run
  C   0.63885196772494     -0.10822779857878     -0.26385461472906
  C   -0.87980537720471     -0.22219852189557     -0.10652258946643
  F   0.86750052320037      0.01030002642988     -1.63119310292709
  H   -1.22904719043712     -1.10365744757326     -0.64162959034320
  N   1.28414086511752     -1.45214461040124      0.08388090500302
  O   0.54547181273474     -2.41623753566845      0.25105697370307
  O   2.50622538611761     -1.44038037002687      0.13027491123749
  N   1.22887655693328      0.85506671910988      0.53029516152081
  H   0.77816438211606      1.75700876117848      0.45963881978261
  H   2.23107423151410      0.89647870594647      0.40304802228078
  N   -1.51794192038766      0.96574709016845     -0.80206054698565
  O   -1.23379311820860      2.07729279746331     -0.36733808803050
  O   -2.26291552259788      0.70853835741306     -1.73684404441107
  C   -1.29631680635904     -0.25020196549485      1.28647189593121
  N   -1.65948579026362     -0.27738420807050      2.40277588743400
