15
Coordinates from ORCA-job run
  C   0.64811813130608     -0.08923334087391     -0.25012224924587
  C   -0.86745201794128     -0.25992185277741     -0.11836503215471
  F   0.89974722057938      0.00440545710138     -1.61417747514825
  H   -1.17218221189318     -1.16604517224151     -0.63920011543448
  N   1.33887501479064     -1.39773043540703      0.14508983822445
  O   2.55868184732759     -1.33657075428844      0.20949175623633
  O   0.63560896907917     -2.38521322008533      0.32743286392314
  N   1.18374065342778      0.91581517965096      0.53132825519926
  H   2.18526315237491      0.99660739157841      0.41665253300888
  H   0.69707007795099      1.79615179470809      0.43201462194115
  N   -1.53794689644037      0.88608791479535     -0.85166118655778
  O   -1.30867547371539      2.01677733829407     -0.43423244157632
  O   -2.25269644289712      0.58018199653889     -1.79533956598927
  C   -1.31090102916913     -0.27411806878606      1.26668071150356
  N   -1.69725099478009     -0.28719422820746      2.37540748606991
