17

C	0.0	0.0	0.0
C	-0.513266	0.051515	-1.431052
Cl	1.885476	0.0	0.0
H	-0.078487	0.95204	-1.88871
C	-0.37069	1.225671	0.8073
H	-0.001101	2.132952	0.322308
H	-1.4593	1.210918	0.859569
H	0.068173	1.163405	1.806969
N	-0.388607	-1.204	0.623399
H	-0.342584	-1.955981	-0.053397
H	0.172778	-1.405832	1.437292
C	-2.014496	0.171634	-1.621047
N	-2.689684	0.296461	-2.599351
N	-0.098891	-1.172372	-2.14057
H	0.871481	-1.074708	-2.419929
H	-0.673989	-1.21971	-2.974189
F	-2.733083	0.0	0.0
