17

C	0.0	0.0	0.0
C	-0.22401	0.144659	-1.534428
Cl	1.921104	0.0	0.0
H	0.424115	0.969749	-1.864005
C	-0.403512	1.248521	0.746859
H	-0.051346	1.176412	1.777467
H	-1.49858	1.245447	0.708019
H	0.017568	2.143222	0.281883
N	-0.534004	-1.157204	0.583935
H	-0.421224	-1.911741	-0.088658
H	-1.562367	-0.894651	0.564823
C	-1.570624	0.531685	-2.003083
N	-2.365714	0.924317	-2.778243
N	0.121333	-1.121732	-2.196738
H	-0.179958	-1.079651	-3.16255
H	1.130302	-1.215478	-2.17925
F	-2.782026	0.0	0.0
