17

C	0.0	0.0	0.0
C	-0.332038	0.093093	-1.528474
Cl	1.788978	0.0	0.0
H	0.287517	0.906771	-1.923799
C	-0.411172	1.240775	0.784461
H	0.025623	1.193825	1.788417
H	-1.504275	1.220345	0.821989
H	-0.042952	2.150278	0.297328
N	-0.475587	-1.259008	0.523409
H	-0.137396	-1.361988	1.475064
H	-1.507693	-1.105858	0.529173
C	-1.692077	0.4567	-1.972567
N	-2.489162	0.794822	-2.775706
N	0.038437	-1.124715	-2.258541
H	-0.345995	-1.893539	-1.715628
H	1.04222	-1.214559	-2.172947
F	-2.759907	0.0	0.0
