17

C	0.0	0.0	0.0
C	-0.494544	0.010603	-1.45692
Cl	1.805168	0.0	0.0
H	-1.592397	0.063803	-1.275225
C	-0.437435	1.279867	0.695767
H	-0.062748	1.254922	1.720759
H	-0.05228	2.153833	0.172409
H	-1.530577	1.25393	0.677352
N	-0.516683	-1.119001	0.735557
H	-0.287889	-1.981685	0.249791
H	-1.54358	-0.951547	0.658215
C	-0.174635	-1.269808	-2.113928
N	0.067804	-2.266084	-2.690738
N	-0.023882	1.1615	-2.219896
H	-0.545761	1.220829	-3.086021
H	0.955556	1.033087	-2.45052
F	-2.883241	0.0	0.0
