14

C	0.0	0.0	0.0
C	-0.502291	0.221796	-1.425167
F	1.379138	0.0	0.0
H	-1.605398	0.332035	-1.204568
H	-0.382011	-0.951967	0.362797
C	-0.429478	1.073005	0.913819
N	-0.541262	1.987461	1.641735
C	-0.238852	-1.014559	-2.280866
H	-0.533427	-0.841274	-3.31888
H	-0.844189	-1.835813	-1.889346
H	0.81693	-1.301439	-2.265921
C	0.105594	1.407534	-2.011369
N	0.606389	2.340027	-2.524145
F	-2.569796	0.0	0.0
