14

C	0.0	0.0	0.0
C	-0.364482	0.026259	-1.500719
F	1.381757	0.0	0.0
H	0.496597	-0.445431	-1.989816
H	-0.349709	-0.91084	0.474401
C	-0.451382	1.164527	0.769579
N	-0.553201	2.148387	1.406565
C	-0.458771	1.452478	-2.029172
H	-1.339444	1.924637	-1.593868
H	0.433849	2.012079	-1.742608
H	-0.537742	1.450548	-3.118455
C	-1.533017	-0.756951	-1.907695
N	-2.231577	-1.434024	-2.571672
F	-2.329585	0.0	0.0
