14

C	0.0	0.0	0.0
C	-0.494098	0.186796	-1.433415
F	1.379041	0.0	0.0
H	-1.600505	0.282361	-1.225166
H	-0.38162	-0.943526	0.381788
C	-0.434868	1.093791	0.885192
N	-0.558379	2.021739	1.593954
C	-0.185352	-1.056471	-2.265391
H	-0.474451	-0.909261	-3.308649
H	0.87917	-1.307789	-2.235506
H	-0.765808	-1.892113	-1.86657
C	0.096775	1.375369	-2.030761
N	0.580473	2.312135	-2.552102
F	-2.563787	0.0	0.0
