14

C	0.0	0.0	0.0
C	-0.404445	-0.230167	-1.481378
F	1.37803	0.0	0.0
H	0.544598	-0.462325	-1.987658
H	-0.355493	-0.804391	0.635095
C	-0.453652	1.284762	0.546555
N	-0.550711	2.362859	1.005515
C	-1.039457	0.97838	-2.170319
H	-0.370414	1.841712	-2.110209
H	-1.223769	0.754411	-3.22516
H	-1.970696	1.168663	-1.640267
C	-1.238188	-1.424506	-1.638123
N	-1.737196	-2.452389	-1.912871
F	-2.362805	0.0	0.0
