14

C	0.0	0.0	0.0
C	-0.345565	0.05216	-1.501266
F	1.382108	0.0	0.0
H	0.425634	-0.576859	-1.968569
H	-0.355192	-0.916322	0.459035
C	-0.456027	1.158119	0.77533
N	-0.546961	2.137441	1.419905
C	-0.177054	1.470073	-2.047914
H	-0.248965	1.464504	-3.138294
H	-0.959366	2.1134	-1.643898
H	0.800169	1.867381	-1.760306
C	-1.636403	-0.510202	-1.924926
N	-2.3842	-0.99483	-2.699669
F	-2.338464	0.0	0.0
