14

C	0.0	0.0	0.0
C	-0.2047	-0.034743	-1.563799
F	1.378114	0.0	0.0
H	0.449006	0.788214	-1.887266
H	-0.412864	-0.860899	0.506311
C	-0.481211	1.232149	0.63163
N	-0.646952	2.187762	1.296343
C	-1.536858	0.104365	-2.287676
H	-2.166144	-0.748818	-2.066425
H	-1.314651	0.177647	-3.364955
H	-2.063162	0.976951	-1.92221
C	0.453435	-1.257321	-2.054264
N	0.942823	-2.242986	-2.469705
F	-2.376027	0.0	0.0
