14

C	0.0	0.0	0.0
C	-0.421607	0.149911	-1.458395
Cl	1.767281	0.0	0.0
H	0.195382	0.929251	-1.920554
H	-0.381151	-0.879796	0.496745
H	-1.476034	0.431521	-1.415438
N	-0.424791	1.163155	0.849326
O	-0.383998	2.283153	0.347782
O	-0.685134	0.912333	2.022424
C	-0.282582	-1.177064	-2.195967
H	0.752819	-1.530988	-2.256889
H	-0.898486	-1.924503	-1.686664
H	-0.66201	-1.075009	-3.220109
F	-2.480884	0.0	0.0
