14

C	0.0	0.0	0.0
C	-0.474249	0.263017	-1.416005
Cl	1.767416	0.0	0.0
H	0.209494	0.962448	-1.904471
H	-0.380093	-0.919816	0.424019
H	-1.481414	0.661952	-1.278083
N	-0.41901	1.073881	0.962869
O	-0.503161	2.219451	0.537462
O	-0.53044	0.741917	2.137714
C	-0.591444	-1.059378	-2.160639
H	-1.407189	-1.606445	-1.684722
H	0.329326	-1.653458	-2.132654
H	-0.853802	-0.895992	-3.210871
F	-2.555094	0.0	0.0
