14

C	0.0	0.0	0.0
C	-0.468917	0.160444	-1.439432
Cl	1.758361	0.0	0.0
H	-1.397298	0.720705	-1.375877
H	-0.386374	-0.88251	0.49152
H	0.296349	0.686907	-2.018445
N	-0.420305	1.14811	0.875456
O	-0.495158	2.258196	0.362312
O	-0.536132	0.908907	2.072303
C	-0.806416	-1.206424	-2.018976
H	-1.07339	-1.126367	-3.077759
H	-1.6784	-1.538782	-1.455413
H	0.016401	-1.925987	-1.932284
F	-2.522111	0.0	0.0
