14

C	0.0	0.0	0.0
C	-0.273329	-0.076551	-1.537254
Cl	1.765655	0.0	0.0
H	-0.136283	-1.143982	-1.755986
H	-0.416862	-0.804706	0.584449
H	0.572859	0.428993	-2.009598
N	-0.428001	1.270416	0.655412
O	-0.441935	2.287499	-0.031218
O	-0.59358	1.232964	1.86915
C	-1.522996	0.422746	-2.251569
H	-1.692524	1.475664	-2.034347
H	-1.337402	0.307919	-3.331488
H	-2.394305	-0.119924	-1.909888
F	-2.402234	0.0	0.0
