14

C	-0.532559	-0.01535	-1.425286
C	0.0	0.0	0.0
F	-0.255549	-1.207262	-2.001017
H	1.091352	0.0	0.0
H	-1.607836	0.177406	-1.480042
N	0.105278	1.079803	-2.25449
O	-0.295931	2.20751	-1.977941
O	0.902539	0.771783	-3.124484
C	-0.508123	-1.170615	0.687439
N	-0.844101	-2.151838	1.241358
N	-0.500508	1.225519	0.700109
O	-1.657281	1.196602	1.132023
O	0.27263	2.173184	0.792616
H	2.549407	0.0	0.0
