14

C	-0.574474	-5.2e-05	-1.397171
C	0.0	0.0	0.0
F	-0.226495	-1.162922	-2.03044
H	1.092651	0.0	0.0
H	-1.657454	0.115901	-1.432712
N	-0.04433	1.113476	-2.273405
O	-0.777509	1.409139	-3.217743
O	1.063885	1.573831	-2.041053
C	-0.395027	-1.201065	0.701934
N	-0.730605	-2.184217	1.253185
N	-0.426826	1.166768	0.718274
O	-0.160298	1.215171	1.930804
O	-0.903524	2.113706	0.05223
H	2.338415	0.0	0.0
