14

C	-0.392513	0.016108	-1.449379
C	0.0	0.0	0.0
F	-1.74454	0.040387	-1.644551
H	1.091798	0.0	0.0
H	0.071303	0.856898	-1.954817
N	0.131592	-1.225154	-2.120572
O	-0.526486	-2.254209	-1.990462
O	1.184383	-1.100125	-2.741393
C	-0.520555	-1.109567	0.757641
N	-0.886777	-2.044243	1.37087
N	-0.315785	1.273078	0.617165
O	-0.542586	1.291366	1.835987
O	-0.156323	2.283	-0.089443
H	2.35185	0.0	0.0
