14

C	-0.368728	0.034599	-1.451834
C	0.0	0.0	0.0
F	-1.709396	0.197418	-1.676638
H	1.092339	0.0	0.0
H	0.177162	0.831595	-1.954551
N	0.017661	-1.244279	-2.15934
O	0.593803	-2.124645	-1.531188
O	-0.269907	-1.274363	-3.353993
C	-0.573224	-1.082805	0.759593
N	-1.012	-1.993892	1.360317
N	-0.297884	1.287376	0.612812
O	-0.466592	1.319698	1.837864
O	-0.181165	2.28854	-0.110783
H	2.374721	0.0	0.0
