14

C	-0.500339	-0.061578	-1.436455
C	0.0	0.0	0.0
F	-0.204541	-1.266094	-1.971762
H	1.091364	0.0	0.0
H	-1.572329	0.130225	-1.527971
N	0.169562	1.015199	-2.264577
O	-0.192758	2.153111	-1.977527
O	0.957545	0.688024	-3.1366
C	-0.512036	-1.147709	0.721281
N	-0.855948	-2.101643	1.316965
N	-0.543008	1.244632	0.645264
O	-1.753486	1.25927	0.881607
O	0.240113	2.154653	0.879172
H	2.565544	0.0	0.0
