14

C	-0.413668	0.038204	-1.444067
C	0.0	0.0	0.0
F	-1.765133	0.148594	-1.61408
H	1.092149	0.0	0.0
H	0.092373	0.848114	-1.962455
N	0.019657	-1.238776	-2.116727
O	1.106728	-1.20514	-2.68681
O	-0.737572	-2.201671	-2.03703
C	-0.514039	-1.119253	0.748561
N	-0.86856	-2.073627	1.337846
N	-0.308193	1.264427	0.640966
O	-0.201007	2.281486	-0.063004
O	-0.476362	1.269764	1.867613
H	2.358677	0.0	0.0
