14

C	0.0	0.0	0.0
C	-0.385691	0.051428	-1.486989
Br	1.942712	0.0	0.0
H	0.313898	0.748144	-1.960848
H	-0.300293	-0.960288	0.429266
N	-0.472594	1.17464	0.677136
H	-0.191301	1.115224	1.651602
H	-1.501597	1.015409	0.635053
C	-1.742206	0.586893	-1.813996
N	-2.418392	1.08635	-2.655921
N	-0.162716	-1.272353	-2.073827
H	-0.939899	-1.858668	-1.781378
H	-0.23368	-1.18327	-3.081868
H	-2.670617	0.0	0.0
