14

C	0.0	0.0	0.0
C	-0.407345	0.338413	-1.472324
Br	2.010719	0.0	0.0
H	0.458446	0.131228	-2.106683
H	-0.190384	-1.070325	0.136815
N	-0.597696	0.861181	0.951124
H	-0.496728	0.459528	1.876053
H	-1.616049	0.807798	0.719444
C	-0.66637	1.781265	-1.6149
N	-0.862878	2.924024	-1.793684
N	-1.534395	-0.41074	-1.997482
H	-2.313879	-0.308778	-1.303693
H	-1.264323	-1.390335	-2.016306
H	-3.16077	0.0	0.0
