14

C	0.0	0.0	0.0
C	-0.37518	0.029368	-1.511326
Br	2.010918	0.0	0.0
H	0.418929	-0.507437	-2.037867
H	-0.199879	-1.016962	0.357749
N	-0.599825	1.047736	0.741907
H	-0.489672	0.86251	1.734142
H	-1.616182	0.958839	0.54124
C	-0.31061	1.414858	-2.012544
N	-0.237237	2.495384	-2.464528
N	-1.636465	-0.581298	-1.879665
H	-2.388511	-0.287394	-1.200603
H	-1.535094	-1.583965	-1.748516
H	-3.289993	0.0	0.0
