14

C	0.0	0.0	0.0
C	-0.559659	-0.175601	-1.404385
Br	1.944795	0.0	0.0
H	-1.662518	-0.182447	-1.17839
H	-0.238437	-0.922424	0.543958
N	-0.536085	1.187457	0.587078
H	-1.562424	1.063257	0.452472
H	-0.375513	1.13949	1.588976
C	-0.192613	-1.490967	-1.954141
N	0.081717	-2.516028	-2.462207
N	-0.243888	0.927114	-2.294408
H	0.723634	0.869253	-2.591022
H	-0.836495	0.872047	-3.113457
H	-3.024872	0.0	0.0
