14

C	-0.481599	0.002452	-1.437543
C	0.0	0.0	0.0
F	-1.88311	-0.070969	-1.475811
H	1.094196	0.0	0.0
H	-0.338907	-0.946083	0.434947
C	-0.114192	1.240897	-2.149823
N	0.10869	2.245335	-2.713364
C	0.013705	-1.165595	-2.187487
N	0.332603	-2.121067	-2.788104
C	-0.527677	1.194007	0.784847
H	-1.61909	1.245903	0.776327
H	-0.189942	1.112859	1.819611
H	-0.124513	2.127906	0.38657
Cl	3.381673	0.0	0.0
