14

C	-0.48917	0.001789	-1.434609
C	0.0	0.0	0.0
F	-1.890716	0.072722	-1.463446
H	1.094197	0.0	0.0
H	-0.337388	0.944978	0.438593
C	-0.002188	1.173337	-2.185982
N	0.308674	2.132444	-2.787511
C	-0.12599	-1.234326	-2.154427
N	0.092432	-2.237274	-2.724097
C	-0.526011	-1.195069	0.784506
H	-1.617454	-1.245868	0.778913
H	-0.185349	-1.115855	1.81852
H	-0.12489	-2.128658	0.383612
Cl	3.390885	0.0	0.0
