14

C	-0.485135	-0.070329	-1.434745
C	0.0	0.0	0.0
F	-1.888124	-0.107971	-1.467041
H	1.092338	0.0	0.0
H	-0.342026	-0.919138	0.486616
C	-0.086468	1.113004	-2.221249
N	0.170687	2.071625	-2.847692
C	-0.026304	-1.295242	-2.115768
N	0.259505	-2.29787	-2.655586
C	-0.521334	1.237264	0.719434
H	-0.177351	1.213847	1.75504
H	-0.118901	2.146472	0.267005
H	-1.612805	1.290827	0.714193
Cl	3.385863	0.0	0.0
