14

C	-0.470544	0.026555	-1.446685
C	0.0	0.0	0.0
F	-0.004797	1.162441	-2.085742
H	1.094191	0.0	0.0
H	-0.335275	-0.945915	0.438658
C	-0.009274	-1.154872	-2.201106
N	0.349297	-2.093026	-2.808182
C	-1.95125	0.063507	-1.527064
N	-3.12459	0.097508	-1.559999
C	-0.519702	1.193663	0.790339
H	-0.072759	1.176718	1.785969
H	-1.608797	1.191019	0.897636
H	-0.212388	2.124936	0.312248
Cl	3.407088	0.0	0.0
