10
Coordinates from ORCA-job run
  C   -0.10105193719049      0.43000199544502      0.35000560139038
  C   1.09516440301491     -0.06773522471068     -0.41945221553745
  Br  -0.76604212974632      2.10789074095052     -0.34732115424665
  H   0.84168926951210     -0.19578578076688     -1.47025252362784
  H   0.08498144456954      0.57889925253999      1.41066989157417
  H   1.91355949828481      0.64666394776267     -0.32796951144592
  H   1.41629109777830     -1.02918003884757     -0.00966088459275
  N   -1.22256683724822     -0.57582890585331      0.28336517941460
  O   -1.48364862400858     -1.05411160847434     -0.81385264629655
  O   -1.77737618496604     -0.84081437804542      1.34646826336803
