10
Coordinates from ORCA-job run
  C   -0.09567743265387      0.42425804262023      0.35894707828327
  C   1.08858243077632     -0.06001344886844     -0.43714168735524
  Br  -0.77040122765891      2.11423285656230     -0.29753464570269
  H   0.81932666944355     -0.16896353765300     -1.48616720096692
  H   0.10588630518701      0.55285809946093      1.41943428099524
  H   1.90893120495977      0.65206610151579     -0.34502395232334
  H   1.41503051881715     -1.02881848375387     -0.04950228335842
  N   -1.21843369846759     -0.58057101455221      0.29074897838980
  O   -1.75764006096200     -0.86449794865769      1.35699911863915
  O   -1.49560470944143     -1.03955066667404     -0.81075968660084
