12
Coordinates from ORCA-job run
  C   1.04866275195690      0.19648524147496      0.09845442226242
  C   -0.35205488319973     -0.30507361587760     -0.28509627675892
  F   1.94849695207981     -0.26853019172215     -0.82862956622758
  H   -0.27154285608525     -1.39159255930148     -0.38931821725381
  H   1.07034175652759      1.29082939291348      0.07811275438517
  C   1.44120110774509     -0.28215088646846      1.43209333730109
  N   1.75662349515874     -0.67318575569843      2.49289232132804
  N   -0.72499388791335      0.25889319578355     -1.56852099996470
  H   -1.08707104952917      1.19832898847762     -1.45640316886319
  H   -1.44201144749099     -0.30321214438056     -2.00804782579010
  C   -1.29993650177686     -0.00628212616513      0.80612503821545
  N   -2.08771543747278      0.28649046096421      1.62733818136613
