12
Coordinates from ORCA-job run
  C   1.06112678639752     -0.46661360710325      0.06909885234716
  C   -0.37661450237980     -0.38142146706375     -0.45361732568286
  F   1.26747739570273     -1.69187649937573      0.66023770853089
  H   -0.47953602677766     -1.17532564389812     -1.19965060203044
  H   1.73941253590315     -0.36124805769125     -0.78056434759535
  C   1.31810005298992      0.60831014504484      1.03785352013525
  N   1.48506868320214      1.49601494151714      1.78735126022977
  N   -0.53950747537826      0.90235063474475     -1.11171707745901
  H   -1.35944031273169      0.89476833316803     -1.70462374424652
  H   -0.65653399647553      1.64101529886189     -0.42709247520378
  C   -1.33393090389686     -0.65337385400649      0.63600102290041
  N   -2.12562223655564     -0.81360022419806      1.48872320807449
