12
Coordinates from ORCA-job run
  C   0.84236208134096     -0.08655426546841      0.69797793214516
  C   -0.46162810794516     -0.32382616495034     -0.08168079464092
  F   0.72724236010606      1.02548844837965      1.48858374407503
  H   -0.36402375665686     -1.30571431157818     -0.57297114632926
  H   1.05550766240241     -0.94606513446397      1.34160470979142
  C   1.94337741956699      0.09075244272144     -0.26112505159071
  N   2.79025852946650      0.19729302701712     -1.06632385953423
  N   -0.69408313576058      0.78668180175808     -0.99269488077772
  H   -1.67249266387528      0.85565851724061     -1.23931107894994
  H   -0.15716501845197      0.65879733971991     -1.84186932105151
  C   -1.56159796277137     -0.42507886716076      0.88327983649506
  N   -2.44775740742170     -0.52643283321516      1.64552991036762
