12
Coordinates from ORCA-job run
  C   0.78174943368040     -0.02279233201018      0.71907249811229
  C   -0.38213902525035     -0.39108595716296     -0.20319456503013
  F   0.48948884135563      1.18504656637361      1.32364953062695
  H   -0.11512075207950     -1.31968046802492     -0.71900176907927
  H   0.90758515977249     -0.76958913165281      1.50820764958917
  C   2.02726739203310      0.10018813971283     -0.04885743524468
  N   3.04172901876978      0.15322821299207     -0.63545407479415
  N   -0.54179674502941      0.65749721166440     -1.18926490726909
  H   -1.21809471734823      0.39152106261299     -1.89299720484888
  H   -0.85890500322718      1.50921567920036     -0.74320539629709
  C   -1.57883729816626     -0.65522162828717      0.62498678526197
  N   -2.55292630451046     -0.83832735541821      1.25505888897291
