12
Coordinates from ORCA-job run
  C   0.73342160559772     -0.28307136751628      0.76666991698509
  C   -0.32362752208478     -0.31218417204526     -0.34986247742248
  F   0.18064842201089      0.17407945123957      1.93294542533661
  H   0.13620804572449     -0.82866289594950     -1.20844288480770
  H   1.12072332493139     -1.29184683211318      0.94171061737370
  C   1.83528795993269      0.59882361398780      0.35285393393174
  N   2.69958663922663      1.28774492951572     -0.04114855167408
  N   -0.77426409154254      1.04254467233014     -0.63037842876333
  H   -0.12083352030461      1.50694902082637     -1.24920117977020
  H   -1.68548355340900      1.03925138049175     -1.06884722197653
  C   -1.45009119536887     -1.13421766497795      0.10487100092105
  N   -2.35357611471399     -1.79941013578918      0.44782984986613
