12
Coordinates from ORCA-job run
  C   0.68018879850052     -0.12250748216503      0.73749905725775
  C   -0.41355940104056     -0.42049611025499     -0.30902847293020
  F   0.20851466932753      0.85104877861053      1.59452867352296
  H   -0.01924508429041     -1.17779100530459     -0.99641678552261
  H   0.92205169946537     -1.00961959150325      1.33031127564967
  C   1.88365603502091      0.37242206690716      0.05568387537867
  N   2.82023156688672      0.75029761714105     -0.54230671282342
  N   -0.84347384284879      0.72375460843473     -1.08275010964971
  H   -1.11104549453041      1.48404103375249     -0.47006808100858
  H   -0.10438457656736      1.03844953079061     -1.69902607994306
  C   -1.56220214305979     -1.00895493230645      0.39653823982615
  N   -2.45973222686371     -1.48164451410226      0.98603512024239
