12
Coordinates from ORCA-job run
  C   1.04785483844829      0.19519869063467      0.11436467115446
  C   -0.34799959909598     -0.30242459600353     -0.29205693711767
  F   1.96027940887784     -0.26171911329539     -0.80399516470529
  H   -0.26757376415504     -1.38831542211904     -0.40287405124907
  H   1.06957104755560      1.28966519313443      0.10431087982449
  C   1.42092539404641     -0.29589561192421      1.44919040571317
  N   1.72029507396976     -0.69936904678672      2.50994026250788
  N   -0.70395648524616      0.27131928963826     -1.57574234943674
  H   -1.07044588117931      1.20865959699409     -1.46154353913938
  H   -1.41210221878973     -0.28909845234472     -2.03118236621393
  C   -1.30941374980146     -0.00971316301041      0.78928987250872
  N   -2.10743406463020      0.28069263508256      1.60129831615335
