12
Coordinates from ORCA-job run
  C   0.98722105153832      0.23720094822484      0.10627938933043
  C   -0.43991978664541     -0.22796127921076     -0.19730863641587
  F   1.77737930018677     -0.13260675530588     -0.96823152526139
  H   -0.41859621177256     -1.32729844327941     -0.25615829217282
  H   1.00470302051879      1.32717182556867      0.18210356607989
  C   1.51438484342964     -0.38120439953859      1.32823654383119
  N   1.92786050395720     -0.88448274836499      2.30457467275644
  N   -0.86708847357401      0.44219038068685     -1.41695887842507
  H   -1.84004132024433      0.23773607116646     -1.60831152106042
  H   -0.31127172801590      0.10079956240218     -2.19173470114413
  C   -1.31363291987826      0.15155529697488      0.91692274075848
  N   -2.02099827950025      0.45589954067575      1.80258664172327
