12
Coordinates from ORCA-job run
  C   0.75005183003043     -0.01084645804339      0.67793002869251
  C   -0.48454960335748     -0.43285117197138     -0.14558198042909
  F   0.47700079687707      1.19910091157792      1.28312260340482
  H   -0.24690634303764     -1.38283157971183     -0.63793594570080
  H   0.97903060799591     -0.73937519462511      1.46130513363625
  C   1.90248401748568      0.14467758442702     -0.21988344287219
  N   2.79062823601119      0.24050694317935     -0.98109160583085
  N   -0.89693830538864      0.51782653744687     -1.15508790420425
  H   -1.01878570831365      1.43614481066756     -0.74651778402920
  H   -0.21103225322002      0.57304693384197     -1.89782285705723
  C   -1.58965762074003     -0.67649761335497      0.79392094611781
  N   -2.45032565434283     -0.86890170343404      1.56764280827220
