12
Coordinates from ORCA-job run
  C   1.07735359354844     -0.42771133756470      0.05188073670535
  C   -0.37515545787653     -0.40578732748159     -0.43554641093104
  F   1.34061709198935     -1.62766718979124      0.67164504714495
  H   -0.46919493227433     -1.22232336181993     -1.15792317021342
  H   1.72995589862404     -0.32440318597410     -0.81788725042006
  C   1.32151435468033      0.68180061424283      0.98432134311809
  N   1.47429712576438      1.58524238600222      1.71791057367438
  N   -0.59834569500752      0.85369097237714     -1.12234175015519
  H   -1.43206836288100      0.80272081307555     -1.69350829514236
  H   -0.72386798562800      1.60591362639197     -0.45418786974341
  C   -1.29405359325515     -0.68025263472016      0.68596781611556
  N   -2.05105203768402     -0.84022337473798      1.56966922984714
