12
Coordinates from ORCA-job run
  C   0.88416782786487     -0.40617661309987      0.42651615977619
  C   -0.36721610789303     -0.16951257083590     -0.42164886073822
  F   0.56769594391044     -0.14569605499699      1.74617903561594
  H   -0.09191903410417     -0.32647749851480     -1.47003235152399
  H   1.21086104514203     -1.44789773333763      0.36043797158365
  C   1.97196642361325      0.48180250075496     -0.00286709980092
  N   2.86792087027836      1.14814544156244     -0.36245916776330
  N   -0.78791097183274      1.20590871403561     -0.25341342251261
  H   -1.11710868235181      1.35603049272034      0.69211582838188
  H   -1.53538402610522      1.43628914127579     -0.89497598521305
  C   -1.38328238389110     -1.18111035778005     -0.05791911558454
  N   -2.21879090463089     -1.95230546178389      0.23606700777896
