12
Coordinates from ORCA-job run
  C   1.06472774292237      0.10618291310953      0.07131403680105
  C   -0.38334769005794     -0.28778732203534     -0.25864911307360
  F   1.89957621371056     -0.49638945795627     -0.83691786276965
  H   -0.40439974118979     -1.38157926818812     -0.29145758824241
  H   1.18529493374011      1.19052936314447     -0.01830756226392
  C   1.43812057624161     -0.32361600380103      1.42707943943501
  N   1.73700359001131     -0.67929627899932      2.50481989869277
  N   -0.72950637719549      0.22367476869318     -1.57126025197675
  H   -1.00668772704621      1.19636719384376     -1.51619607547943
  H   -1.50018894207638     -0.30040485901940     -1.96436765245258
  C   -1.27796851950073      0.16777187710988      0.82338520209512
  N   -2.02162405955943      0.58554707409864      1.63155752923440
