12
Coordinates from ORCA-job run
  C   0.93030331689421      0.20489106876300      0.08289106044647
  C   -0.49224228207888     -0.32451142277169     -0.19529600565123
  F   1.72435600042947     -0.17010198123621     -0.98574498954687
  H   -0.42888504289023     -1.41836168308645     -0.20306830762335
  H   0.92323232356500      1.29809937581514      0.13032321824530
  C   1.48692709274438     -0.35066808166947      1.32100791742910
  N   1.91119319560852     -0.81587456223872      2.31180931892463
  N   -1.04886755662486      0.10511789317205     -1.46107695751626
  H   -0.43663104725454     -0.17820798161033     -2.21577461318514
  H   -1.15835035953059      1.11193314161033     -1.48847661444777
  C   -1.36680303591488      0.08283151579135      0.90974361093061
  N   -2.04423260494760      0.45585271746102      1.79266236199451
