12
Coordinates from ORCA-job run
  C   1.07387141916729     -0.43531586461527      0.08290990235404
  C   -0.36691123167409     -0.40991952016077     -0.43811257579327
  F   1.31483685876501     -1.63017953277988      0.72108870064796
  H   -0.44990129023081     -1.23490220799235     -1.15218695878712
  H   1.74757679301383     -0.34507255767811     -0.77208207880668
  C   1.30230015223639      0.68365135162283      1.00802022832580
  N   1.44374928164258      1.60511618517505      1.72110569652332
  N   -0.56675050871862      0.84265891638735     -1.14464561781315
  H   -1.38778594519719      0.78980165116669     -1.73368629127903
  H   -0.70256182692364      1.60337632822912     -0.48821718702873
  C   -1.31314712553814     -0.66388571605253      0.66550076162213
  N   -2.09527657654262     -0.80532903330214      1.53030542003474
