12
Coordinates from ORCA-job run
  C   0.70965891265557     -0.22045686657046      0.68543822592796
  C   -0.41798484988436     -0.37611221536632     -0.35604867247375
  F   0.25579111034672      0.59828060658919      1.69955022588000
  H   -0.03632959433542     -1.00680166282415     -1.16718323603731
  H   0.98805199398904     -1.18330507677978      1.12408336300067
  C   1.87811303782757      0.40010966322209      0.04659843050896
  N   2.78477508555279      0.88636297959758     -0.51828858472799
  N   -0.89624608639032      0.86504011372106     -0.92478969659495
  H   -1.15175662315743      1.51449703743894     -0.19136540447167
  H   -0.18753506114618      1.28799350596357     -1.51117789744228
  C   -1.52892955053137     -1.09364002800215      0.28751418887241
  N   -2.39560837492662     -1.67296805698957      0.82566905755794
