12
Coordinates from ORCA-job run
  C   1.00667569507488      0.15784215866053      0.06345677836184
  C   -0.46330775634692     -0.20322538258297     -0.16980195794286
  F   1.72956373859805     -0.35216517139278     -1.00070850477951
  H   -0.53619080267034     -1.30169833851203     -0.15018305627777
  H   1.11711946405068      1.24490863898426      0.05984570581333
  C   1.51669438158571     -0.41670396042493      1.31373272534735
  N   1.91392452530319     -0.88311718086913      2.31482320229829
  N   -0.87099430836344      0.41499726836895     -1.42309227799637
  H   -0.37058554038098     -0.02545094170095     -2.18567302140860
  H   -1.86332798041298      0.28233225231328     -1.57443789070558
  C   -1.26592074232207      0.32719389908910      0.93634967755608
  N   -1.91465067411578      0.75308675806665      1.81668861973380
