12
Coordinates from ORCA-job run
  C   1.01235150905046      0.11126801112834      0.07120481379796
  C   -0.47207825198900     -0.18057336493595     -0.16764942227997
  F   1.71630371758592     -0.44548101092901     -0.98212721079697
  H   -0.60061437390889     -1.27339688194332     -0.12694420769975
  H   1.17718386330939      1.19129645619583      0.05735462707952
  C   1.48481409637835     -0.47613633668457      1.33010288011920
  N   1.85171251353100     -0.96074357925117      2.33411501841862
  N   -0.83951044393483      0.43241717228204     -1.43586666124624
  H   -0.34899890669124     -0.04128832166957     -2.18452491632221
  H   -1.83461267117089      0.33752732908557     -1.59717125613415
  C   -1.25545996592738      0.41257652202430      0.92047069372137
  N   -1.89209108623289      0.89353400469750      1.78103564134263
