12
Coordinates from ORCA-job run
  C   0.87940603655533     -0.35268109584570      0.55451091666799
  C   -0.40563505986825     -0.27650856014343     -0.28648781871218
  F   0.62532884984674      0.02662358358796      1.84570288177132
  H   -0.17343287325503     -0.73339403594115     -1.26234062156458
  H   1.25907917740016     -1.37946068075271      0.56605093259536
  C   1.88939159564212      0.53542146575605     -0.04062824396543
  N   2.66978893904872      1.23074239470200     -0.57390649421653
  N   -0.85959735694272      1.10384860817985     -0.35962903656778
  H   -1.84985020308778      1.15176697042345     -0.55845733139251
  H   -0.36024113394137      1.59748715346008     -1.08940580487367
  C   -1.42589851793754     -1.11177623710282      0.35568827407211
  N   -2.24633945346038     -1.79006956632358      0.84890234618591
