12
Coordinates from ORCA-job run
  C   1.09840081773758     -0.37075644899102      0.05066884365609
  C   -0.35432847470624     -0.42492198573500     -0.43297322794047
  F   1.42597237876732     -1.55699477703659      0.66654304737954
  H   -0.40686757114312     -1.24602324371411     -1.15432943136185
  H   1.74273638351070     -0.23083306509029     -0.82019191295867
  C   1.28699019146559      0.74857695081493      0.98433070708351
  N   1.39963734180762      1.66720291026452      1.70621051123791
  N   -0.64536818209165      0.82061576238210     -1.12014673473379
  H   -0.80815266804667      1.56542798516443     -0.45164323249928
  H   -1.47770260175684      0.72503030472178     -1.68770089983209
  C   -1.25540377497367     -0.74672255777408      0.69042241798004
  N   -2.00591384057062     -0.94960183500667      1.57080991198907
