12
Coordinates from ORCA-job run
  C   0.81812722724882     -0.25565849776540      0.53559813782387
  C   -0.44422983501506     -0.35557612733789     -0.34573603591000
  F   0.47570341279569      0.37005995938404      1.71686679835053
  H   -0.15474654818285     -0.83208099003562     -1.28927759263629
  H   1.21917097641863     -1.24427471667759      0.77780559365397
  C   1.83461141971042      0.54390751959122     -0.16158384525400
  N   2.61347461677147      1.17706040276821     -0.76983660783559
  N   -1.07806178701223      0.91003202721331     -0.64563760882955
  H   -0.49391003069102      1.46797334302471     -1.25609205648377
  H   -1.25602349400044      1.42659874729356      0.20700042525422
  C   -1.39836344824299     -1.24477920153870      0.33419923328064
  N   -2.13575250980043     -1.96326246591984      0.89669355858598
