12
Coordinates from ORCA-job run
  C   0.98784112098357     -0.43206440584279      0.01264769630288
  C   -0.50149337074659     -0.42206049348360     -0.38803868396804
  F   1.30417354549095     -1.63186496064258      0.60711083515746
  H   -0.64287691347189     -1.26031071103351     -1.07906309066991
  H   1.59885729230981     -0.32810652832422     -0.88982276566662
  C   1.28124770947320      0.68112349121736      0.92542711679327
  N   1.48011045446865      1.60145602923566      1.62662519627674
  N   -0.94224681796992      0.79429978930351     -1.03639810281383
  H   -0.82558504070597      1.60125066419927     -0.43580104506743
  H   -0.45439932729330      0.94641480015543     -1.90953335180163
  C   -1.32185961057474     -0.68113364843596      0.80246054599210
  N   -1.96376904196377     -0.86900402634856      1.76638564946502
