12
Coordinates from ORCA-job run
  C   1.06440701866726      0.09404505545215      0.08760016421280
  C   -0.38219294686790     -0.28284058502696     -0.26848353264311
  F   1.90830147437522     -0.50869047537297     -0.81174284260930
  H   -0.41340458827148     -1.37600022679128     -0.31239273923268
  H   1.19583019149099      1.17795716437880      0.00835716963527
  C   1.41156456311475     -0.34907872803694      1.44599672814407
  N   1.68819339886039     -0.71375883126428      2.52680582339854
  N   -0.70362462447892      0.24500632571790     -1.58044700996191
  H   -1.47399804956718     -0.26632843389676     -1.99034967361192
  H   -0.96996623894496      1.22040593506032     -1.52048726183700
  C   -1.28781399502053      0.17048776857689      0.80564682114305
  N   -2.03629620335765      0.58779503120316      1.60949635336217
