12
Coordinates from ORCA-job run
  C   0.92784972081496      0.20974707170205      0.09190806793680
  C   -0.49071995526237     -0.32431839812767     -0.19808607662242
  F   1.73185865302593     -0.16229655023233     -0.97027461117551
  H   -0.42491704066514     -1.41801542949964     -0.20062145317470
  H   0.91738130310042      1.30284087497767      0.14018888207166
  C   1.47608402041012     -0.34628939589828      1.33359884219349
  N   1.89498390501387     -0.81586149013318      2.32458898036184
  N   -1.03601354326500      0.09835954324175     -1.47104479441898
  H   -1.14311967803200      1.10526480639188     -1.50589739691342
  H   -0.41737335983865     -0.19041924773111     -2.21847743427637
  C   -1.37616394990214      0.08507121063480      0.89754395594772
  N   -2.05985007539998      0.45591700467406      1.77657303806990
