12
Coordinates from ORCA-job run
  C   0.83661543770316     -0.30611086617818      0.47868655805651
  C   -0.45609281370492     -0.32084240963750     -0.36319643057962
  F   0.53598357985255      0.19694453848801      1.72860357677312
  H   -0.20005449493468     -0.70064944845978     -1.35898135838750
  H   1.24536582610226     -1.31279874358240      0.60665319830339
  C   1.82742114634459      0.56428124341764     -0.16836563339943
  N   2.58135556796710      1.26392513268241     -0.73366480910555
  N   -1.09865616829026      0.96650331997312     -0.51376739235479
  H   -1.24417818467162      1.39704916532760      0.39096243474620
  H   -0.53732087905134      1.58255941993158     -1.08859593721883
  C   -1.38627566317166     -1.27706993020496      0.25624588403122
  N   -2.10416335414519     -2.05279142175753      0.76541990913528
