12
Coordinates from ORCA-job run
  C   1.00808705446079     -0.38154508057181     -0.01519125728343
  C   -0.48639021413943     -0.43529175200933     -0.39242799425555
  F   1.39424415211739     -1.58170164946703      0.53622517201226
  H   -0.59660235918332     -1.26031658476771     -1.10464847184937
  H   1.59744674147285     -0.21895694756085     -0.92349702817346
  C   1.26058429611873      0.71651216968116      0.92772361656626
  N   1.42371697980066      1.62407429427319      1.65419692214673
  N   -0.99796842805453      0.77480471273698     -0.99968176709322
  H   -0.53283723019281      0.97434996854052     -1.87568961798478
  H   -0.91035073348678      1.56992093862451     -0.37866670208388
  C   -1.27324888945060     -0.76736871145217      0.80222590485408
  N   -1.88868136946294     -1.01348135802745      1.77043122314437
