14

C	0.0	0.0	0.0
C	-0.338017	-0.028672	-1.496162
Cl	1.767121	0.0	0.0
H	-1.422434	0.088625	-1.579052
H	0.008111	-0.959566	-1.931073
C	-0.673141	1.039396	0.774696
N	-0.671135	1.981777	1.499594
N	-0.38797	-1.349141	0.619331
O	-0.425552	-2.325765	-0.126122
O	-0.45047	-1.381831	1.841594
N	0.313917	1.069104	-2.248777
O	0.831883	0.775162	-3.329785
O	0.227455	2.208365	-1.795822
H	-2.196227	0.0	0.0
