14

C	0.0	0.0	0.0
C	-0.306558	0.152776	-1.48534
Cl	1.750106	0.0	0.0
H	-0.116138	-0.791232	-2.001523
H	-1.33136	0.476879	-1.656326
C	-0.468035	1.076636	0.832807
N	-0.659658	1.968752	1.586071
N	-0.259985	-1.641193	0.854956
O	0.711816	-2.365833	0.995874
O	-1.406178	-1.891597	1.164055
N	0.530201	1.181933	-2.254469
O	0.948287	0.857978	-3.368986
O	0.592424	2.3122	-1.780859
H	-1.761384	0.0	0.0
