13

C	0.0	0.0	0.0
C	-0.520051	0.234409	-1.445901
Cl	1.778095	0.0	0.0
H	0.357914	0.26397	-2.103215
H	-0.334539	0.788995	0.666704
H	-0.328423	-0.962166	0.384862
N	-1.161378	1.543032	-1.480959
H	-1.500469	1.658726	-2.431709
H	-2.005663	1.418259	-0.908843
N	-1.417793	-0.800003	-1.953863
H	-0.990698	-1.713367	-1.819803
H	-2.245129	-0.74565	-1.336326
H	-3.225079	0.0	0.0
