13

C	0.0	0.0	0.0
C	-0.658484	0.000503	-1.355177
Cl	1.773988	0.0	0.0
H	-1.731568	-0.000112	-1.081707
H	-0.336959	0.876293	0.554793
H	-0.336931	-0.876705	0.554166
N	-0.281238	-1.190735	-2.124758
H	-0.679679	-1.980121	-1.621967
H	-0.804435	-1.154753	-2.996399
N	-0.282396	1.193084	-2.123252
H	-0.80332	1.156352	-2.996136
H	-0.684107	1.981169	-1.620921
H	-3.404304	0.0	0.0
