13

C	0.0	0.0	0.0
C	-0.539952	0.186694	-1.416828
Cl	1.789771	0.0	0.0
H	0.182199	-0.274044	-2.111088
H	-0.314581	-0.967564	0.38516
H	-0.341202	0.809622	0.639132
N	-0.636072	1.644284	-1.682003
H	-1.369103	1.786089	-2.366834
H	0.238241	1.979644	-2.074237
N	-1.768821	-0.543156	-1.534347
H	-2.145203	-0.43723	-2.472616
H	-2.532916	-0.252679	-0.869182
H	-3.932905	0.0	0.0
