13

C	0.0	0.0	0.0
C	-0.417705	0.013442	-1.483258
Cl	1.791669	0.0	0.0
H	0.224088	-0.738784	-1.975208
H	-0.331994	-0.905681	0.503445
H	-0.359336	0.890259	0.509911
N	-0.158986	1.362324	-1.999366
H	-0.621304	1.40278	-2.89905
H	0.835787	1.502105	-2.133238
N	-1.78083	-0.325821	-1.786539
H	-1.884311	-1.33401	-1.756557
H	-2.485695	0.009732	-1.083157
H	-3.727207	0.0	0.0
