13

C	0.0	0.0	0.0
C	-0.436131	0.096071	-1.482675
Cl	1.784969	0.0	0.0
H	0.36103	-0.372966	-2.075698
H	-0.360606	0.840179	0.588579
H	-0.333565	-0.940659	0.432646
N	-0.49909	1.486751	-1.968769
H	0.37605	1.958788	-1.754854
H	-1.245032	1.949749	-1.457236
N	-1.649791	-0.639463	-1.684971
H	-2.399633	-0.367368	-1.002767
H	-1.999246	-0.406719	-2.60989
H	-3.618498	0.0	0.0
