14

C	0.0	0.0	0.0
C	-0.484325	-0.33857	-1.411982
Cl	1.784098	0.0	0.0
H	-1.562705	-0.144531	-1.410558
H	0.005108	0.348096	-2.10908
C	-0.349364	1.408592	0.293142
N	-0.558113	2.540625	0.528473
N	-0.548801	-0.939853	0.934673
H	-1.572052	-0.841551	0.844383
H	-0.290713	-0.67496	1.879076
N	-0.120645	-1.717031	-1.744829
H	-0.687603	-1.998125	-2.537058
H	-0.415281	-2.293125	-0.962125
Cl	-3.613349	0.0	0.0
