14

C	0.0	0.0	0.0
C	-0.497919	0.217622	-1.434174
Cl	1.796823	0.0	0.0
H	-1.585585	0.290784	-1.338325
H	-0.112321	1.187776	-1.770656
C	-0.331035	1.212097	0.79154
N	-0.568567	2.152772	1.455073
N	-0.518813	-1.207419	0.55453
H	-0.333937	-1.229976	1.551368
H	-1.53685	-1.166736	0.428777
N	-0.12193	-0.882952	-2.303657
H	0.61186	-0.613069	-2.943369
H	-0.925415	-1.19446	-2.829557
Cl	-3.633949	0.0	0.0
