14

C	0.0	0.0	0.0
C	-0.494823	0.189061	-1.434688
Cl	1.783921	0.0	0.0
H	-0.029941	1.093466	-1.836851
H	-1.57701	0.339442	-1.350211
C	-0.348201	1.200322	0.796236
N	-0.576079	2.149282	1.451094
N	-0.53422	-1.223927	0.53036
H	-1.557697	-1.117057	0.479187
H	-0.276925	-1.317847	1.506908
N	-0.11407	-0.967982	-2.2502
H	-0.343468	-1.793261	-1.705404
H	-0.726898	-0.979677	-3.058059
Cl	-3.62138	0.0	0.0
