14

C	0.0	0.0	0.0
C	-0.370619	-0.500761	-1.437771
Cl	1.843735	0.0	0.0
H	-0.338353	-1.593306	-1.363661
H	0.44428	-0.188541	-2.093827
C	-0.314942	1.43681	0.121864
N	-0.541677	2.587534	0.202698
N	-0.565179	-0.828903	1.009071
H	-1.565306	-0.916053	0.797734
H	-0.490917	-0.386871	1.919337
N	-1.608308	-0.072843	-2.023859
H	-1.606101	0.932427	-2.149475
H	-2.422582	-0.279195	-1.444394
Cl	-4.031886	0.0	0.0
