17

C	-0.281968	-0.033656	-1.50495
C	0.0	0.0	0.0
Cl	-2.089057	-0.505404	-1.794537
H	1.097399	0.0	0.0
N	-0.047411	1.251365	-2.078438
H	-0.072161	1.186939	-3.088946
H	-0.745205	1.922216	-1.781083
N	0.501224	-1.081883	-2.066318
H	0.440017	-1.090178	-3.077124
H	1.470377	-0.948056	-1.77188
C	-0.460366	-1.224195	0.647345
N	-0.837461	-2.162392	1.244734
C	-0.523693	1.233369	0.724781
H	-0.302327	1.150519	1.789903
H	-1.60611	1.338231	0.602432
H	-0.01219	2.120096	0.348549
Cl	3.343817	0.0	0.0
