17

C	-0.220102	0.003141	-1.522742
C	0.0	0.0	0.0
Cl	-2.007762	0.066802	-1.896389
H	1.100404	0.0	0.0
N	0.367604	1.151386	-2.183172
H	-0.06853	2.010175	-1.869353
H	1.349281	1.168608	-1.908486
N	0.315736	-1.217201	-2.040743
H	0.426334	-1.108163	-3.042393
H	1.237756	-1.357603	-1.629874
C	-0.513126	-1.2164	0.617757
N	-0.918417	-2.176829	1.160065
C	-0.497106	1.237386	0.737069
H	-1.579938	1.347579	0.650654
H	-0.006108	2.128981	0.344985
H	-0.230974	1.159077	1.792363
Cl	3.303792	0.0	0.0
