17

C	-0.367177	-0.061083	-1.506982
C	0.0	0.0	0.0
Cl	-0.155619	1.67638	-2.178287
H	1.096531	0.0	0.0
N	0.500035	-0.987694	-2.103281
H	0.385987	-0.998894	-3.107195
H	1.468724	-0.828231	-1.833625
N	-1.722853	-0.404195	-1.863825
H	-2.369704	0.266917	-1.467557
H	-1.915197	-1.324384	-1.480034
C	-0.467718	-1.253462	0.589557
N	-0.903381	-2.225455	1.086389
C	-0.544372	1.180208	0.796817
H	-0.359108	1.014286	1.859371
H	-0.036352	2.094864	0.49977
H	-1.621726	1.303634	0.650485
Cl	3.340958	0.0	0.0
