17

C	-0.351047	0.072854	-1.491582
C	0.0	0.0	0.0
Cl	0.065644	-1.670627	-2.217167
H	1.095025	0.0	0.0
N	-1.729982	0.324726	-1.729985
H	-2.275029	-0.448311	-1.365676
H	-1.907199	0.385185	-2.726039
N	0.483132	1.036495	-2.09178
H	1.450266	0.87099	-1.811098
H	0.420781	1.004617	-3.101647
C	-0.571906	-1.17085	0.646734
N	-1.118227	-2.054593	1.195222
C	-0.451777	1.272189	0.729654
H	-0.051014	2.138506	0.205073
H	-0.048411	1.258871	1.744306
H	-1.539346	1.349648	0.768315
Cl	3.332437	0.0	0.0
