17

C	-0.337248	-0.079786	-1.495744
C	0.0	0.0	0.0
Cl	0.045572	1.717742	-2.218846
H	1.095826	0.0	0.0
N	0.5215	-0.999611	-2.098188
H	0.467466	-0.982981	-3.107722
H	1.482149	-0.847617	-1.796141
N	-1.702029	-0.342265	-1.762456
H	-2.265977	0.432544	-1.439718
H	-1.854793	-0.443658	-2.757699
C	-0.450074	-1.248778	0.619399
N	-0.819625	-2.210386	1.183932
C	-0.544345	1.188836	0.783663
H	-0.114984	2.115312	0.407516
H	-0.259345	1.076277	1.832248
H	-1.637398	1.243929	0.734182
Cl	3.339307	0.0	0.0
