18

C	-0.542351	-0.008225	-1.433768
C	0.0	0.0	0.0
Cl	0.278959	1.30714	-2.356857
H	1.094505	0.0	0.0
N	-0.17894	-1.269442	-2.075
H	-0.155856	-1.133653	-3.079049
H	-0.901305	-1.951986	-1.869013
C	-2.039688	0.279936	-1.522479
H	-2.288778	1.253312	-1.098472
H	-2.592265	-0.491161	-0.974817
H	-2.354047	0.25782	-2.569532
C	-0.366417	-1.272112	0.770646
H	0.105221	-2.119601	0.271361
H	-1.444896	-1.438673	0.871358
H	0.069171	-1.203046	1.769925
C	-0.471998	1.176149	0.715966
N	-0.870807	2.110673	1.309293
H	2.778134	0.0	0.0
