18

C	-0.453732	0.044301	-1.462441
C	0.0	0.0	0.0
Cl	0.206083	-1.492136	-2.282827
H	1.095037	0.0	0.0
N	-1.876503	0.091573	-1.587732
H	-2.135244	0.091641	-2.568584
H	-2.290884	-0.726334	-1.155712
C	0.206667	1.203087	-2.182003
H	-0.181762	2.13918	-1.774752
H	1.285006	1.147515	-2.011666
H	-0.005736	1.162884	-3.254637
C	-0.461266	-1.208032	0.813945
H	-0.138742	-2.126816	0.323249
H	-1.544892	-1.233135	0.97446
H	0.027841	-1.166647	1.790492
C	-0.437167	1.22752	0.65428
N	-0.771454	2.204606	1.217641
H	2.783578	0.0	0.0
