18

C	-0.20846	0.00671	-1.519157
C	0.0	0.0	0.0
Cl	-1.989687	0.156856	-1.93461
H	1.099037	0.0	0.0
N	0.480477	1.121453	-2.138728
H	1.454204	1.026764	-1.826215
H	0.131974	1.984045	-1.729537
C	0.318764	-1.274874	-2.132137
H	0.286733	-1.181186	-3.217889
H	-0.267896	-2.14115	-1.825564
H	1.355913	-1.393156	-1.798069
C	-0.519194	-1.2079	0.766895
H	-0.336583	-1.070938	1.836353
H	0.025932	-2.101545	0.456061
H	-1.591491	-1.360342	0.608775
C	-0.462396	1.245781	0.587533
N	-0.829342	2.251057	1.075805
H	2.755099	0.0	0.0
