18

C	-0.348762	-0.026524	-1.505812
C	0.0	0.0	0.0
Cl	-0.037403	1.641353	-2.156629
H	1.096777	0.0	0.0
N	0.535759	-0.913196	-2.226447
H	1.481232	-0.759735	-1.856614
H	0.276908	-1.87021	-2.00907
C	-1.801064	-0.347543	-1.803732
H	-2.456019	0.359319	-1.289686
H	-1.973608	-0.285599	-2.879654
H	-2.04113	-1.359804	-1.465698
C	-0.385829	-1.295811	0.720391
H	0.012605	-2.157434	0.178953
H	-1.465255	-1.414534	0.850693
H	0.089136	-1.295393	1.704689
C	-0.568511	1.128693	0.711194
N	-1.075681	1.997146	1.321517
H	2.777735	0.0	0.0
