18

C	-0.367392	-0.038843	-1.468638
C	0.0	0.0	0.0
Cl	-2.313666	-0.332628	-1.614146
H	1.097179	0.0	0.0
N	-0.038145	1.160165	-2.110483
H	-0.368774	1.979667	-1.618651
H	-0.342568	1.173642	-3.07307
C	0.257738	-1.218746	-2.175032
H	0.087574	-1.1518	-3.252904
H	-0.157414	-2.161777	-1.822549
H	1.332071	-1.171629	-1.954944
C	-0.409944	-1.215188	0.825745
H	-1.491327	-1.362541	0.844384
H	0.076797	-2.107064	0.427225
H	-0.041576	-1.080706	1.845449
C	-0.467401	1.230697	0.615202
N	-0.821701	2.241651	1.102394
H	2.700013	0.0	0.0
