15

C	0.0	0.0	0.0
C	-0.343693	-0.090882	-1.491619
F	1.355959	0.0	0.0
H	0.421198	-0.762747	-1.89578
H	-0.096892	0.921369	-1.847252
N	-0.596064	1.046261	0.693407
H	-1.611584	0.965053	0.505355
H	-0.466677	0.90307	1.689838
N	-0.250793	-1.386298	0.699968
O	-0.462465	-1.360282	1.911439
O	-0.107801	-2.400738	0.028534
N	-1.667001	-0.552212	-1.869205
H	-1.997397	0.02727	-2.632443
H	-2.360494	-0.391691	-1.101716
H	-3.360424	0.0	0.0
