15

C	0.0	0.0	0.0
C	-0.515984	-0.173959	-1.414895
F	1.357891	0.0	0.0
H	-0.329179	0.807351	-1.889704
H	-1.607753	-0.274228	-1.288487
N	-0.572201	1.089493	0.688638
H	-0.480412	1.901416	0.086294
H	-1.598163	0.856258	0.694186
N	-0.295192	-1.264814	0.849181
O	-1.054231	-1.175975	1.803136
O	0.321229	-2.27616	0.519172
N	0.050176	-1.298758	-2.147702
H	1.056055	-1.19881	-2.199886
H	-0.318995	-1.283857	-3.090371
H	-3.134425	0.0	0.0
