15

C	0.0	0.0	0.0
C	-0.49568	-0.103095	-1.434122
F	1.351479	0.0	0.0
H	-0.318808	0.894473	-1.853911
H	-1.584101	-0.236615	-1.338537
N	-0.583294	1.04976	0.740617
H	-0.462254	1.900854	0.200959
H	-1.612696	0.825495	0.698093
N	-0.327034	-1.303694	0.771834
O	-0.595274	-2.309914	0.117574
O	-0.194077	-1.277052	1.988874
N	0.220808	-1.072187	-2.275008
H	-0.097042	-0.931861	-3.227268
H	-0.096128	-1.990821	-1.993589
H	-3.091113	0.0	0.0
