15

C	0.0	0.0	0.0
C	-0.361554	0.248539	-1.482365
F	1.37044	0.0	0.0
H	-0.259827	1.334682	-1.592788
H	0.461503	-0.209042	-2.035106
N	-0.591026	0.847599	0.92148
H	-0.431216	0.490283	1.858681
H	-1.612519	0.784949	0.729866
N	-0.243201	-1.514206	0.354188
O	-0.098052	-2.341451	-0.5422
O	-0.470298	-1.785963	1.530092
N	-1.615854	-0.196836	-2.042971
H	-2.376737	0.021586	-1.373038
H	-1.590143	-1.209707	-2.068988
H	-3.261146	0.0	0.0
