15

C	0.0	0.0	0.0
C	-0.644678	-0.200047	-1.372653
F	1.401487	0.0	0.0
H	-1.043332	-1.21809	-1.402983
H	0.164114	-0.126756	-2.106322
N	-0.485999	1.09185	0.644958
H	-1.034153	1.715643	0.073461
H	-0.057484	1.381789	1.501135
N	-0.167729	-1.277126	0.896596
O	-0.138053	-2.376811	0.352286
O	-0.189963	-1.093501	2.108497
N	-1.658546	0.825183	-1.593286
H	-1.919092	0.814874	-2.572506
H	-2.516489	0.529311	-1.036054
H	-3.65838	0.0	0.0
