15

C	0.0	0.0	0.0
C	-0.517418	-0.095542	-1.42342
F	1.362355	0.0	0.0
H	-1.593237	-0.286736	-1.295185
H	-0.031785	-0.921377	-1.948655
N	-0.529944	1.05801	0.758054
H	-1.547233	0.842868	0.807949
H	-0.454221	1.863162	0.141967
N	-0.322753	-1.322836	0.719566
O	-0.111684	-2.344419	0.06449
O	-0.663548	-1.296856	1.89276
N	-0.313965	1.205783	-2.073715
H	0.42417	1.146133	-2.762603
H	-1.170623	1.481449	-2.537799
H	-3.144069	0.0	0.0
