15

C	0.0	0.0	0.0
C	-0.494717	0.035329	-1.436522
F	1.358837	0.0	0.0
H	-0.311673	1.067296	-1.760484
H	-1.584481	-0.100266	-1.351758
N	-0.582196	0.97454	0.83699
H	-1.612207	0.757221	0.771597
H	-0.457684	1.874196	0.383091
N	-0.325325	-1.370408	0.645527
O	-0.610464	-2.308026	-0.098895
O	-0.177036	-1.460594	1.857678
N	0.213715	-0.854872	-2.366527
H	-0.115075	-0.626014	-3.299326
H	-0.103996	-1.79656	-2.166104
H	-3.089524	0.0	0.0
