15

C	-0.322297	-0.005478	-1.477013
C	0.0	0.0	0.0
F	0.155983	1.148976	-2.086806
H	1.091944	0.0	0.0
H	-0.327938	-0.928657	0.466824
C	0.459119	-1.173959	-2.072743
H	0.425578	-1.118173	-3.161699
H	1.48283	-1.054833	-1.696344
H	0.049568	-2.131231	-1.744847
C	-1.768131	-0.084364	-1.779031
N	-2.912462	-0.219528	-2.012941
N	-0.588189	1.09524	0.771528
O	-0.558918	0.980668	1.998613
O	-1.050857	2.069866	0.174976
F	2.562657	0.0	0.0
