15

C	-0.309859	-0.02757	-1.491868
C	0.0	0.0	0.0
F	-0.081653	1.253139	-2.001876
H	1.088544	0.0	0.0
H	-0.419703	-0.886012	0.479071
C	0.680952	-0.979597	-2.141681
H	0.654336	-0.858084	-3.226655
H	1.662603	-0.72956	-1.713661
H	0.432207	-2.014155	-1.889525
C	-1.712433	-0.352985	-1.827391
N	-2.812629	-0.639712	-2.123086
N	-0.64198	1.173615	0.628891
O	-1.860523	1.102921	0.83608
O	0.052247	2.150683	0.896588
F	2.630966	0.0	0.0
