15

C	-0.455064	0.099552	-1.44655
C	0.0	0.0	0.0
F	-0.191843	-1.167061	-1.98998
H	1.088573	0.0	0.0
H	-0.391477	-0.918111	0.437594
C	-1.936462	0.360296	-1.660961
H	-2.199556	1.361676	-1.325175
H	-2.508087	-0.380164	-1.097147
H	-2.174896	0.260069	-2.722199
C	0.337088	1.067003	-2.232347
N	0.858054	1.838503	-2.946504
N	-0.466513	1.11452	0.809862
O	-0.563159	2.226832	0.274015
O	-0.680613	0.911133	2.007871
F	2.503477	0.0	0.0
