15

C	-0.338518	0.094592	-1.461546
C	0.0	0.0	0.0
F	-1.708716	0.348224	-1.671253
H	1.091609	0.0	0.0
H	-0.348686	0.89721	0.511321
C	0.488483	1.247212	-2.016217
H	0.144787	2.177649	-1.556958
H	1.525004	1.059874	-1.715904
H	0.381148	1.317919	-3.099825
C	-0.022449	-1.116729	-2.24278
N	0.229677	-1.981216	-2.995551
N	-0.578566	-1.137121	0.71835
O	-0.796468	-0.979974	1.922024
O	-0.781284	-2.191023	0.112608
F	2.561071	0.0	0.0
