14

C	0.0	0.0	0.0
C	-0.412234	0.06728	-1.561872
Br	1.96187	0.0	0.0
H	0.528434	0.019089	-2.119057
C	-0.429138	1.126198	0.822073
N	-0.569126	2.067659	1.51304
C	-0.418319	-1.275781	0.571459
N	-0.553119	-2.362125	1.001307
C	-0.994962	1.384616	-1.841837
N	-1.366591	2.443086	-2.18894
N	-1.277529	-0.970786	-2.051967
H	-0.809123	-1.865469	-1.956832
H	-2.069932	-0.919058	-1.392963
F	-2.355983	0.0	0.0
