14

C	0.0	0.0	0.0
C	-0.436745	-0.004626	-1.517664
Br	1.953781	0.0	0.0
H	0.478912	0.019167	-2.116774
C	-0.402738	1.199683	0.737044
N	-0.554798	2.18746	1.355809
C	-0.419096	-1.201371	0.722876
N	-0.533509	-2.176578	1.369588
C	-1.164245	1.235146	-1.854447
N	-1.631943	2.21029	-2.314967
N	-1.140003	-1.233357	-1.823391
H	-1.997482	-1.122921	-1.262893
H	-1.368362	-1.235673	-2.809982
F	-2.371118	0.0	0.0
