14

C	0.0	0.0	0.0
C	-0.410066	0.040976	-1.56679
Br	1.957042	0.0	0.0
H	0.530945	-0.037993	-2.119945
C	-0.440873	1.133643	0.805059
N	-0.557228	2.095585	1.472517
C	-0.414929	-1.273673	0.578725
N	-0.565662	-2.372033	0.971364
C	-0.963667	1.364495	-1.872357
N	-1.307966	2.439583	-2.196004
N	-1.29152	-0.98973	-2.040775
H	-2.079816	-0.92318	-1.377927
H	-0.828829	-1.885579	-1.934962
F	-2.361786	0.0	0.0
