14

C	0.0	0.0	0.0
C	-0.453076	0.177634	-1.480722
Br	1.918676	0.0	0.0
H	0.454657	0.336961	-2.067416
H	-0.372629	-0.931525	0.41153
N	-0.380018	1.086067	0.970901
O	-0.598881	0.717954	2.118264
O	-0.33704	2.244117	0.570984
C	-1.253649	1.381602	-1.798207
N	-1.663049	2.340051	-2.342656
N	-1.011328	-1.093662	-1.911402
H	-1.934559	-1.159187	-1.472317
H	-1.151939	-1.054466	-2.91573
Br	-3.386694	0.0	0.0
