18

C	-0.601924	-0.020298	-1.4244
C	0.0	0.0	0.0
Br	-0.268862	1.729907	-2.226387
H	1.095422	0.0	0.0
N	0.137427	-1.010304	-2.328976
O	1.336562	-0.841309	-2.470077
O	-0.543549	-1.889776	-2.854516
C	-2.085998	-0.292962	-1.44251
H	-2.567408	0.427932	-0.782407
H	-2.476133	-0.196181	-2.454812
H	-2.279669	-1.31031	-1.100666
N	-0.380792	-1.303072	0.650279
O	-0.123641	-2.317633	0.008919
O	-0.895945	-1.287327	1.767816
N	-0.569357	1.096352	0.756275
H	-0.622271	0.796993	1.724018
H	0.100438	1.856521	0.710432
Cl	3.297014	0.0	0.0
