18

C	-0.621566	-0.003437	-1.403339
C	0.0	0.0	0.0
Br	0.304317	1.367654	-2.437041
H	1.087574	0.0	0.0
N	-0.308093	-1.309296	-2.119654
O	0.717827	-1.887803	-1.798328
O	-1.090892	-1.660091	-2.996067
C	-2.108878	0.274158	-1.439609
H	-2.64592	-0.520702	-0.918738
H	-2.288147	1.235601	-0.958581
H	-2.455271	0.319281	-2.470953
N	-0.430995	-1.237975	0.77356
O	-1.195558	-2.051328	0.248596
O	-0.010627	-1.314981	1.920573
N	-0.386284	1.183742	0.714549
H	0.359676	1.424388	1.36266
H	-1.255758	1.064893	1.227474
Cl	3.259936	0.0	0.0
