18

C	-0.484221	-0.004275	-1.461293
C	0.0	0.0	0.0
Br	0.256475	1.607067	-2.274395
H	1.102153	0.0	0.0
N	0.102149	-1.211113	-2.184906
O	0.404257	-1.114507	-3.364583
O	0.107956	-2.245462	-1.521338
C	-1.979797	-0.027689	-1.710625
H	-2.439938	0.768524	-1.128208
H	-2.171446	0.123723	-2.774374
H	-2.390263	-0.982338	-1.386431
N	-0.489817	-1.183707	0.790768
O	-1.696148	-1.427704	0.777464
O	0.340421	-1.770632	1.474111
N	-0.559608	1.160528	0.699128
H	-0.009091	1.958236	0.397017
H	-0.330237	1.039557	1.682273
Cl	3.341753	0.0	0.0
