18

C	-0.499475	-0.049988	-1.454052
C	0.0	0.0	0.0
Br	-2.372585	-0.613846	-1.523324
H	1.090525	0.0	0.0
N	-0.416803	1.405849	-1.936412
O	-1.435663	2.053577	-2.125702
O	0.731384	1.802746	-2.085311
C	0.34726	-0.890636	-2.386358
H	0.051542	-0.708909	-3.422225
H	0.220799	-1.943119	-2.14735
H	1.393364	-0.617482	-2.228614
N	-0.359278	-1.322062	0.684398
O	0.046907	-2.356995	0.167724
O	-1.011749	-1.26352	1.725164
N	-0.490041	1.131351	0.693559
H	-1.42253	0.973772	1.052507
H	0.133981	1.352893	1.457076
Cl	3.260904	0.0	0.0
