18

C	-0.494896	-0.09399	-1.45341
C	0.0	0.0	0.0
Br	-2.384344	-0.601681	-1.507165
H	1.090757	0.0	0.0
N	-0.36543	1.338261	-1.994518
O	-1.362504	2.01585	-2.195658
O	0.794332	1.685807	-2.174206
C	0.326612	-0.999004	-2.347729
H	0.154996	-2.037727	-2.077696
H	0.047211	-0.839292	-3.391819
H	1.381576	-0.761989	-2.18977
N	-0.372695	-1.297493	0.721087
O	0.063498	-2.346942	0.260582
O	-1.070823	-1.206899	1.729899
N	-0.485776	1.15647	0.653478
H	0.140241	1.404084	1.407752
H	-1.419846	1.017386	1.016126
Cl	3.263568	0.0	0.0
