18

C	-0.155953	0.01395	-1.473572
C	0.024541	0.010127	0.04616
Cl	-1.950274	0.067706	-1.864338
H	1.119014	-0.014719	0.120897
C	0.518705	1.244304	-2.04589
H	0.071206	2.154059	-1.647864
H	1.560933	1.151279	-1.714161
H	0.448284	1.240821	-3.137366
C	0.45044	-1.247071	-2.055959
H	0.391613	-1.229186	-3.147534
H	1.494742	-1.218484	-1.717512
H	-0.052884	-2.145341	-1.690705
C	-0.534358	-1.206126	0.657587
N	-0.994299	-2.133419	1.216834
N	-0.497358	1.223946	0.669893
H	-1.500732	1.145595	0.79326
H	-0.072818	1.324558	1.583524
F	2.680107	-0.053677	-0.498701
