18

C	-0.385825	-0.012067	-1.480663
C	-0.063567	-0.148904	0.021364
Cl	0.002574	-1.621489	-2.240885
H	0.973696	-0.505874	0.094754
C	-1.854077	0.274225	-1.729049
H	-2.030528	0.456928	-2.792266
H	-2.112862	1.167954	-1.156383
H	-2.486405	-0.555122	-1.404855
C	0.521367	1.044103	-2.0939
H	1.521145	0.990094	-1.649959
H	0.530218	0.943201	-3.182613
H	0.120573	2.024941	-1.826791
C	-0.969977	-1.106881	0.663751
N	-1.704396	-1.844026	1.210258
N	-0.153796	1.180607	0.635778
H	0.862186	1.462689	0.554726
H	-0.347329	1.056275	1.624659
F	2.379173	1.174477	0.139397
