19

C	0.0	0.0	0.0
C	-0.291203	-0.105141	-1.509901
F	1.397572	0.0	0.0
H	0.377768	0.604908	-1.991832
C	-0.482526	1.339726	0.512558
H	-1.577781	1.259159	0.530905
H	-0.147649	2.157399	-0.129799
H	-0.068008	1.481945	1.515245
C	-0.489165	-1.127484	0.875213
H	-0.214139	-0.883411	1.906071
H	-1.581181	-1.125095	0.758906
H	-0.033458	-2.078596	0.603962
N	-1.652795	0.254618	-2.06967
O	-2.311065	-0.619347	-2.607911
O	-1.858148	1.459128	-2.113946
N	0.109466	-1.42206	-2.099399
O	0.939426	-1.368077	-3.012339
O	-0.401826	-2.449217	-1.670674
F	-2.833508	0.0	0.0
