19

C	0.0	0.0	0.0
C	-0.645287	-0.03745	-1.375034
F	1.389297	0.0	0.0
H	-1.75396	0.023596	-1.138362
C	-0.457719	1.276829	0.690956
H	-0.08274	1.2567	1.717729
H	-0.060072	2.164345	0.195141
H	-1.550885	1.267142	0.676421
C	-0.491893	-1.202478	0.792786
H	-0.099475	-2.131357	0.380525
H	-1.585612	-1.159369	0.758973
H	-0.138166	-1.101233	1.822493
N	-0.375567	-1.254726	-2.196413
O	-1.114796	-1.397258	-3.170646
O	0.542896	-2.011478	-1.89121
N	-0.187857	1.093919	-2.234146
O	0.818365	0.920532	-2.924168
O	-0.829597	2.139087	-2.16703
F	-2.960756	0.0	0.0
