19

C	0.0	0.0	0.0
C	-0.164374	0.009726	-1.541851
F	1.405497	0.0	0.0
H	0.264471	0.947128	-1.887399
C	-0.502973	1.294067	0.588979
H	-1.601357	1.199372	0.56777
H	-0.146687	2.154094	0.014198
H	-0.119706	1.373191	1.611697
C	-0.497404	-1.203543	0.756164
H	-1.591401	-1.175506	0.643458
H	-0.040525	-2.121239	0.389039
H	-0.223697	-1.062081	1.807634
N	-1.482922	-0.071574	-2.24966
O	-2.10741	0.977565	-2.281697
O	-1.736265	-1.134108	-2.870735
N	0.742137	-1.020837	-2.168781
O	0.634008	-2.194901	-1.837832
O	1.557901	-0.583978	-2.987098
F	-2.837814	0.0	0.0
