19

C	0.0	0.0	0.0
C	-0.277864	0.17535	-1.511485
F	1.396918	0.0	0.0
H	-0.036904	-0.751212	-2.028069
C	-0.521707	1.100277	0.888348
H	-1.61708	1.018192	0.821087
H	-0.157329	2.075419	0.572608
H	-0.177837	0.898134	1.908429
C	-0.514449	-1.351919	0.426416
H	-0.211715	-1.537914	1.460869
H	-1.612187	-1.261682	0.354828
H	-0.110076	-2.146647	-0.208718
N	0.669253	1.17694	-2.123904
O	1.262761	0.795633	-3.135475
O	0.784618	2.283652	-1.615793
N	-1.649879	0.564004	-2.012558
O	-1.979242	1.73582	-1.895082
O	-2.234186	-0.308107	-2.646794
F	-2.895687	0.0	0.0
