19

C	0.0	0.0	0.0
C	-0.460417	-0.007718	-1.478725
F	1.383328	0.0	0.0
H	-0.685893	-1.013284	-1.816806
C	-0.441508	1.214903	0.786728
H	-0.089696	2.131203	0.313266
H	-1.532305	1.172817	0.826316
H	0.004124	1.131873	1.783694
C	-0.464043	-1.289864	0.641268
H	-0.029172	-2.148211	0.11743
H	-0.13125	-1.31024	1.683239
H	-1.559178	-1.258731	0.574701
N	0.690497	0.462637	-2.331565
O	1.282264	-0.401678	-2.977012
O	0.981694	1.653389	-2.298636
N	-1.639428	0.81302	-1.936437
O	-2.337386	0.250406	-2.776986
O	-1.707664	1.989724	-1.619528
F	-2.781448	0.0	0.0
