16

C	-0.494741	0.005411	-1.424832
C	0.0	0.0	0.0
Br	-2.517189	0.444927	-1.48358
H	1.094278	0.0	0.0
N	0.148335	1.083698	-2.307742
O	0.987383	1.816066	-1.812946
O	-0.200155	1.056187	-3.485139
N	-0.21559	-1.196793	-2.069997
H	-0.519788	-2.006728	-1.548214
H	-0.566943	-1.195783	-3.017941
C	-0.427562	-1.2212	0.646584
N	-0.750056	-2.2712	1.068393
N	-0.406914	1.156346	0.825425
O	-0.667208	2.217299	0.265597
O	-0.384135	0.985253	2.044296
F	2.401829	0.0	0.0
