16

C	-0.198921	-0.232726	-1.512347
C	0.0	0.0	0.0
Br	-1.975426	-0.902992	-1.950606
H	1.095263	0.0	0.0
N	0.036084	1.088353	-2.289756
O	1.203742	1.448261	-2.284351
O	-0.896354	1.64507	-2.848841
N	0.80676	-1.134846	-1.990406
H	1.674103	-0.867742	-1.490809
H	0.556112	-2.080457	-1.725445
C	-0.403993	-1.178473	0.737682
N	-0.676616	-2.173561	1.301822
N	-0.563913	1.217794	0.615145
O	-0.587016	2.23948	-0.06797
O	-0.909318	1.148897	1.793788
F	2.489771	0.0	0.0
