16

C	-0.361087	-0.008023	-1.463002
C	0.0	0.0	0.0
Br	0.132112	-1.829738	-2.196306
H	1.093089	0.0	0.0
N	-1.865211	0.047089	-1.768643
O	-2.592802	-0.677187	-1.105832
O	-2.2155	0.790412	-2.68265
N	0.307963	1.061376	-2.041179
H	1.286035	1.022953	-1.742753
H	0.179147	1.143984	-3.040296
C	-0.525522	-1.067048	0.823865
N	-0.862554	-1.91336	1.567364
N	-0.463229	1.322289	0.571831
O	-1.670735	1.56753	0.519891
O	0.391388	2.061176	1.04671
F	2.488622	0.0	0.0
