16

C	-0.544644	-0.011213	-1.452221
C	0.0	0.0	0.0
Br	0.167821	1.560176	-2.355651
H	1.0899	0.0	0.0
N	0.090952	-1.252395	-2.135655
O	-0.694155	-2.130824	-2.499496
O	1.315036	-1.280965	-2.197465
N	-1.929445	-0.085117	-1.686364
H	-2.4157	0.600129	-1.12269
H	-2.277316	-1.017539	-1.506483
C	-0.553471	-1.142632	0.699313
N	-1.01842	-2.092334	1.215947
N	-0.464045	1.254322	0.697552
O	-1.680886	1.445555	0.772298
O	0.405446	1.994896	1.135663
F	2.493687	0.0	0.0
