14

C	0.0	0.0	0.0
C	-0.476364	0.351245	-1.40466
Cl	1.836585	0.0	0.0
H	-0.017636	-0.376843	-2.077149
H	-1.564249	0.192748	-1.351878
C	-0.30924	1.099634	0.946838
N	-0.485252	1.936725	1.753804
N	-0.56144	-1.25845	0.361588
H	-0.357135	-1.452846	1.337342
H	-1.597294	-1.067069	0.292787
N	-0.104921	1.714299	-1.777422
H	0.030867	1.76185	-2.779435
H	-0.881016	2.326041	-1.547628
H	-3.024662	0.0	0.0
