14

C	0.0	0.0	0.0
C	-0.482536	-0.005763	-1.449657
Cl	1.784335	0.0	0.0
H	-0.010198	0.825306	-1.983864
H	-1.567288	0.160611	-1.350851
C	-0.320471	1.3303	0.586478
N	-0.456903	2.40207	1.05002
N	-0.605754	-1.102444	0.675812
H	-1.642822	-0.882958	0.562448
H	-0.387441	-1.060508	1.667025
N	-0.12287	-1.27815	-2.087398
H	-0.739067	-1.399052	-2.884413
H	-0.373766	-2.004267	-1.421929
H	-3.009769	0.0	0.0
