14

C	0.0	0.0	0.0
C	-0.33318	0.060461	-1.533816
Cl	1.790117	0.0	0.0
H	0.479067	-0.465797	-2.045795
H	-0.259942	1.119537	-1.831924
C	-0.383556	1.261573	0.656564
N	-0.571469	2.314812	1.141513
N	-0.557368	-1.112983	0.704989
H	-0.55265	-1.898211	0.059393
H	-1.560964	-0.872623	0.805217
N	-1.58431	-0.607305	-1.843195
H	-2.326414	-0.31957	-1.150552
H	-1.898573	-0.277694	-2.75243
H	-3.262781	0.0	0.0
