14

C	0.0	0.0	0.0
C	-0.716156	0.044768	-1.347276
Cl	1.866478	0.0	0.0
H	-0.117563	0.604932	-2.073069
H	-1.662006	0.569493	-1.092334
C	-0.244462	1.269705	0.719634
N	-0.368202	2.295321	1.277981
N	-0.469908	-1.084045	0.739063
H	-0.527124	-1.905583	0.149912
H	0.00534	-1.224169	1.616686
N	-1.05721	-1.303325	-1.786944
H	-0.953261	-1.381964	-2.790453
H	-2.053395	-1.405037	-1.550839
H	-3.402284	0.0	0.0
