14

C	0.0	0.0	0.0
C	-0.476633	0.085876	-1.449262
Cl	1.784043	0.0	0.0
H	-1.56096	0.250041	-1.352632
H	0.006239	0.944013	-1.926949
C	-0.33664	1.282047	0.674957
N	-0.511057	2.30218	1.23303
N	-0.600404	-1.147931	0.603653
H	-1.635865	-0.927558	0.497325
H	-0.3909	-1.157807	1.596845
N	-0.120367	-1.147696	-2.161959
H	-0.758983	-1.234029	-2.94686
H	-0.347241	-1.907742	-1.527151
H	-3.021575	0.0	0.0
