14

C	0.0	0.0	0.0
C	-0.473464	0.082308	-1.450792
Cl	1.784646	0.0	0.0
H	-0.003459	0.950183	-1.925156
H	-1.560448	0.231322	-1.354811
C	-0.332518	1.278517	0.67943
N	-0.495938	2.308101	1.222896
N	-0.595814	-1.15054	0.603409
H	-1.631863	-0.932288	0.501338
H	-0.378245	-1.165812	1.595837
N	-0.096107	-1.1439	-2.16523
H	-0.305623	-1.907748	-1.528523
H	-0.736919	-1.242932	-2.946305
H	-3.01691	0.0	0.0
