14

C	0.0	0.0	0.0
C	-0.625127	0.219388	-1.407565
Cl	1.867084	0.0	0.0
H	0.179574	0.184372	-2.145624
H	-1.055337	1.230458	-1.404179
C	-0.247738	1.166918	0.874922
N	-0.389417	2.100827	1.573779
N	-0.481221	-1.167065	0.57482
H	0.008215	-1.511315	1.381613
H	-0.816045	-1.828529	-0.113213
N	-1.605603	-0.822527	-1.656833
H	-2.462007	-0.567927	-1.070665
H	-1.873626	-0.783273	-2.634726
H	-3.55296	0.0	0.0
