14

C	0.0	0.0	0.0
C	-0.346323	0.445346	-1.475482
Cl	1.843578	0.0	0.0
H	0.471564	0.055337	-2.086938
H	-0.28079	1.538535	-1.499291
C	-0.324515	1.040392	0.994289
N	-0.4757	1.896033	1.786945
N	-0.550918	-1.286665	0.275227
H	-0.331755	-1.545007	1.233713
H	-1.578458	-1.118653	0.233331
N	-1.58888	0.003024	-2.046098
H	-1.53712	-1.003272	-2.160168
H	-2.356881	0.150603	-1.358253
H	-3.203405	0.0	0.0
