14

C	0.0	0.0	0.0
C	-0.524658	0.157692	-1.466365
Cl	1.790064	0.0	0.0
H	0.315047	0.342509	-2.140293
H	-1.190683	1.028095	-1.464689
C	-0.332682	1.22881	0.753046
N	-0.469394	2.247038	1.322174
N	-0.508745	-1.133032	0.716769
H	-1.521878	-0.911175	0.785119
H	-0.459724	-1.907256	0.05629
N	-1.225961	-1.061284	-1.849589
H	-2.131944	-0.959233	-1.355616
H	-1.416746	-1.010457	-2.845948
H	-3.006808	0.0	0.0
