16

C	-0.281669	-0.063291	-1.378007
C	0.031621	-0.256664	0.100843
Cl	-0.022853	-1.536893	-2.331502
H	1.101912	-0.518688	0.098915
H	0.369524	0.714532	-1.776022
N	-1.696589	0.40051	-1.577751
O	-1.84494	1.557412	-1.959114
O	-2.604694	-0.389125	-1.32802
C	-0.770191	-1.336891	0.80805
H	-0.35285	-1.482362	1.809704
H	-1.813038	-1.034874	0.905489
H	-0.72618	-2.290992	0.281402
N	-0.219703	1.042619	0.716724
H	0.529172	1.65789	0.390307
H	-0.09599	0.944244	1.718835
Cl	2.568066	1.796575	-0.849196
