16

C	-0.518755	-0.057852	-1.470244
C	0.072878	-0.190362	-0.07023
Cl	0.319206	1.131775	-2.463927
H	1.151872	-0.336344	-0.181051
H	-1.575341	0.209681	-1.431093
N	-0.499684	-1.389396	-2.171938
O	-1.594363	-1.926617	-2.348641
O	0.588914	-1.872664	-2.456963
C	-0.549821	-1.390256	0.643893
H	-0.158831	-1.396068	1.661343
H	-0.309617	-2.345882	0.169304
H	-1.637769	-1.28411	0.702576
N	-0.141871	1.02377	0.702154
H	-0.815101	1.636111	0.257975
H	0.755555	1.516642	0.754607
Cl	2.968863	1.877804	0.626877
