16

C	-0.014454	0.052705	-1.360229
C	-0.05553	0.234833	0.15497
Cl	-1.571765	-0.509479	-2.006738
H	0.953824	0.574809	0.416793
H	0.768637	-0.677457	-1.63315
N	0.357475	1.335139	-2.073283
O	0.919841	2.201282	-1.400612
O	0.145581	1.415759	-3.276701
C	-0.282419	-1.112063	0.824719
H	-0.157539	-0.989929	1.902371
H	-1.294483	-1.479974	0.635974
H	0.441386	-1.837836	0.449459
N	-1.004921	1.222514	0.654827
H	-0.768152	2.130827	0.274462
H	-1.935483	0.98077	0.331957
Cl	2.577677	-1.946159	-1.427124
