16

C	-0.566837	-0.00814	-1.602525
C	0.078266	-0.086854	-0.227392
Cl	-0.63753	-1.55534	-2.484925
H	1.145462	-0.244129	-0.415534
H	-0.025209	0.701579	-2.221303
N	-1.968242	0.541837	-1.556435
O	-2.239704	1.422853	-2.368233
O	-2.745752	0.072719	-0.730318
C	-0.38355	-1.196016	0.707675
H	-1.419373	-1.049119	1.017349
H	0.273504	-1.151652	1.578068
H	-0.292983	-2.185577	0.253242
N	-0.050819	1.262505	0.313266
H	0.810055	1.430997	0.839124
H	-0.818996	1.278861	0.975607
Cl	2.823796	0.607841	1.684628
