16

C	-0.021415	0.05833	-1.37152
C	-0.047229	0.219015	0.146503
Cl	-1.591959	-0.471285	-2.01301
H	0.970751	0.538938	0.404109
H	0.748727	-0.679274	-1.660872
N	0.364182	1.34535	-2.06884
O	0.948251	2.191168	-1.388888
O	0.140688	1.448661	-3.268435
C	-0.290262	-1.133462	0.798952
H	0.41844	-1.865342	0.407093
H	-0.153868	-1.028765	1.877043
H	-1.309752	-1.482334	0.614024
N	-0.976269	1.214334	0.668542
H	-0.729483	2.12419	0.298426
H	-1.913554	0.990949	0.351982
Cl	2.54098	-1.976348	-1.484422
