16

C	0.0	0.0	0.0
C	-0.425863	-0.335174	-1.493339
Br	1.95049	0.0	0.0
H	0.406975	-0.858818	-1.972177
N	-0.520106	1.205082	0.542562
H	-1.552772	0.997853	0.484747
H	-0.305989	1.986292	-0.070073
C	-0.401267	-1.169769	0.896439
H	0.002045	-0.990403	1.893866
H	-0.011652	-2.116336	0.51278
H	-1.494253	-1.163527	0.908611
C	-0.625675	0.900482	-2.247461
N	-0.702379	1.911085	-2.839409
C	-1.574837	-1.239864	-1.655913
N	-2.229973	-2.134592	-2.048133
F	-2.738601	0.0	0.0
