16

C	0.0	0.0	0.0
C	-0.323104	0.130822	-1.528748
Br	1.952355	0.0	0.0
H	0.289806	0.974539	-1.865689
N	-0.542345	1.171434	0.619576
H	-1.574011	0.959064	0.517645
H	-0.317739	1.134505	1.610021
C	-0.439217	-1.329192	0.60126
H	-0.118489	-1.365576	1.646861
H	-1.532202	-1.306903	0.538377
H	-0.010464	-2.185036	0.075033
C	-1.691633	0.463712	-1.98538
N	-2.492444	0.831323	-2.767125
C	0.125849	-1.047043	-2.282934
N	0.490217	-1.970887	-2.910334
F	-2.780936	0.0	0.0
