19

C	0.0	0.0	0.0
C	-0.447358	-0.041636	-1.479352
Cl	1.802852	0.0	0.0
H	-1.539493	-0.039013	-1.369707
N	-0.480079	1.24085	0.576127
H	-1.505783	1.087763	0.489913
H	-0.255024	1.223107	1.567292
N	-0.481085	-1.20644	0.64204
H	-1.507122	-1.055923	0.549826
H	-0.254505	-1.13989	1.631761
C	-0.013212	-1.317633	-2.191084
H	-0.290464	-2.197092	-1.61018
H	1.069907	-1.337457	-2.350787
H	-0.499606	-1.372915	-3.172102
C	-0.014553	1.192846	-2.261496
H	1.068709	1.204766	-2.42166
H	-0.292508	2.102965	-1.731042
H	-0.500602	1.192706	-3.243747
F	-2.861888	0.0	0.0
