19

C	0.0	0.0	0.0
C	-0.472551	-0.014207	-1.455423
Cl	1.850333	0.0	0.0
H	-1.556953	0.123696	-1.288945
N	-0.54775	1.145049	0.637053
H	-0.256637	1.162626	1.611701
H	-1.582623	0.900984	0.559769
N	-0.362713	-1.233585	0.661325
H	0.209435	-1.999096	0.323907
H	-0.203752	-1.12671	1.657032
C	-0.260356	-1.356852	-2.139844
H	0.789247	-1.674704	-2.102442
H	-0.542916	-1.283298	-3.19524
H	-0.89218	-2.117061	-1.677268
C	0.142247	1.124952	-2.260162
H	0.133512	2.047807	-1.678774
H	-0.426821	1.284523	-3.182214
H	1.178469	0.902951	-2.537812
F	-2.883777	0.0	0.0
