19

C	0.0	0.0	0.0
C	-0.429558	-0.135066	-1.472809
Cl	1.850329	0.0	0.0
H	-1.522762	-0.156541	-1.373414
N	-0.472581	1.272659	0.494388
H	-1.498072	1.115588	0.404881
H	-0.261525	1.32238	1.488189
N	-0.467044	-1.164173	0.718654
H	-1.494524	-1.024897	0.620234
H	-0.237569	-1.028869	1.700251
C	0.046733	-1.434367	-2.113044
H	-0.466014	-1.580237	-3.070708
H	-0.167383	-2.284121	-1.465079
H	1.123952	-1.411459	-2.30747
C	-0.031578	1.068207	-2.319815
H	-0.467744	0.969879	-3.321024
H	-0.388173	1.99569	-1.870749
H	1.055829	1.136349	-2.429358
F	-2.845378	0.0	0.0
