19

C	0.0	0.0	0.0
C	-0.438553	0.191077	-1.471997
Cl	1.811755	0.0	0.0
H	-1.529023	0.113963	-1.368208
N	-0.471052	1.030741	0.898219
H	-1.496865	0.927232	0.775242
H	-0.188304	1.943443	0.557943
N	-0.494298	-1.27861	0.439211
H	-0.307712	-1.315454	1.438012
H	-1.518773	-1.124171	0.337457
C	0.078872	-0.910032	-2.392594
H	-0.041208	-1.883927	-1.918518
H	-0.48339	-0.902447	-3.33336
H	1.138455	-0.769461	-2.630511
C	-0.099481	1.56488	-2.038807
H	-0.432439	1.622316	-3.080457
H	-0.608799	2.365056	-1.496322
H	0.978723	1.757307	-2.020805
F	-2.861276	0.0	0.0
