19

C	0.0	0.0	0.0
C	-0.337075	0.011268	-1.547924
Cl	1.857396	0.0	0.0
H	0.612914	-0.172288	-2.055483
N	-0.468942	1.189804	0.65933
H	-0.247329	1.091359	1.64527
H	-1.495242	1.0479	0.560267
N	-0.43639	-1.251766	0.577248
H	-0.185613	-1.235743	1.563972
H	-1.465023	-1.121973	0.516831
C	-0.837632	1.374241	-2.017174
H	-0.150204	2.173437	-1.727808
H	-1.820224	1.564825	-1.582154
H	-0.928169	1.365974	-3.11031
C	-1.280907	-1.096569	-2.02362
H	-1.333972	-1.054457	-3.118207
H	-2.264114	-0.936718	-1.583258
H	-0.905136	-2.079554	-1.734561
F	-2.827936	0.0	0.0
