19

C	0.0	0.0	0.0
C	-0.344397	0.122112	-1.547273
Cl	1.863407	0.0	0.0
H	0.607201	0.144951	-2.083861
N	-0.436258	1.072999	0.853978
H	-1.463506	0.968392	0.777219
H	-0.170952	1.965741	0.453412
N	-0.463199	-1.250464	0.524483
H	-0.283015	-1.202318	1.524453
H	-1.48816	-1.132917	0.412082
C	-1.094483	1.412689	-1.87914
H	-1.279875	1.453835	-2.958512
H	-0.524482	2.311152	-1.619091
H	-2.04676	1.387607	-1.348108
C	-1.131713	-1.071288	-2.093216
H	-1.211962	-0.974838	-3.18282
H	-0.633901	-2.014807	-1.863179
H	-2.126868	-1.060576	-1.649517
F	-2.838963	0.0	0.0
