19

C	0.0	0.0	0.0
C	-0.242462	0.057355	-1.567557
Cl	1.805375	0.0	0.0
H	0.575995	-0.543043	-1.975739
N	-0.51814	1.178365	0.643671
H	-0.326789	1.095661	1.639666
H	-1.541634	1.017976	0.514301
N	-0.487417	-1.269041	0.494816
H	-1.511678	-1.106243	0.420264
H	-0.264364	-1.317156	1.486464
C	-0.076772	1.486503	-2.079349
H	-0.929726	2.094764	-1.777017
H	-0.021102	1.481786	-3.173421
H	0.823974	1.957947	-1.687328
C	-1.505204	-0.569622	-2.159257
H	-1.586417	-1.617585	-1.864501
H	-1.404866	-0.529936	-3.252359
H	-2.405169	-0.069433	-1.809686
F	-2.892611	0.0	0.0
