19

C	0.0	0.0	0.0
C	-0.184387	0.01364	-1.581086
Cl	1.870713	0.0	0.0
H	0.632475	-0.593642	-1.985366
N	-0.439182	1.219322	0.59644
H	-0.780395	1.024503	1.527806
H	0.291883	1.912061	0.61652
N	-0.642689	-1.063859	0.678087
H	-0.491587	-1.922347	0.159698
H	-1.670832	-0.780667	0.533927
C	-0.02518	1.431245	-2.123873
H	-0.862491	2.039043	-1.777173
H	0.910987	1.896705	-1.802492
H	-0.027528	1.415375	-3.219174
C	-1.483855	-0.592579	-2.104799
H	-1.519295	-0.445835	-3.192315
H	-2.347923	-0.164861	-1.58149
H	-1.510709	-1.672137	-1.921409
F	-3.028379	0.0	0.0
