15

C	-0.27172	0.01312	-1.49682
C	0.0	0.0	0.0
Cl	-2.04921	0.116244	-1.870058
H	1.099034	0.0	0.0
H	0.011943	-0.970072	-1.890171
N	0.408671	1.125527	-2.09183
H	1.354292	1.151116	-1.712286
H	0.46858	1.00481	-3.094477
C	-0.510887	-1.249453	0.706935
H	-0.074984	-2.13488	0.237768
H	-1.600387	-1.317528	0.661818
H	-0.197366	-1.236935	1.752141
C	-0.486518	1.216873	0.640991
N	-0.8716	2.179329	1.192712
Cl	3.324223	0.0	0.0
