15

C	-0.559897	-0.011957	-1.42241
C	0.0	0.0	0.0
Cl	0.157138	1.311398	-2.380119
H	1.09482	0.0	0.0
H	-1.633941	0.225672	-1.381193
N	-0.268097	-1.270547	-2.082299
H	-0.907512	-1.977603	-1.735483
H	-0.42337	-1.16993	-3.078716
C	-0.444571	-1.249434	0.77119
H	-0.119622	-1.170539	1.809919
H	-1.533606	-1.377897	0.758536
H	0.043152	-2.122631	0.337087
C	-0.490935	1.193824	0.687637
N	-0.939598	2.111063	1.268397
Cl	3.39512	0.0	0.0
