15

C	-0.404678	-0.021214	-1.464523
C	0.0	0.0	0.0
Cl	-2.270411	-0.383043	-1.586579
H	1.096452	0.0	0.0
H	0.023643	-0.901273	-1.943758
N	-0.044617	1.141701	-2.144965
H	-0.271259	1.115461	-3.127148
H	-0.39532	1.984983	-1.71213
C	-0.430295	-1.237419	0.78811
H	-1.509903	-1.283607	0.931658
H	0.069588	-1.230342	1.758071
H	-0.102432	-2.131412	0.252201
C	-0.480646	1.225517	0.630645
N	-0.89531	2.215458	1.108825
Cl	3.335015	0.0	0.0
