15

C	-0.489033	0.020634	-1.448051
C	0.0	0.0	0.0
Cl	0.232498	-1.417504	-2.331235
H	1.094438	0.0	0.0
H	-0.055825	0.881675	-1.958108
N	-1.911713	0.067923	-1.546946
H	-2.317205	-0.78119	-1.17196
H	-2.194955	0.149458	-2.51532
C	-0.480265	-1.203783	0.81337
H	-1.565643	-1.206518	0.951268
H	-0.012048	-1.171668	1.798133
H	-0.166422	-2.126995	0.325381
C	-0.448372	1.24163	0.633438
N	-0.818984	2.226234	1.155873
Cl	3.371708	0.0	0.0
