15

C	-0.552015	-0.008958	-1.425086
C	0.0	0.0	0.0
Cl	0.165135	1.32548	-2.369109
H	1.094782	0.0	0.0
H	-1.627927	0.218432	-1.390449
N	-0.249632	-1.267387	-2.085253
H	-0.957479	-1.947297	-1.833105
H	-0.27885	-1.139685	-3.088505
C	-0.450655	-1.253386	0.759744
H	-0.111293	-1.193495	1.794717
H	-1.541396	-1.366857	0.758572
H	0.018128	-2.125727	0.304279
C	-0.491023	1.191746	0.691733
N	-0.931161	2.110898	1.276136
Cl	3.404013	0.0	0.0
