15

C	-0.344141	-0.112995	-1.481523
C	0.0	0.0	0.0
F	-1.641926	-0.729729	-1.620073
H	1.092302	0.0	0.0
H	-0.331245	-0.917613	0.495219
N	-0.364002	1.164158	-2.108606
H	-0.617187	1.06022	-3.083019
H	-1.03713	1.771484	-1.655606
C	0.673513	-1.020083	-2.140268
H	0.506856	-2.04848	-1.810265
H	0.586083	-0.983124	-3.229525
H	1.661624	-0.699065	-1.793023
C	-0.610627	1.143648	0.643564
N	-1.104777	2.089536	1.138022
F	2.636622	0.0	0.0
