15

C	-0.318706	0.069271	-1.491617
C	0.0	0.0	0.0
F	-0.096633	-1.209687	-2.030047
H	1.092886	0.0	0.0
H	-0.31168	0.934785	0.48132
N	-1.705514	0.380296	-1.762322
H	-2.073423	0.998054	-1.0518
H	-1.799259	0.831975	-2.664934
C	0.70929	0.975323	-2.153292
H	1.69318	0.690518	-1.762884
H	0.516018	2.021594	-1.890248
H	0.649505	0.860227	-3.237737
C	-0.617786	-1.122447	0.673618
N	-1.110963	-2.015013	1.257019
F	2.642645	0.0	0.0
