15

C	-0.345445	-0.151217	-1.47758
C	0.0	0.0	0.0
F	-1.645318	-0.764746	-1.599543
H	1.092259	0.0	0.0
H	-0.330113	-0.904718	0.519269
N	-0.357992	1.107105	-2.1404
H	-0.617826	0.975681	-3.109743
H	-1.024253	1.730517	-1.700876
C	0.668055	-1.082246	-2.110758
H	0.579383	-1.07739	-3.201698
H	0.495184	-2.099124	-1.749479
H	1.657234	-0.754543	-1.773307
C	-0.610985	1.158835	0.61546
N	-1.106482	2.115764	1.086576
F	2.635889	0.0	0.0
