18

C	-0.361675	0.115991	-1.496487
C	0.0	0.0	0.0
Cl	-0.119865	-1.601755	-2.212882
H	1.09622	0.0	0.0
N	-1.695422	0.558463	-1.691823
H	-1.886161	0.600531	-2.68555
H	-2.355563	-0.05776	-1.242059
N	0.520673	0.945314	-2.26475
H	0.427633	1.868535	-1.852077
H	1.468701	0.643405	-2.030153
C	-0.519942	-1.184612	0.779771
H	-0.24579	-1.061557	1.828305
H	-0.039941	-2.087605	0.4056
H	-1.608329	-1.299826	0.72665
N	-0.386284	1.264726	0.658947
O	0.044897	2.320486	0.181664
O	-1.060348	1.22413	1.700578
H	2.673892	0.0	0.0
