18

C	-0.311284	-0.210418	-1.476354
C	0.0	0.0	0.0
Cl	0.104214	1.523294	-2.342399
H	1.094197	0.0	0.0
N	0.618695	-1.152296	-1.933723
H	1.555194	-0.903561	-1.580314
H	0.628564	-1.210059	-2.943544
N	-1.6498	-0.52612	-1.796989
H	-1.75471	-0.630227	-2.799439
H	-2.237679	0.233641	-1.477548
C	-0.476152	-1.160239	0.858844
H	-0.080552	-2.082085	0.433831
H	-1.566702	-1.219626	0.895661
H	-0.070381	-1.03693	1.866763
N	-0.575262	1.235727	0.566709
O	-1.703922	1.580996	0.191812
O	0.061129	1.806466	1.448652
H	2.786908	0.0	0.0
