18

C	-0.238982	0.05548	-1.494094
C	0.0	0.0	0.0
Cl	-2.151583	0.941487	-1.737156
H	1.091604	0.0	0.0
N	0.68431	0.843652	-2.133792
H	1.529755	0.961919	-1.562158
H	0.900025	0.544081	-3.072358
N	-0.435027	-1.220431	-2.061168
H	-1.289017	-1.636267	-1.713427
H	-0.517236	-1.136208	-3.068445
C	-0.573764	-1.189098	0.720463
H	-0.276353	-1.149463	1.767768
H	-0.156615	-2.095257	0.280797
H	-1.666166	-1.207953	0.67693
N	-0.348848	1.270654	0.663894
O	0.132612	2.29963	0.196824
O	-1.032869	1.227909	1.691594
H	2.630416	0.0	0.0
