18

C	-0.144776	0.082269	-1.518253
C	0.0	0.0	0.0
Cl	-1.862729	-0.106067	-2.113636
H	1.097643	0.0	0.0
N	0.350153	1.372536	-1.903697
H	1.274618	1.455455	-1.470236
H	0.486256	1.348247	-2.909455
N	0.619412	-0.972444	-2.15604
H	1.558379	-0.914824	-1.738931
H	0.227406	-1.879718	-1.928342
C	-0.579559	-1.209711	0.686093
H	-0.325182	-1.175139	1.748611
H	-0.134669	-2.116994	0.275447
H	-1.663982	-1.247926	0.574421
N	-0.513863	1.219644	0.677653
O	-1.724443	1.442516	0.610383
O	0.28689	1.907079	1.310918
H	2.799991	0.0	0.0
