18

C	-0.448179	-0.025634	-1.461939
C	0.0	0.0	0.0
Cl	-0.115328	1.645916	-2.2128
H	1.091745	0.0	0.0
N	0.333277	-1.041607	-2.070325
H	0.242302	-1.005098	-3.077032
H	1.313974	-0.931678	-1.799329
N	-1.874109	-0.238008	-1.634374
H	-2.245923	0.344989	-2.369908
H	-2.026179	-1.212725	-1.857705
C	-0.522609	-1.205986	0.755957
H	-0.124898	-1.180517	1.773994
H	-1.611517	-1.204364	0.793704
H	-0.158276	-2.112551	0.272406
N	-0.470391	1.231001	0.700563
O	-1.623196	1.247254	1.144483
O	0.328127	2.157967	0.818281
H	2.860073	0.0	0.0
