9
Coordinates from ORCA-job run
  C   0.31782046877162      0.38181044704940      0.29746113755828
  C   -1.00651374636452     -0.15926870807012     -0.22336237038883
  Br  0.84196492036541      1.98895286166374     -0.68708059245413
  H   -0.91895297458722     -0.43643414533259     -1.27399314443705
  H   0.23111685444038      0.70043400105772      1.33734718558115
  H   -1.78395411864782      0.59826518511415     -0.12041465408389
  H   -1.29043703291974     -1.04273600278565      0.35402293768286
  C   1.38777679268332     -0.60353992524756      0.19649845094381
  N   2.22017883625858     -1.42848371344909      0.11952104959780
