16

C	0.0	0.0	0.0
C	-0.526092	-0.246333	-1.433943
Cl	1.762795	0.0	0.0
H	0.003341	-1.171679	-1.700379
H	-0.328773	-0.796389	0.667411
N	-0.468147	1.267035	0.68031
O	-0.325707	1.299257	1.898908
O	-0.939563	2.160646	-0.013173
C	-0.12721	0.813939	-2.457361
H	-0.288917	0.391302	-3.450248
H	-0.757029	1.694585	-2.356953
H	0.917213	1.115897	-2.365829
N	-1.933823	-0.5127	-1.540917
H	-2.245071	-1.293435	-0.977385
H	-2.533714	0.260101	-1.270486
Br	-4.844068	0.0	0.0
