12
Coordinates from ORCA-job run
  C   0.05745396221945      0.25756548070942     -0.32914913936701
  C   -1.23799100307239     -0.49078244509364     -0.22233660462325
  H   0.15680562570319      0.90682663680270     -1.19468333356238
  H   -1.36680411848664     -1.12366232858521     -1.10208036518690
  H   -2.06594967116633      0.21858332461452     -0.17438991774121
  H   -1.23624628479297     -1.10806146635279      0.67246447472001
  N   1.24064122967064     -0.67725761690033     -0.37421265966838
  O   1.19947148625149     -1.66385229016041      0.35318758944774
  O   2.15577911469232     -0.35345607699073     -1.12704123836784
  N   0.29912612303531      1.13292568018504      0.87562446460547
  O   0.82934441078196      2.21890705863529      0.65497333905733
  O   -0.03163087483602      0.68326404313614      1.96764339068641
