12
Coordinates from ORCA-job run
  C   0.07104280825929      0.20603285208151     -0.36012226977592
  C   -1.24720694427988     -0.47612882666430     -0.12351651587366
  H   0.14114649389519      0.75054832872636     -1.29987758400740
  H   -2.03931446771242      0.27514027166547     -0.12059945331889
  H   -1.23046764741864     -1.00044493707793      0.83070457844563
  H   -1.44268109078648     -1.19576144483906     -0.91783018222324
  N   1.24188125067739     -0.74254772332582     -0.33790327294424
  O   1.02826685072009     -1.92398946685315     -0.09292274415632
  O   2.32822621107322     -0.22464991386287     -0.57596089760965
  N   0.33681291097022      1.20394513177855      0.73079376534638
  O   0.67152108779124      0.74673429316261      1.81760942145113
  O   0.14077253681078      2.38112143520862      0.44962515466616
