18

C	0.0	0.0	0.0
C	-0.150172	0.810888	-1.291811
Br	2.305926	0.0	0.0
H	0.512999	0.365017	-2.04407
N	-0.460724	0.602802	1.140032
H	-0.540112	1.602114	0.995933
H	-1.316821	0.181477	1.482112
N	-0.327195	-1.329459	-0.109393
H	0.132542	-1.784198	-0.882952
H	-0.203299	-1.845608	0.749607
N	0.200722	2.194456	-0.983356
H	-0.146198	2.798718	-1.71675
H	1.209742	2.278008	-0.930316
C	-1.594655	0.738166	-1.769897
H	-1.720676	1.404182	-2.631384
H	-1.858914	-0.272731	-2.076992
H	-2.316239	1.009542	-0.999649
Cl	-4.49358	0.0	0.0
