18

C	0.0	0.0	0.0
C	-0.340921	-0.265426	-1.502317
Br	2.034491	0.0	0.0
H	0.317467	0.408626	-2.065764
N	-0.425518	1.310284	0.357109
H	-0.393912	1.465295	1.35631
H	0.103884	2.028294	-0.122572
N	-0.516517	-1.021771	0.847537
H	-1.530193	-1.021172	0.702907
H	-0.346953	-0.797276	1.823074
N	-1.702752	0.048599	-1.869551
H	-2.366874	-0.618982	-1.490396
H	-1.991644	0.920227	-1.440244
C	-0.037081	-1.698782	-1.912624
H	-0.715086	-2.383051	-1.399398
H	-0.200516	-1.792777	-2.987619
H	0.985076	-1.989725	-1.67261
Cl	-4.305047	0.0	0.0
