18

C	0.0	0.0	0.0
C	-0.108023	-0.532824	-1.43831
Br	2.294355	0.0	0.0
H	0.586928	-1.376178	-1.535591
N	-0.514893	1.25323	0.210834
H	-0.578403	1.736292	-0.678
H	-1.418115	1.197089	0.676355
N	-0.326128	-0.915104	0.970645
H	0.1653	-1.789246	0.867124
H	-0.255304	-0.5566	1.911438
N	0.225048	0.570978	-2.336688
H	-0.127182	0.363473	-3.261236
H	1.232402	0.676532	-2.377147
C	-1.522853	-1.015722	-1.733484
H	-1.797541	-1.858681	-1.101057
H	-2.277986	-0.250898	-1.557734
H	-1.550278	-1.328548	-2.783922
Cl	-4.198116	0.0	0.0
