18

C	0.0	0.0	0.0
C	-0.299226	0.064938	-1.520115
Br	2.200043	0.0	0.0
H	0.400153	0.804459	-1.921943
N	-0.331988	1.202445	0.662743
H	-0.783034	1.066425	1.556481
H	0.439273	1.847135	0.718361
N	-0.526309	-1.091973	0.614311
H	-0.515806	-1.966447	0.122188
H	-0.463613	-1.157925	1.615922
N	-1.639236	0.529409	-1.791871
H	-2.35743	-0.056444	-1.367808
H	-1.768761	1.425507	-1.339155
C	-0.066873	-1.266831	-2.220058
H	-0.877236	-1.965768	-1.983136
H	-0.097401	-1.105935	-3.298403
H	0.896237	-1.709162	-1.953428
Cl	-4.377888	0.0	0.0
