18

C	0.0	0.0	0.0
C	-0.334384	-0.207559	-1.532272
Br	1.966195	0.0	0.0
H	0.480646	0.296391	-2.057235
N	-0.402446	1.346098	0.374657
H	-1.424083	1.326148	0.400255
H	-0.079994	1.535254	1.31898
N	-0.498822	-1.081534	0.805696
H	-0.367566	-0.853781	1.78664
H	-1.5089	-1.1077	0.642757
N	-1.548196	0.403466	-2.025531
H	-1.502573	1.404026	-1.875365
H	-2.377752	0.072148	-1.536329
C	-0.320929	-1.683437	-1.907398
H	-1.195019	-2.188384	-1.492014
H	-0.369511	-1.761244	-2.996026
H	0.572972	-2.189276	-1.539451
Cl	-3.964468	0.0	0.0
