16

C	0.0	0.0	0.0
C	-0.50637	0.047891	-1.430738
F	1.372928	0.0	0.0
H	-0.333058	-0.953734	-1.839014
H	-1.588325	0.200498	-1.391811
N	-0.322792	1.302423	0.74515
O	0.060142	1.357167	1.91191
O	-0.878439	2.2148	0.140872
C	-0.536824	-1.148606	0.802429
H	-0.24662	-2.081677	0.314265
H	-1.628781	-1.074359	0.827517
H	-0.125841	-1.120082	1.811221
N	0.125858	1.024569	-2.308131
H	-0.197263	1.943492	-2.03694
H	1.128329	0.99735	-2.165398
Br	-3.996834	0.0	0.0
