16

C	0.0	0.0	0.0
C	-0.395963	0.232009	-1.464118
F	1.369303	0.0	0.0
H	0.257723	1.031903	-1.820174
H	-0.084279	-0.684909	-1.980182
N	-0.325319	1.240939	0.839823
O	-0.384026	1.096377	2.057926
O	-0.402298	2.317436	0.251217
C	-0.584853	-1.214128	0.651051
H	-0.334932	-2.088818	0.046668
H	-0.193428	-1.338934	1.659264
H	-1.673306	-1.105295	0.694843
N	-1.754997	0.545096	-1.811115
H	-2.021869	1.437901	-1.418871
H	-2.438984	-0.109424	-1.442594
Br	-4.521119	0.0	0.0
