16

C	0.0	0.0	0.0
C	-0.558959	-0.186644	-1.391119
F	1.369306	0.0	0.0
H	-0.295888	-1.212741	-1.668154
H	-1.650378	-0.130848	-1.297922
N	-0.329868	1.404303	0.527326
O	0.067564	1.653291	1.663131
O	-0.913008	2.196651	-0.206077
C	-0.533141	-1.000084	0.988531
H	-1.623062	-0.915065	1.028178
H	-0.25861	-2.003185	0.654485
H	-0.097243	-0.810568	1.968552
N	0.033863	0.724647	-2.373054
H	-0.502277	1.582352	-2.357561
H	-0.078394	0.315656	-3.292102
Br	-4.052863	0.0	0.0
