16

C	0.0	0.0	0.0
C	-0.38345	-0.840277	-1.223776
F	1.371889	0.0	0.0
H	-0.029563	-1.850955	-0.98356
H	0.243535	-0.472367	-2.039033
N	-0.335843	1.474053	-0.250959
O	-0.256687	1.869544	-1.412651
O	-0.564872	2.184743	0.723485
C	-0.586039	-0.44267	1.304035
H	-1.67389	-0.333435	1.260602
H	-0.197746	0.152062	2.129579
H	-0.335456	-1.494676	1.457009
N	-1.748461	-0.893517	-1.664696
H	-2.060972	0.013781	-1.983269
H	-2.409369	-1.145144	-0.936548
Br	-4.502995	0.0	0.0
