16

C	0.0	0.0	0.0
C	-0.563051	-0.083703	-1.398883
F	1.361647	0.0	0.0
H	-0.261931	-1.068132	-1.772113
H	-1.655209	-0.072695	-1.299999
N	-0.338436	1.359339	0.62708
O	0.156936	1.571087	1.731981
O	-1.047875	2.143469	0.005229
C	-0.533831	-1.066742	0.918889
H	-0.268598	-2.045722	0.511788
H	-0.083974	-0.951311	1.905085
H	-1.623062	-0.981881	0.977282
N	-0.010652	0.941017	-2.288274
H	-0.087121	0.609641	-3.240965
H	-0.595863	1.762107	-2.207632
Br	-4.087148	0.0	0.0
