16

C	0.0	0.0	0.0
C	-0.523837	-0.339638	-1.393288
F	1.368861	0.0	0.0
H	-1.607129	-0.182155	-1.376761
H	-0.36004	-1.417034	-1.508887
N	-0.34561	1.445663	0.358327
O	0.058927	2.306436	-0.425463
O	-0.950598	1.673047	1.399346
C	-0.523515	-0.926939	1.058044
H	-1.615624	-0.884736	1.056769
H	-0.187931	-1.938489	0.814978
H	-0.141291	-0.643996	2.038592
N	0.086082	0.341634	-2.524805
H	-0.181574	1.316469	-2.497031
H	1.092099	0.320913	-2.409269
Br	-4.001591	0.0	0.0
