17
Coordinates from ORCA-job run
  C   0.86183680482530      0.13523595260315     -0.00368717551742
  C   -0.62415216526201      0.45745824713463      0.08132102897566
  Br  1.72240745866751      1.78674463590227     -0.83479759608447
  H   -0.75232348582026      1.44515467017996      0.52237879670438
  N   1.49573788853078      0.12394819269185      1.38741700372414
  O   1.00905486167590      0.88444467310242      2.20950584102266
  O   2.46340524592863     -0.60722712292081      1.54180372042279
  N   1.16086970812291     -1.05203802848387     -0.65205856230176
  H   2.11118646591729     -1.35326798452377     -0.47694167818440
  H   0.95174805671652     -1.02679864821084     -1.63975197084367
  N   -1.31830876093839     -0.47772705955242      1.05286046028350
  O   -0.67318902653018     -1.36857746335161      1.59361499770963
  O   -2.51185431055983     -0.24872007235086      1.21902229656240
  C   -1.33600505616896      0.34525172632317     -1.25662776597614
  H   -2.36731307304434      0.67490776780826     -1.14377613866357
  H   -1.34504205999728     -0.69185851560752     -1.59843808920193
  H   -0.84705855206357      0.97406902925600     -2.00084516863180
