17
Coordinates from ORCA-job run
  C   0.93649557328819      0.22388502950137     -0.02157706650311
  C   -0.58122860778939      0.48010010155518      0.06068907634107
  Br  1.72627120639961      1.81953113286690     -0.81949951591637
  H   -0.76627225351500      1.45627311542844      0.50333480145034
  N   1.45385954842048      0.18529360630010      1.44268808368220
  O   2.31039232588160     -0.63492757337982      1.72320367201647
  O   0.93757167087948      1.00140214009332      2.19823968376405
  N   1.43206590071204     -0.90236939775960     -0.70270400277325
  H   1.01964995560291     -1.75555676716657     -0.34884369339581
  H   1.35039316154549     -0.82031278772142     -1.70509535568432
  N   -1.20828105701715     -0.49312623692239      1.02130437847825
  O   -2.24002008610380     -0.12961385155090      1.57092052529851
  O   -0.67442200559453     -1.59666389510201      1.14800989740090
  C   -1.28895136978727      0.31831762352345     -1.27251146077135
  H   -2.34954059596831      0.54193273506215     -1.14885570251557
  H   -0.87338521518923      1.00936713585419     -2.00635235348281
  H   -1.18559815176511     -0.70353211058237     -1.64195096738919
