17
Coordinates from ORCA-job run
  C   0.77541555856893      0.28893092351608      0.42433029056242
  C   -0.49121923361218     -0.03355697885667     -0.41508344043050
  Br  0.28433816300454      0.97259821666897      2.15675195650619
  H   -0.12833093649669     -0.25597777672289     -1.42227946601026
  N   1.46117538709215     -1.08424848548300      0.55842791224380
  O   1.91482568401228     -1.48987520068397     -0.50969416937794
  O   1.47619604443422     -1.67185520139268      1.62595216666649
  N   1.76056447854689      1.14643710355115     -0.14430351390425
  H   2.00404118123652      0.81448668468903     -1.07129898352914
  H   1.40479504810439      2.09101715139849     -0.21561483482494
  N   -1.27439795362099      1.23992473190826     -0.56831424926368
  O   -0.75531304693916      2.11161318867490     -1.26686832013288
  O   -2.35113737324395      1.33613183883156      0.01065537424114
  C   -1.35630348622980     -1.15324779847758      0.11825475934622
  H   -2.25190958225417     -1.24995763792447     -0.49614105698474
  H   -1.66285834828484     -0.96592902168946      1.14582371445719
  H   -0.80988158431811     -2.09649173800773      0.06940186043489
