17
Coordinates from ORCA-job run
  C   0.82363744188845      0.23473917066498      0.06906998473510
  C   -0.70299167925987      0.33161862219344      0.02873769428712
  Br  1.58195670972296      1.77673066114257     -0.99229269611185
  H   -0.99752102809914      1.18073114546005      0.64603663154788
  N   1.34409098726541      0.55416103617771      1.48507941067456
  O   0.79755412292832      1.46708252715790      2.08011663466872
  O   2.29835603149446     -0.10865542565677      1.86906339736158
  N   1.28304068175543     -1.02266492870154     -0.29312780606748
  H   2.27367371078164     -1.14758434807933     -0.13592988048499
  H   1.00588794662688     -1.29730170411732     -1.22489536481769
  N   -1.18797778025724     -0.89581590551884      0.77433285951651
  O   -0.98980879035676     -0.89965166122621      1.98515968167787
  O   -1.70490871783454     -1.79799572008792      0.12473863978124
  C   -1.32771698150700      0.39261747761075     -1.34940737809233
  H   -0.97994635706341     -0.41127509558749     -1.99834404596471
  H   -2.40914243189320      0.29161622671996     -1.25596501217119
  H   -1.10618386619241      1.35164792184806     -1.81337275054034
