17
Coordinates from ORCA-job run
  C   0.86087684000645      0.34241396135373      0.05964317222670
  C   -0.66340368544964      0.40331174510377     -0.15840175776438
  Br  1.52204114904783      1.78083639436167      1.26359941346199
  H   -0.81354478989394      1.20604811777683     -0.88359511092557
  N   1.26029045056479     -0.94249807751375      0.78869624731670
  O   0.60805070407931     -1.22165578430697      1.78297922093241
  O   2.20809258332896     -1.57056132924359      0.33158070747724
  N   1.47546044055078      0.33116960076194     -1.20598453533539
  H   1.40054841701889      1.23469315852498     -1.65504868711335
  H   2.44434668535155      0.04370708777662     -1.14477402452305
  N   -1.46329407176643      0.86984977422806      1.03119937186760
  O   -1.93328589037269      0.02548030602354      1.78627205155435
  O   -1.61906016822535      2.08605332225475      1.12215766826304
  C   -1.21470500525755     -0.91041299228594     -0.68092149957057
  H   -2.25082246401249     -0.77136329858427     -0.99426702812950
  H   -1.19614758017799     -1.67333393191583      0.09510830406872
  H   -0.62544361479249     -1.23273805431555     -1.53924351380695
