17
Coordinates from ORCA-job run
  C   0.83565124909964      0.51563874646097      0.05187939166410
  C   -0.68571865446677      0.46236967204223     -0.17462709678625
  Br  1.34870807717266      2.20018977097320      0.84508749885300
  H   -0.93943285929796      1.38650626971630     -0.69428314825555
  N   1.22959985347839     -0.62820245528488      1.05202315873630
  O   1.28653812904324     -0.39642789032505      2.24726967173251
  O   1.41440336898596     -1.71372136879602      0.50498111958507
  N   1.49223365940966      0.36943745429213     -1.19663848770090
  H   2.46309122011789      0.64922025046614     -1.12706327300201
  H   1.44836752806446     -0.60076582762587     -1.48933171054358
  N   -1.42056650968745      0.53223696357096      1.13300060865891
  O   -1.91641204132321      1.61323420433615      1.44001860642364
  O   -1.48735257432847     -0.50807928190619      1.78539843972346
  C   -1.16679278260822     -0.75401666113885     -0.94624887429196
  H   -0.75835006310693     -0.73339584910404     -1.95677024201868
  H   -0.89006805504396     -1.68154079642238     -0.44908839891295
  H   -2.25489954550894     -0.71368320125478     -1.02560726386512
