17
Coordinates from ORCA-job run
  C   0.83612148384734      0.51623208577770      0.03666669610154
  C   -0.68961123976866      0.46222672884017     -0.15931840431997
  Br  1.36271219231189      2.19917230613685      0.82440735919332
  H   -0.95425384891325      1.38744485929868     -0.67146981786548
  N   1.25098684236168     -0.63028830146546      1.02485839768689
  O   1.42565664654542     -1.71400456215531      0.47102053312440
  O   1.33141762238859     -0.40188538269268      2.21944218866522
  N   1.46757374279443      0.37462118628602     -1.22540899171046
  H   2.43861122713611      0.65790465485398     -1.17502056126138
  H   1.42166156928025     -0.59534377206547     -1.51864155827923
  N   -1.39815833694207      0.52790062803883      1.16285706322943
  O   -1.45130828621445     -0.51408112718859      1.81377496434746
  O   -1.88858592057418      1.60786845347998      1.48228714064025
  C   -1.18473143624916     -0.75270208443398     -0.92427799561516
  H   -0.79448767519654     -0.73121845799340     -1.94190143815594
  H   -2.27409775802669     -0.71183846284793     -0.98389848023879
  H   -0.89950682478070     -1.68100875186940     -0.43337709554210
