17
Coordinates from ORCA-job run
  C   0.81949869694759      0.25088163890001      0.36040682661546
  C   -0.53585721660762      0.00518674001359     -0.35877197455603
  Br  0.52961839650017      0.75239693590750      2.19765022723676
  H   -0.29052065180326     -0.11035765282664     -1.41800764921118
  N   1.51045737183040     -1.12362805915635      0.27692029390600
  O   1.64514022225750     -1.81542556016827      1.27101108451488
  O   1.83769733146637     -1.41584745054758     -0.87155046918063
  N   1.73746747784588      1.16879655816296     -0.22573386368852
  H   1.87312460561224      0.93424306006488     -1.20314526974483
  H   1.37956900709531      2.11296297304174     -0.15989314436795
  N   -1.32678896310376      1.28089574387572     -0.29061525930277
  O   -0.88587665900066      2.22418499178045     -0.94887440465175
  O   -2.33133458060570      1.30834028426503      0.41219412639215
  C   -1.33765091144493     -1.17056088580271      0.15227129794403
  H   -2.29899055781748     -1.21054127162019     -0.36074404291445
  H   -0.80442271652702     -2.09917203056732     -0.05744914778127
  H   -1.52213085264504     -1.09335601532281      1.22233136879011
