17
Coordinates from ORCA-job run
  C   0.84914436054716      0.28947697381629     -0.13144239292390
  C   -0.66693870668307      0.42332806802753      0.02048264259043
  Br  1.50477007697745      1.88349477888651     -1.04772755105581
  H   -0.89801559204883      1.40634194211518      0.42527272751788
  N   1.47908545311660      0.41097947193112      1.29641800941549
  O   0.89385958937124      1.12067710864766      2.10468461724221
  O   2.52112602878915     -0.20290972638086      1.47664930477248
  N   1.27032439620797     -0.84908612130137     -0.83000339975321
  H   0.95679394169069     -1.67819256877186     -0.33717150064158
  H   2.27760935867063     -0.86723254756523     -0.92673883941303
  N   -1.16990618393426     -0.53375165290040      1.06878441916046
  O   -0.54645321639641     -1.58236703348419      1.24149431891622
  O   -2.20328832711812     -0.21462757823663      1.64110340777673
  C   -1.42773730623077      0.14499904852872     -1.26406642249145
  H   -2.49337811087379      0.30332503608343     -1.09152153064846
  H   -1.09175636262162      0.82482282323963     -2.04659639443230
  H   -1.25523939946401     -0.87727802263553     -1.59962141603218
