17
Coordinates from ORCA-job run
  C   0.90681070650436      0.42757625439391      0.17777966712455
  C   -0.59960843985044      0.44884653465872     -0.16943793932008
  Br  1.33595933945865      2.05790972022502      1.12588137552756
  H   -0.75310043112520      1.35938384485158     -0.75222112180424
  N   1.23388265715516     -0.79438802713368      1.05403042648643
  O   1.46230649356246     -0.65994169233791      2.24162904029442
  O   1.22700230523565     -1.84750980639599      0.42030577327897
  N   1.78178690757806      0.32096092067329     -0.94637216144477
  H   1.62183128376769     -0.54279067057903     -1.44903896845801
  H   1.70178648889181      1.12500653740282     -1.55425310371331
  N   -1.43477634335574      0.63796931790916      1.06086225109632
  O   -1.37363874169744     -0.25724717191826      1.90094008593335
  O   -2.13365704153671      1.64548743930331      1.11975398697231
  C   -1.13589132555221     -0.76357288340965     -0.91284202155706
  H   -0.58390052230603     -0.92279657245774     -1.83950181048301
  H   -2.17991716095787     -0.57451254463458     -1.17307825538707
  H   -1.07687617577221     -1.66238120055097     -0.30343722454635
