17
Coordinates from ORCA-job run
  C   0.83961861370497      0.50849260565652      0.06213323699162
  C   -0.68147948443453      0.47075840018476     -0.16970612503909
  Br  1.36377589486166      2.17650781305721      0.88219273356763
  H   -0.92614884885195      1.40486664486311     -0.67570219315999
  N   1.22122746748068     -0.65348883264345      1.04628415422166
  O   1.39878336376526     -1.73212488472084      0.48354290403159
  O   1.27633717359327     -0.44021537022908      2.24501140823556
  N   1.49889974458889      0.37560263030531     -1.18635757784717
  H   1.44704021488547     -0.58932862068740     -1.49465144346990
  H   2.47214313636136      0.64507718884554     -1.10943121094868
  N   -1.41942102681696      0.52611129904704      1.13681451317553
  O   -1.90576473330867      1.60668509608567      1.46009419692565
  O   -1.49820228599892     -0.52402174246311      1.77181164228028
  C   -1.16993546296933     -0.72963370941723     -0.96149264652229
  H   -0.75902191100946     -0.69655502240900     -1.97068417843263
  H   -0.90134008709741     -1.66688096264379     -0.47826308076084
  H   -2.25751176875434     -0.67985253283126     -1.04259633324893
