17
Coordinates from ORCA-job run
  C   0.77826742725332      0.22124265176833      0.41328965729371
  C   -0.60055610344508      0.20004999215602     -0.27113543890573
  Br  0.66191489792572     -0.08099916118739      2.31238336036047
  H   -0.44931029514544      0.57984118309810     -1.28862651567514
  N   1.49727948935701     -1.03428439467263     -0.23296991915605
  O   1.80651441828212     -0.83240718576125     -1.40662757252535
  O   1.66455846389987     -2.06692612408606      0.39284236673557
  N   1.50892363980648      1.39277433857655      0.15002201087018
  H   1.65326072148624      1.51125863233145     -0.84512264477915
  H   2.39077047527143      1.41661696263951      0.64528942359667
  N   -1.55894162099405      1.20970685148632      0.35496925795970
  O   -1.09415885907863      2.18070267067617      0.93404927296968
  O   -2.75370204178269      0.99657912030103      0.16701833212176
  C   -1.25171048473270     -1.17018322706782     -0.31763723810895
  H   -2.24776662606922     -1.08189841413988     -0.74343232302517
  H   -1.33416363723475     -1.59733145850207      0.68272759947250
  H   -0.67217986479963     -1.84474243761639     -0.94703962920472
