17
Coordinates from ORCA-job run
  C   0.87988634546516      0.27780432460999      0.11764690601673
  C   -0.58232129904760     -0.08517707246152     -0.26245441101237
  Br  0.90830500604155      1.56731516911698      1.54806027903782
  H   -0.50967863394557     -0.68339936396282     -1.17481725910485
  N   1.45851725072572     -1.06918728297240      0.59149151392549
  O   1.69414308789234     -1.26639563581853      1.77078735171410
  O   1.58891900824192     -1.87406713250052     -0.32860513119788
  N   1.75481114803727      0.72041834890406     -0.91556011098482
  H   1.71961902118548      0.06911905397535     -1.69222221407710
  H   1.47689784684166      1.63716314418701     -1.24138232253944
  N   -1.26953153602184      1.17980344979018     -0.69303336836401
  O   -0.87552006337356      1.67410961699706     -1.75033251117117
  O   -2.14989560515925      1.63993451483366      0.02613670119101
  C   -1.37104609643918     -0.80649493295589      0.80706157180583
  H   -2.40083690228052     -0.94195580341511      0.47512742558686
  H   -1.38209279212357     -0.24725198065608      1.74098858338987
  H   -0.94017578604002     -1.79373841767142      0.98110699578393
