17
Coordinates from ORCA-job run
  C   0.84639543696157      0.14361695768262      0.02448722497199
  C   -0.66011237640019      0.41102066108972      0.02024032391236
  Br  1.73083453661802      1.49660861537992     -1.18794983123154
  H   -0.83395814186962      1.33658573199556      0.56973245025251
  N   1.45380655647330      0.51759989073812      1.39161407584509
  O   1.03674259665055      1.53360341501369      1.92079423271610
  O   2.34171479480472     -0.21650924229913      1.80412394368124
  N   1.14876224951723     -1.18318603451145     -0.24117856626773
  H   0.80716611754897     -1.50136246988128     -1.13695263906823
  H   2.12412459442983     -1.40793388774634     -0.10063094359855
  N   -1.24963353164912     -0.68654161083993      0.88365057803793
  O   -1.00458561416564     -0.61355652564514      2.08363217674066
  O   -1.89131684654475     -1.57289775118955      0.33060739319660
  C   -1.32721616903769      0.42861749960085     -1.33917131642584
  H   -1.09841691194113     -0.46197172383646     -1.92467299993836
  H   -1.01668593180232      1.31310149025573     -1.89171805673202
  H   -2.40862135959374      0.46220498419304     -1.20560804609223
