17
Coordinates from ORCA-job run
  C   0.81354213565059      0.26834481066012      0.06044397732287
  C   -0.71548538384750      0.30510789814955      0.01567468464417
  Br  1.51554546408468      1.79559856846444     -1.05931384143636
  H   -1.04353382117400      1.16591572870801      0.59894957385523
  N   1.31867771405020      0.66211284492472      1.46304252402800
  O   2.29753331213855      0.05226363409894      1.87207906297092
  O   0.73668936287211      1.57558246943877      2.02249219829073
  N   1.32144234378893     -0.98379162804789     -0.25296536253460
  H   1.05896028882841     -1.30160482767733     -1.17529788586053
  H   2.31591048543153     -1.06343433495749     -0.09017206704718
  N   -1.15471407970360     -0.90976421886381      0.80882413054348
  O   -1.63924207756820     -1.85432246529494      0.19553877195887
  O   -0.95636991821082     -0.85973939139787      2.01853668856906
  C   -1.33954161857512      0.28800147446158     -1.36400535858498
  H   -0.96193733933190     -0.52839599457873     -1.97979851825519
  H   -1.15166980602109      1.23497153787341     -1.86608402793909
  H   -2.41680706241278      0.15215389403851     -1.26694455052538
