17
Coordinates from ORCA-job run
  C   0.78783796718973      0.19046060379133      0.45569150687929
  C   -0.52370069479803      0.07359734661503     -0.36904339066712
  Br  0.40362142373881      0.15343012308096      2.34339257888362
  H   -0.23900778608015      0.27023802823357     -1.40630456339605
  N   1.57427964813152     -1.06653038219085      0.03795951134124
  O   1.95830927195187     -1.01457448679785     -1.12881265153042
  O   1.72433442950116     -1.99423461108752      0.81363992487013
  N   1.65949435086121      1.28465382876384      0.18719468252267
  H   1.85478086487778      1.32425179909956     -0.80743918438343
  H   1.22700369855392      2.15395306145285      0.47255159104998
  N   -1.40438453140982      1.23185486578062      0.00688691784083
  O   -2.43435347704503      1.00405749280223      0.63205105179120
  O   -1.00590083668642      2.34550467498171     -0.33740366771028
  C   -1.25636263234160     -1.24293347211826     -0.24006782682656
  H   -2.19711067949100     -1.19498745821360     -0.78918787433246
  H   -0.65366848784112     -2.04342614392527     -0.67196592342367
  H   -1.47717252911284     -1.47731527026837      0.79985731709103
