17
Coordinates from ORCA-job run
  C   0.91972915611150      0.32395434333590     -0.03110867575060
  C   -0.62299773754381      0.42138289571388      0.05486835257361
  Br  1.56219426283728      1.93961836110793     -0.89213014586846
  H   -0.88641117370773      1.34849566741971      0.56322542756837
  N   1.38498140796024      0.35564540255844      1.44617570988539
  O   1.83099520503790     -0.69545565121357      1.88894723887349
  O   1.18116472012257      1.38967179131086      2.06629510582381
  N   1.51558003775750     -0.79100325796612     -0.65898349770202
  H   1.13142052246699     -1.66027621401405     -0.30840410597906
  H   1.43555912906683     -0.73802757148544     -1.66445290295071
  N   -1.09380318516540     -0.66904385862218      0.98136425089925
  O   -1.57024557942291     -0.32421304511144      2.05970187399231
  O   -0.96306519351261     -1.82960605216075      0.58972601570353
  C   -1.32034269394218      0.26006943591669     -1.27909440503134
  H   -1.07037235294136     -0.70028082562805     -1.72914533480379
  H   -1.03254572515855      1.06706243479339     -1.95267440339458
  H   -2.40184079996626      0.30200614404482     -1.13531050383921
