17
Coordinates from ORCA-job run
  C   0.90766092004172      0.43003788258783      0.16734103388037
  C   -0.60180482676736      0.44699447299750     -0.16671646870339
  Br  1.34212223061242      2.06670347607451      1.10218421133390
  H   -0.76153942743551      1.35361874672352     -0.75391806505314
  N   1.24472659464983     -0.78633052632478      1.04756843297791
  O   1.23342569787106     -1.84315921384131      0.42010045762104
  O   1.48425079927723     -0.64457960274369      2.23214603798470
  N   1.77284588845193      0.31847151844780     -0.96388327684340
  H   1.61024345842135     -0.54859875380844     -1.45995083873835
  H   1.68577973906788      1.11874165973695     -1.57577162283159
  N   -1.42659142341769      0.64247288697036      1.06938946792889
  O   -1.35500190042083     -0.24610569943163      1.91567514357674
  O   -2.12835528091890      1.64809543523288      1.12693290453207
  C   -1.14268877339409     -0.77081659510393     -0.89797401460189
  H   -1.07830962431105     -1.66545261062689     -0.28297420151916
  H   -2.18884693602152     -0.58410622855137     -1.15131599363939
  H   -0.59791713570648     -0.93598684833933     -1.82783320790531
