17
Coordinates from ORCA-job run
  C   0.82456775076945      0.14823679562569      0.22424524701831
  C   -0.60774775026165      0.10353109859394     -0.35681062711811
  Br  0.72347464917825     -0.08271889226090      2.22410056368997
  H   -0.50774298518743      0.46636064748259     -1.38447491428435
  N   1.66596806952472     -1.08858448409779     -0.19500541045428
  O   1.16481802527145     -2.19338378495198     -0.05160257305811
  O   2.79792998099268     -0.85381445970292     -0.59503941130164
  N   1.50463333497735      1.27472198066072     -0.21161787335811
  H   0.96213196236974      2.12051427522041     -0.09775834656867
  H   2.44161610765592      1.35277105868747      0.15762284988433
  N   -1.39906845700382      1.20273526417427      0.33782773088766
  O   -1.06481745368447      2.36263536981605      0.08928325290297
  O   -2.31340978884135      0.87625161350490      1.08212269759479
  C   -1.39432225707021     -1.18760763737609     -0.30685708563701
  H   -1.41723642539386     -1.60906721530881      0.69535136058317
  H   -2.41718412619312     -0.97726237325354     -0.62152586877074
  H   -0.96361063710365     -1.91531925681401     -0.98986159201017
