17
Coordinates from ORCA-job run
  C   0.83972907283522      0.32752142159709     -0.09675389366575
  C   -0.68389497908177      0.39526845520106      0.01929209648329
  Br  1.45349373123884      1.98208513646510     -0.93098086198575
  H   -0.96480438917010      1.35061704028764      0.45746363582838
  N   1.42708060799726      0.41549471203303      1.35189821111814
  O   2.48566187713137     -0.16755681960254      1.53757087798472
  O   0.79488237891983      1.07166339754867      2.16983003401686
  N   1.32446938948228     -0.76401865998873     -0.82837229366932
  H   2.33356543168484     -0.73688882323786     -0.90127532867447
  H   1.03561465610992     -1.62440347453482     -0.37564950307366
  N   -1.17419947749058     -0.62375915821928      1.01406310270955
  O   -0.50913016925145     -1.64950582780364      1.16748251428425
  O   -2.23807542697322     -0.37331739670400      1.56421767037305
  C   -1.40004518402130      0.14084137067424     -1.29545894724753
  H   -1.07213487110641      0.86517314880487     -2.04058867349791
  H   -1.17798444100458     -0.85909461115246     -1.66732040134169
  H   -2.47522820730017      0.24988008863164     -1.14541823964214
