17
Coordinates from ORCA-job run
  C   0.84135249720330      0.50638480085611      0.05797046091391
  C   -0.68090475778759      0.47219110634211     -0.16798123735783
  Br  1.37329140983196      2.17575093154116      0.87009133426961
  H   -0.92525373569268      1.40603330408454     -0.67458218264934
  N   1.22282767104895     -0.65340460092313      1.04456141740128
  O   1.28133431710572     -0.43593444530898      2.24234472724488
  O   1.39701923675644     -1.73408105512836      0.48490209989365
  N   1.49525342072811      0.36783880364969     -1.19261238334599
  H   2.46989945352204      0.63344710915510     -1.12010078138653
  H   1.43827106866929     -0.59737512300060     -1.49905096458019
  N   -1.41352668881636      0.53141505231092      1.14121739221416
  O   -1.89392144001581      1.61420420862369      1.46586150008631
  O   -1.49361676960636     -0.51786305199509      1.77743555580892
  C   -1.17492328175948     -0.72841148566689     -0.95600830616473
  H   -0.90330228481891     -1.66555282732183     -0.47423539216130
  H   -2.26301671075739     -0.67910601439332     -1.02987956753360
  H   -0.77078340561122     -0.69553671282511     -1.96793367265322
