17
Coordinates from ORCA-job run
  C   0.79496382134352     -0.00845933778133      0.33048469698505
  C   -0.54879374938617      0.08783945139310     -0.40948693716346
  Br  0.66052334176087     -1.10750503284086      2.00039944639187
  H   -0.30199536483833      0.29920809401845     -1.45068394028234
  N   1.76630394358438     -0.82981754997829     -0.53426563762053
  O   2.95453124145459     -0.69673360290817     -0.27916295716359
  O   1.28577579326496     -1.55899949730237     -1.39276075167290
  N   1.39837934388154      1.24373260978864      0.49958829159605
  H   0.88924481880898      1.80693646008292      1.16836353843671
  H   2.36586281035377      1.13943523157392      0.78116748320107
  N   -1.29579099613037      1.30914739872272      0.04702565603311
  O   -1.92777492838040      1.90708775424303     -0.81722322553610
  O   -1.28502359933191      1.57987613250900      1.24718815131624
  C   -1.51069370874526     -1.08254269064886     -0.30915358615791
  H   -2.33997280871299     -0.90994775252565     -0.99807138903435
  H   -1.89845845797398     -1.17410236783594      0.70487677486942
  H   -1.00708150095321     -2.00515530051032     -0.58828561419833
