17
Coordinates from ORCA-job run
  C   0.84403825455433      0.50252136833944      0.04343496801091
  C   -0.68165771789837      0.47433854070696     -0.15965920268863
  Br  1.39467616971413      2.17186561790416      0.84272960145988
  H   -0.92897088204146      1.40695699262951     -0.66709149371977
  N   1.23560788699285     -0.65589824567522      1.02655059609767
  O   1.39646055098617     -1.73915031994976      0.46756421036015
  O   1.31397800336963     -0.43597558474033      2.22290420442466
  N   1.47852336436245      0.35738470930325     -1.21698122308078
  H   2.45375855427458      0.62473016663937     -1.16066470535412
  H   1.41834157832636     -0.61039196599637     -1.51485711424233
  N   -1.39433822031054      0.54360997849932      1.15998613420745
  O   -1.46771082521480     -0.50157973243063      1.80389136216233
  O   -1.86774030584969      1.62940790122294      1.48506117125804
  C   -1.19259554514914     -0.72769072996417     -0.93428333736810
  H   -2.28098569593888     -0.67008305713631     -0.99745525255539
  H   -0.79806561476838     -0.70441784999456     -1.95021652111782
  H   -0.92331955540925     -1.66362778935761     -0.44891339785415
