17
Coordinates from ORCA-job run
  C   0.91255736438509      0.42497627078155      0.15093586088669
  C   -0.60245619128417      0.45124531547103     -0.15766956664580
  Br  1.37333485534724      2.06052058993519      1.07544932972832
  H   -0.76659361085165      1.35826903354877     -0.74307710564499
  N   1.25555067937270     -0.79207105931780      1.02802916982059
  O   1.22766134946022     -1.85042659028111      0.40355818346610
  O   1.51591018487244     -0.64937107805581      2.20818454563624
  N   1.75802868652839      0.30508186609982     -0.99382143753032
  H   1.58492381550615     -0.56416839254694     -1.48243590768613
  H   1.66448474375930      1.10261880073311     -1.60826361298314
  N   -1.40456423189202      0.65353522908807      1.09197730793136
  O   -1.32548833451456     -0.23499609829919      1.93775982142647
  O   -2.09746792514743      1.66459984898686      1.16103493705953
  C   -1.16197303187521     -0.76453999923291     -0.87807473882362
  H   -1.09436643240086     -1.65800372307854     -0.26169531685926
  H   -2.21042225550848     -0.57189530938504     -1.11698792170575
  H   -0.63111966575716     -0.93537470444707     -1.81490354807630
