15

C	-0.283208	0.045151	-1.499754
C	0.0	0.0	0.0
Cl	-2.045958	0.31271	-1.856215
H	1.098992	0.0	0.0
H	-0.087458	-0.942965	-1.929432
N	0.485538	1.117083	-2.072004
H	0.501058	1.030399	-3.080713
H	1.442075	1.033431	-1.724138
C	-0.506517	-1.231817	0.588817
N	-0.945076	-2.208372	1.072683
C	-0.482899	1.232385	0.761408
H	-0.145731	2.125718	0.235769
H	-0.048719	1.230526	1.762982
H	-1.57157	1.253176	0.840867
Cl	3.327212	0.0	0.0
