15

C	-0.35733	-0.108151	-1.490443
C	0.0	0.0	0.0
Cl	-0.263146	1.588224	-2.274391
H	1.097491	0.0	0.0
H	-1.405192	-0.367626	-1.653859
N	0.50343	-1.047924	-2.080362
H	1.474731	-0.861996	-1.836783
H	0.387109	-1.118106	-3.081111
C	-0.475096	-1.231558	0.63064
N	-0.926266	-2.193951	1.131439
C	-0.541812	1.214692	0.746877
H	-0.047494	2.116708	0.391968
H	-0.333127	1.105609	1.812584
H	-1.621674	1.32086	0.608344
Cl	3.357725	0.0	0.0
