15

C	-0.383259	0.097884	-1.494998
C	0.0	0.0	0.0
Cl	-0.330766	1.830733	-2.021444
H	1.095234	0.0	0.0
H	-1.420934	-0.204436	-1.654462
N	0.47152	-0.675418	-2.34122
H	0.168197	-1.640804	-2.357786
H	1.430587	-0.625713	-1.999986
C	-0.445606	-1.326546	0.429317
N	-0.87872	-2.367139	0.762026
C	-0.550732	1.071995	0.935102
H	-0.304073	0.819837	1.968336
H	-0.091591	2.030189	0.698465
H	-1.637079	1.165639	0.843249
Cl	3.350764	0.0	0.0
