15

C	-0.411149	-0.006407	-1.466521
C	0.0	0.0	0.0
Cl	-2.275039	-0.292738	-1.582556
H	1.096473	0.0	0.0
H	-0.006177	-0.887272	-1.961865
N	-0.008348	1.156664	-2.140147
H	-0.426211	1.992252	-1.758041
H	-0.183951	1.103129	-3.132691
C	-0.450121	-1.221986	0.661776
N	-0.798282	-2.199195	1.212316
C	-0.466015	1.236133	0.769674
H	-1.549366	1.367997	0.711908
H	0.043575	2.120662	0.382414
H	-0.176928	1.138124	1.816885
Cl	3.352523	0.0	0.0
