15

C	-0.386435	-0.111588	-1.492315
C	0.0	0.0	0.0
Cl	-0.23229	1.501947	-2.279407
H	1.096948	0.0	0.0
H	-1.440123	-0.38322	-1.60128
N	0.422949	-1.055547	-2.215604
H	1.398602	-0.901522	-1.963387
H	0.170852	-1.992511	-1.920548
C	-0.446275	-1.25388	0.607938
N	-0.861648	-2.258012	1.056374
C	-0.554491	1.193603	0.77086
H	-0.088595	2.10873	0.409618
H	-1.639673	1.276283	0.655522
H	-0.320837	1.088243	1.831949
Cl	3.346514	0.0	0.0
