17

C	0.0	0.0	0.0
C	-0.387196	-0.136099	-1.473568
F	1.391747	0.0	0.0
H	0.201751	0.608023	-2.014696
H	-0.323651	0.998819	0.312952
C	-0.538943	-1.035721	0.953222
H	-0.197862	-0.797426	1.963061
H	-0.195903	-2.034262	0.685929
H	-1.631752	-1.012462	0.937884
C	-1.86134	-0.01851	-1.781375
H	-2.238968	0.95499	-1.467294
H	-2.021997	-0.12229	-2.858022
H	-2.470262	-0.750334	-1.258257
N	0.149271	-1.438383	-1.997473
O	-0.454919	-2.468312	-1.699705
O	1.163798	-1.397086	-2.696104
Cl	-4.697808	0.0	0.0
