17

C	-0.579674	-0.06106	-1.401194
C	0.0	0.0	0.0
Br	0.479705	1.517036	-2.530501
H	1.090875	0.0	0.0
N	-0.309947	-1.266893	-2.056422
H	-0.30831	-1.149912	-3.06078
H	0.590405	-1.615706	-1.747447
N	-1.92589	0.336792	-1.433513
H	-1.95808	1.261755	-1.01864
H	-2.278398	0.375967	-2.381782
N	-0.365652	-1.229907	0.680915
H	0.216746	-1.310811	1.505802
H	-1.346056	-1.234744	0.936137
N	-0.448366	1.246444	0.641901
H	0.371723	1.677738	1.058817
H	-1.099277	1.021619	1.386218
H	2.850454	0.0	0.0
