17

C	-0.394086	0.020285	-1.484153
C	0.0	0.0	0.0
Br	-0.452671	-1.889561	-2.249853
H	1.096195	0.0	0.0
N	-1.753316	0.484563	-1.649973
H	-1.975318	0.532117	-2.637909
H	-1.720679	1.428043	-1.268807
N	0.592417	0.779955	-2.151837
H	0.536451	0.681903	-3.157381
H	1.527432	0.538167	-1.80959
N	-0.534467	-1.120589	0.721708
H	-0.140967	-1.126861	1.654582
H	-1.545727	-1.057154	0.769199
N	-0.392121	1.336298	0.529577
H	-1.022897	1.196152	1.31226
H	0.45648	1.77055	0.882947
H	2.929659	0.0	0.0
