17

C	-0.342098	0.065408	-1.499198
C	0.0	0.0	0.0
Br	-0.099655	2.042441	-2.151536
H	1.103543	0.0	0.0
N	0.588406	-0.760351	-2.160022
H	0.546437	-0.677333	-3.168445
H	1.538133	-0.568654	-1.815522
N	-1.729048	-0.193895	-1.731109
H	-1.911295	-0.346757	-2.716317
H	-1.91916	-1.039438	-1.196549
N	-0.513856	-1.311887	0.45545
H	-0.522576	-1.241467	1.466422
H	0.191749	-1.999352	0.207634
N	-0.559072	1.025351	0.843622
H	0.07225	1.816231	0.820958
H	-1.445013	1.329067	0.45329
H	2.954495	0.0	0.0
