17

C	-0.178443	-0.101539	-1.500324
C	0.0	0.0	0.0
Br	-2.21915	-0.293033	-1.914975
H	1.107103	0.0	0.0
N	0.233641	1.075765	-2.209922
H	1.244631	1.110448	-2.052121
H	-0.158162	1.864677	-1.701143
N	0.475453	-1.274791	-1.965794
H	1.392634	-1.291424	-1.504317
H	0.616351	-1.182287	-2.965938
N	-0.450737	-1.157905	0.75805
H	0.344954	-1.772677	0.892011
H	-1.140717	-1.667035	0.215678
N	-0.494647	1.271177	0.499003
H	-1.425792	1.10982	0.868655
H	0.096518	1.523373	1.28427
H	2.819805	0.0	0.0
