14

C	0.0	0.0	0.0
C	-0.579948	-0.07746	-1.408787
Cl	1.781982	0.0	0.0
H	-1.672966	-0.259561	-1.130323
H	-0.353306	0.947379	0.409284
C	-0.435741	-1.065634	0.914399
N	-0.538782	-1.898663	1.739895
N	-0.005737	-1.240415	-2.123644
O	-0.198705	-2.34236	-1.598182
O	0.619378	-1.062762	-3.173139
N	-0.485153	1.115688	-2.17582
H	0.401748	1.590015	-2.062986
H	-1.248384	1.717543	-1.886263
H	-2.762121	0.0	0.0
