14

C	0.0	0.0	0.0
C	-0.442387	0.035019	-1.476578
Cl	1.798812	0.0	0.0
H	0.446955	0.166425	-2.104719
H	-0.316159	0.904011	0.506609
C	-0.452613	-1.176688	0.73145
N	-0.533648	-2.152218	1.388415
N	-1.170848	1.363635	-1.74214
O	-0.752929	2.371496	-1.173097
O	-1.971607	1.370189	-2.675236
N	-1.136186	-1.114959	-1.914403
H	-1.376883	-0.998573	-2.892076
H	-1.991271	-1.112186	-1.339117
H	-2.338675	0.0	0.0
