17

C	0.0	0.0	0.0
C	-0.570266	0.113875	-1.412434
Cl	1.790184	0.0	0.0
H	-1.646041	0.287007	-1.267746
H	-0.307561	-0.984365	0.357238
C	-0.489353	1.059917	0.969165
H	-0.123258	0.832221	1.972955
H	-1.581686	1.046388	0.96434
H	-0.132914	2.047742	0.678568
C	-0.328833	-1.114619	-2.26169
H	0.733184	-1.348983	-2.33838
H	-0.725553	-0.969107	-3.267056
H	-0.862822	-1.949456	-1.802827
N	-0.031693	1.337116	-2.089749
O	0.808025	1.194747	-2.980491
O	-0.456611	2.426454	-1.704163
Cl	-3.727797	0.0	0.0
