17

C	0.0	0.0	0.0
C	-0.576177	0.128498	-1.40875
Cl	1.789987	0.0	0.0
H	-1.640895	0.357421	-1.261079
H	-0.307011	-0.986437	0.351749
C	-0.479012	1.053851	0.982406
H	-0.114993	2.040513	0.699582
H	-0.111309	0.812386	1.982211
H	-1.570969	1.048189	0.98252
C	-0.413336	-1.126373	-2.237124
H	-0.78583	-0.970667	-3.250132
H	0.629417	-1.440381	-2.294334
H	-1.015519	-1.908492	-1.770363
N	0.024293	1.310743	-2.105501
O	-0.294092	2.426639	-1.694312
O	0.807921	1.110776	-3.035194
Cl	-3.71555	0.0	0.0
