14

C	-0.261131	-0.084596	-1.507466
C	0.0	0.0	0.0
Cl	-0.463603	1.772086	-2.034701
H	1.088742	0.0	0.0
H	-0.430636	0.871565	0.477539
N	0.806101	-0.710514	-2.114714
H	1.699439	-0.495421	-1.64523
H	0.822655	-0.671331	-3.121948
C	-1.555954	-0.640251	-1.918639
N	-2.590047	-1.076696	-2.264855
N	-0.456851	-1.182898	0.730287
O	-0.428422	-2.276882	0.16135
O	-0.779121	-1.013376	1.911131
H	2.687959	0.0	0.0
