14

C	-0.557541	0.01527	-1.412633
C	0.0	0.0	0.0
Cl	-0.013635	-1.543405	-2.15106
H	1.09037	0.0	0.0
H	-0.274243	-0.916318	0.522504
N	-2.005046	0.065054	-1.552249
H	-2.38676	-0.703	-1.007937
H	-2.29855	0.936896	-1.119334
C	0.006712	1.099312	-2.232788
N	0.377	1.961456	-2.938322
N	-0.446135	1.111375	0.781357
O	-0.26323	1.046241	2.008497
O	-0.872453	2.134103	0.19403
H	2.476145	0.0	0.0
