14

C	-0.253537	-0.179863	-1.503185
C	0.0	0.0	0.0
Cl	-0.490897	1.637544	-2.143391
H	1.088783	0.0	0.0
H	-0.437591	0.899005	0.417657
N	0.826039	-0.820263	-2.071227
H	1.720205	-0.576829	-1.611653
H	0.843174	-0.853117	-3.07878
C	-1.535922	-0.785125	-1.879867
N	-2.564382	-1.260225	-2.190587
N	-0.469299	-1.137492	0.793808
O	-0.902102	-0.890022	1.924949
O	-0.350941	-2.270641	0.323206
H	2.695035	0.0	0.0
