14

C	-0.508142	0.079151	-1.432293
C	0.0	0.0	0.0
Cl	-0.146542	-1.541834	-2.151014
H	1.101999	0.0	0.0
H	-0.305489	-0.922043	0.4915
N	-1.929039	0.322318	-1.624161
H	-2.431197	-0.343186	-1.044538
H	-2.101246	1.252046	-1.250994
C	0.22099	1.073002	-2.237587
N	0.738395	1.854265	-2.945351
N	-0.432636	1.102385	0.788896
O	-0.411593	0.971989	2.027417
O	-0.665147	2.191319	0.209479
H	2.443675	0.0	0.0
