14

C	-0.307888	0.05463	-1.493286
C	0.0	0.0	0.0
Cl	-0.107874	1.83012	-2.052773
H	1.101793	0.0	0.0
H	-0.374886	-0.943754	0.400418
N	0.625382	-0.824631	-2.077857
H	0.629537	-0.771718	-3.087597
H	1.564193	-0.651622	-1.679397
C	-1.682482	-0.287366	-1.89012
N	-2.75514	-0.628191	-2.227606
N	-0.641349	1.078714	0.775509
O	-1.860205	1.212104	0.634315
O	0.054418	1.745102	1.53476
H	2.79439	0.0	0.0
