9
Coordinates from ORCA-job run
  C   0.99264924678761     -0.10474223900975      0.06669861362687
  C   -0.48936121168700     -0.45492628795164      0.13023302811606
  Br  1.47219507692471      0.63501332288479     -1.66021810776758
  H   -0.69232172097090     -0.96204051370220      1.07998387812031
  H   1.25741708649180      0.63711492815002      0.81844808621889
  H   1.59544195609089     -1.00086088465695      0.20810344001838
  H   -0.74906851349400     -1.14614253482167     -0.67515534751309
  C   -1.35039146995544      0.72330788150855      0.04176618729118
  N   -2.03656045018767      1.67327632759885     -0.00985977811102
