18

C	0.0	0.0	0.0
C	-0.557586	0.090641	-1.43119
Cl	1.791732	0.0	0.0
H	-1.658449	0.026898	-1.323341
C	-0.475708	1.227601	0.764775
H	-0.086982	2.146972	0.321465
H	-1.569845	1.238809	0.758611
H	-0.120739	1.163455	1.795898
C	-0.469684	-1.274815	0.685034
H	-0.063578	-2.16605	0.206415
H	-1.562341	-1.303832	0.653852
H	-0.134426	-1.255418	1.724452
N	-0.126091	-1.078843	-2.274025
O	0.852671	-0.936007	-3.005101
O	-0.779532	-2.109853	-2.145093
C	-0.17833	1.321737	-2.113379
N	0.056638	2.331631	-2.663764
Br	-3.873875	0.0	0.0
