18

C	0.0	0.0	0.0
C	-0.545564	-0.022594	-1.440976
Cl	1.791776	0.0	0.0
H	-1.646226	-0.093168	-1.341453
C	-0.479234	1.285999	0.659189
H	-0.128127	1.30603	1.693207
H	-0.090608	2.166381	0.143624
H	-1.573418	1.291913	0.647028
C	-0.476907	-1.212986	0.783469
H	-0.067089	-2.141082	0.385797
H	-1.56929	-1.24113	0.745002
H	-0.152238	-1.10511	1.821008
N	-0.089204	-1.243974	-2.194636
O	-0.711117	-2.279866	-1.973036
O	0.873092	-1.131264	-2.951445
C	-0.175954	1.16169	-2.207288
N	0.062765	2.130938	-2.825661
Br	-3.879199	0.0	0.0
