16

C	0.0	0.0	0.0
C	-0.590885	-0.080958	-1.39454
Cl	1.780449	0.0	0.0
H	-1.679049	-0.242033	-1.296443
H	-0.322124	0.961706	0.397182
C	-0.494658	-1.129726	0.884842
H	-0.144896	-0.958797	1.904702
H	-0.113811	-2.091188	0.540396
H	-1.586154	-1.131454	0.870201
N	0.000299	-1.198637	-2.187595
O	-0.472734	-2.309785	-1.967092
O	0.930585	-0.947104	-2.946941
N	-0.431962	1.172997	-2.200638
O	-0.886525	1.122309	-3.338571
O	0.081154	2.153793	-1.670294
Br	-3.772139	0.0	0.0
