16

C	0.0	0.0	0.0
C	-0.310198	-0.064866	-1.501369
Cl	1.784657	0.0	0.0
H	0.40795	0.555097	-2.033459
H	-0.297676	1.009367	0.288104
C	-0.63555	-1.001162	0.928173
H	-0.300382	-2.017654	0.738519
H	-1.722474	-0.930553	0.794898
H	-0.389685	-0.724439	1.956555
N	-1.634832	0.526396	-1.941024
O	-1.79323	1.681907	-1.578206
O	-2.322491	-0.12944	-2.703142
N	-0.164388	-1.414807	-2.126201
O	0.4827	-1.443875	-3.174231
O	-0.693838	-2.375696	-1.57924
Br	-4.221658	0.0	0.0
