16

C	0.0	0.0	0.0
C	-0.609865	-0.056621	-1.383636
Cl	1.78026	0.0	0.0
H	-1.697697	0.109368	-1.27065
H	-0.305885	0.974473	0.383893
C	-0.516567	-1.097794	0.913189
H	-1.608682	-1.088509	0.888082
H	-0.131171	-2.067981	0.602197
H	-0.181754	-0.896978	1.93276
N	-0.445796	-1.333013	-2.139108
O	-1.206493	-1.471712	-3.092299
O	0.418715	-2.131487	-1.784558
N	-0.047637	1.039367	-2.242269
O	0.584292	0.740327	-3.249934
O	-0.255543	2.173724	-1.82715
Br	-3.806744	0.0	0.0
