16

C	0.0	0.0	0.0
C	-0.230481	-0.08534	-1.520145
Cl	1.783172	0.0	0.0
H	0.426321	-0.844242	-1.937977
H	-0.341999	0.965869	0.36627
C	-0.587699	-1.155368	0.769317
H	-0.289484	-1.079602	1.817121
H	-1.679032	-1.085399	0.700211
H	-0.248195	-2.111382	0.367815
N	0.170585	1.19401	-2.197975
O	-0.023223	2.250649	-1.61021
O	0.64886	1.066468	-3.323168
N	-1.580456	-0.45789	-2.093597
O	-1.84469	-1.646734	-1.979385
O	-2.209517	0.397925	-2.693156
Br	-3.999338	0.0	0.0
