16

C	-0.443711	-0.042261	-1.463755
C	0.0	0.0	0.0
Cl	0.181226	1.405596	-2.338652
H	1.095662	0.0	0.0
H	0.071156	-0.884832	-1.931603
C	-1.941491	-0.126599	-1.699777
H	-2.343236	-1.012626	-1.201169
H	-2.443607	0.757879	-1.303333
H	-2.16382	-0.192354	-2.767922
C	-0.463256	-1.225525	0.628877
N	-0.854364	-2.216448	1.13076
C	-0.461562	1.220859	0.792377
H	-0.056065	2.119457	0.325559
H	-0.040146	1.158844	1.798639
H	-1.550909	1.31496	0.875371
F	2.568518	0.0	0.0
