16

C	-0.342786	0.163816	-1.486722
C	0.0	0.0	0.0
Cl	-0.173294	-1.412894	-2.348793
H	1.096448	0.0	0.0
H	-1.391644	0.447453	-1.638048
C	0.631454	1.159601	-2.104534
H	0.600583	1.120778	-3.194972
H	0.375975	2.175914	-1.791319
H	1.625783	0.906979	-1.718241
C	-0.611085	-1.16898	0.598349
N	-1.128179	-2.100826	1.096704
C	-0.393287	1.261168	0.781072
H	-0.243041	1.090454	1.849267
H	0.266936	2.079983	0.490588
H	-1.438916	1.55599	0.621143
F	2.624034	0.0	0.0
