16

C	-0.176641	0.012851	-1.506037
C	0.0	0.0	0.0
Cl	-1.922165	-0.006913	-2.044206
H	1.098316	0.0	0.0
H	0.206988	0.974251	-1.855141
C	0.606574	-1.110999	-2.150601
H	0.622644	-1.016151	-3.238934
H	1.615156	-1.02235	-1.729479
H	0.180471	-2.081199	-1.884855
C	-0.508752	-1.222659	0.593117
N	-0.924793	-2.200996	1.096925
C	-0.525408	1.242371	0.704394
H	-1.607018	1.364786	0.58735
H	-0.01986	2.119337	0.290068
H	-0.288212	1.198237	1.770141
F	2.611869	0.0	0.0
