16

C	-0.177037	0.009157	-1.506013
C	0.0	0.0	0.0
Cl	-1.923683	-0.011396	-2.04264
H	1.098375	0.0	0.0
H	0.207238	0.969052	-1.858781
C	0.604871	-1.118613	-2.146114
H	1.61316	-1.030469	-1.723536
H	0.622803	-1.026811	-3.234986
H	0.176277	-2.086942	-1.878046
C	-0.508177	-1.221331	0.597095
N	-0.922658	-2.198271	1.105369
C	-0.525526	1.244009	0.701791
H	-0.031122	2.121653	0.275341
H	-0.276156	1.208134	1.765549
H	-1.60954	1.359106	0.596095
F	2.611308	0.0	0.0
