16

C	-0.456336	-0.015605	-1.459551
C	0.0	0.0	0.0
Cl	0.20145	1.424499	-2.32535
H	1.095749	0.0	0.0
H	0.030079	-0.866392	-1.941853
C	-1.958416	-0.055085	-1.681678
H	-2.43036	0.842595	-1.277071
H	-2.193544	-0.110255	-2.747358
H	-2.380641	-0.931367	-1.181797
C	-0.4646	-1.232423	0.612749
N	-0.856151	-2.22578	1.109325
C	-0.453312	1.209	0.815726
H	-1.539641	1.286016	0.938869
H	-0.079314	2.116812	0.339796
H	0.006498	1.146331	1.804198
F	2.568258	0.0	0.0
