13

C	-0.473168	0.084188	-1.43376
C	0.0	0.0	0.0
F	-0.068075	1.25981	-1.974182
H	1.094054	0.0	0.0
H	-0.305246	0.935004	0.480898
N	0.153278	-1.047569	-2.27047
O	0.92943	-0.741378	-3.155495
O	-0.221584	-2.168674	-1.956306
C	-1.929931	-0.036031	-1.613089
N	-3.098142	-0.075296	-1.733472
C	-0.546369	-1.122495	0.733856
N	-0.963464	-2.009185	1.383029
H	2.630732	0.0	0.0
