13

C	-0.450783	0.062616	-1.42465
C	0.0	0.0	0.0
F	-1.797659	0.334565	-1.563236
H	1.093769	0.0	0.0
H	-0.31427	0.925277	0.489582
N	0.246359	1.261216	-2.082621
O	0.009249	2.339174	-1.558688
O	0.940151	1.059411	-3.06975
C	-0.151814	-1.147523	-2.196757
N	0.040991	-2.141586	-2.791732
C	-0.543614	-1.152704	0.682457
N	-0.944204	-2.094787	1.261562
H	2.603586	0.0	0.0
