13

C	-0.448765	-0.041715	-1.439669
C	0.0	0.0	0.0
F	-0.090698	1.077132	-2.107825
H	1.094714	0.0	0.0
H	-0.317008	-0.916374	0.502099
N	0.239689	-1.240001	-2.124753
O	0.019806	-2.320933	-1.595022
O	0.883451	-1.01925	-3.1338
C	-1.894253	-0.260305	-1.628766
N	-3.049766	-0.421288	-1.767222
C	-0.543137	1.165284	0.665608
N	-0.948308	2.121065	1.217728
H	2.617026	0.0	0.0
