13

C	-0.45436	-0.130802	-1.432601
C	0.0	0.0	0.0
F	-0.06522	0.928378	-2.17757
H	1.0917	0.0	0.0
H	-0.322562	-0.878706	0.562076
N	0.197564	-1.394303	-2.030952
O	-0.061138	-2.43031	-1.432216
O	0.859155	-1.264204	-3.044883
C	-1.906784	-0.319971	-1.600091
N	-3.068386	-0.471063	-1.701683
C	-0.534882	1.209348	0.591446
N	-0.936628	2.196354	1.088224
H	2.624177	0.0	0.0
