17

C	-0.546518	0.064693	-1.432967
C	0.0	0.0	0.0
Br	0.269086	-1.265086	-2.599297
H	1.094576	0.0	0.0
C	-1.996856	-0.109877	-1.456433
N	-3.153658	-0.317495	-1.408856
N	-0.235521	1.428384	-2.06865
O	0.824946	1.942893	-1.765725
O	-1.061527	1.859474	-2.865616
C	-0.4685	-1.248956	0.730647
H	-1.557169	-1.251991	0.857731
H	-0.167264	-2.157629	0.207544
H	0.005042	-1.262324	1.716003
N	-0.520075	1.214693	0.633923
H	-0.98887	0.992917	1.502786
H	0.256649	1.834459	0.834448
Br	3.543205	0.0	0.0
