17

C	-0.407966	-0.017523	-1.479086
C	0.0	0.0	0.0
Br	0.018307	1.643704	-2.386441
H	1.096186	0.0	0.0
C	0.228955	-1.109489	-2.206315
N	0.740581	-1.993439	-2.788502
N	-1.929442	-0.198524	-1.645433
O	-2.325792	-0.870335	-2.591336
O	-2.640453	0.361689	-0.819703
C	-0.451007	-1.295714	0.678957
H	-0.117519	-2.18293	0.134442
H	-1.538568	-1.332447	0.800225
H	0.01115	-1.329217	1.667797
N	-0.412385	1.21878	0.662136
H	0.302394	1.472551	1.333354
H	-1.305017	1.109135	1.12565
Br	3.482734	0.0	0.0
