17

C	-0.432926	0.004404	-1.480514
C	0.0	0.0	0.0
Br	-0.048879	1.67687	-2.363969
H	1.09556	0.0	0.0
C	0.196369	-1.068041	-2.239209
N	0.699458	-1.933084	-2.854987
N	-1.952472	-0.22475	-1.521615
O	-2.339715	-1.334471	-1.877057
O	-2.661315	0.67847	-1.098458
C	-0.466133	-1.296368	0.664717
H	-0.165457	-2.183618	0.102665
H	0.003909	-1.350959	1.648634
H	-1.554294	-1.3154	0.797608
N	-0.423476	1.20928	0.668927
H	-1.328862	1.10197	1.110331
H	0.271979	1.451215	1.364509
Br	3.499105	0.0	0.0
