15
Coordinates from ORCA-job run
  C   -0.70338618680174      0.21239206772663      0.52738066635258
  C   0.20680064595379      0.17760607041656     -0.70590865352309
  Br  -2.01358021540546      1.62985902428658      0.26898583127028
  H   -0.39919982451433     -0.11553796437645     -1.57160525529597
  N   -1.52707170227056     -1.08118719042921      0.63621130666965
  O   -1.89179059795843     -1.56056178515812     -0.42678587250932
  O   -1.77900283910966     -1.47694424070144      1.76083861252917
  C   0.03013749166197      0.45003163820323      1.75498241712068
  N   0.63541994190514      0.66992723824879      2.73856915569709
  N   1.21305282474471     -0.94643355729647     -0.53904548333640
  O   0.98894896110328     -1.78984462494852      0.32257348125873
  O   2.15521249742847     -0.93673012502703     -1.32113033874150
  N   0.95741604110097      1.39708594523751     -0.81280372872922
  H   1.74459160452333      1.24040140680778     -1.43162630070477
  H   0.38045135763852      2.13093609701015     -1.20263583805791
