15
Coordinates from ORCA-job run
  C   -0.44535687844158      0.07904324919446      0.74282684605727
  C   0.38366363843112     -0.17415562719584     -0.53287795586661
  Br  -0.36243381146430      1.92327733006988      1.28252853396227
  H   0.37645893881532     -1.25020538880169     -0.71601325497850
  N   -1.89525031159374     -0.31226926388130      0.31788791511953
  O   -1.99486906534849     -1.49845762108756      0.03943121875373
  O   -2.75194000455134      0.54540612329797      0.27824947139208
  C   -0.09599559723840     -0.77727178094851      1.86300696113825
  N   0.13335151530603     -1.46294800297925      2.79101937872297
  N   1.84966674497893      0.15396022450099     -0.20699234310244
  O   2.41366961339085     -0.62028754244346      0.55916289124216
  O   2.33146206778325      1.14677263191010     -0.73970971488689
  N   -0.15766295274240      0.53375471782945     -1.62091732070010
  H   0.02346419998840      1.52733499361997     -1.55393194946889
  H   0.19277190268635      0.18604595691480     -2.50267067738484
