15
Coordinates from ORCA-job run
  C   -0.70202638169494      0.20823271296978      0.52903893733500
  C   0.20448330806928      0.17840889217600     -0.70659066379714
  Br  -2.02531648737317      1.61401590294038      0.27085710229345
  H   -0.40256841220463     -0.11705523493025     -1.57075162021534
  N   -1.51429501947757     -1.09242551255009      0.64196941126109
  O   -1.76016163873481     -1.48848092487631      1.76781973030887
  O   -1.87700340879864     -1.57673233503086     -0.41946058683063
  C   0.03072696518721      0.45489068595380      1.75523054604201
  N   0.62984319356268      0.68285622268580      2.74078602814247
  N   1.21692780414829     -0.94054025611851     -0.54438914123813
  O   2.14805722441257     -0.93193072874603     -1.33950531177981
  O   1.00850065913675     -1.77860158987366      0.32633867862762
  N   0.95025607378596      1.40091882886030     -0.81482448709168
  H   0.36508025871046      2.13625756621896     -1.18966267030408
  H   1.72749586127056      1.25118577032068     -1.44785595275371
