17

C	0.0	0.0	0.0
C	-0.601193	-0.023909	-1.433997
Cl	1.792562	0.0	0.0
H	-1.626773	-0.382795	-1.303287
C	-0.387012	1.270894	0.620241
N	-0.609956	2.298678	1.143797
C	-0.466853	-1.172263	0.856079
H	-0.032344	-1.090348	1.853139
H	-0.150792	-2.105416	0.393005
H	-1.557278	-1.131053	0.907372
N	0.142143	-1.066515	-2.231641
O	-0.149791	-2.241964	-2.013602
O	1.00238	-0.684975	-3.018596
N	-0.618974	1.198657	-2.158244
H	0.230656	1.732311	-2.030659
H	-1.420867	1.736789	-1.85257
Cl	-3.610247	0.0	0.0
