17

C	0.0	0.0	0.0
C	-0.547382	-0.088075	-1.477776
Cl	1.791127	0.0	0.0
H	-0.595805	-1.144895	-1.74558
C	-0.372828	1.294154	0.581332
N	-0.637302	2.330894	1.067096
C	-0.585235	-1.136687	0.817809
H	-1.678151	-1.065094	0.76965
H	-0.254066	-2.092743	0.406409
H	-0.266566	-1.062524	1.858552
N	0.471851	0.506392	-2.420255
O	1.071539	-0.256063	-3.174061
O	0.610467	1.724711	-2.373386
N	-1.771911	0.558472	-1.756877
H	-1.733124	1.532979	-1.479911
H	-2.587237	0.145883	-1.282187
Cl	-4.28647	0.0	0.0
