17

C	0.0	0.0	0.0
C	-0.577285	-0.312051	-1.387102
Cl	1.796843	0.0	0.0
H	-1.667829	-0.364414	-1.23246
C	-0.381678	1.381302	0.320822
N	-0.632639	2.48974	0.616609
C	-0.482547	-0.930057	1.105881
H	-0.116804	-0.5576	2.064253
H	-0.107999	-1.939389	0.946253
H	-1.576068	-0.926242	1.094201
N	-0.131075	-1.720151	-1.796689
O	0.736938	-1.809276	-2.6665
O	-0.670942	-2.673342	-1.242415
N	-0.223587	0.668049	-2.343632
H	0.723443	0.529944	-2.671421
H	-0.862464	0.64777	-3.126103
Cl	-3.671681	0.0	0.0
