17

C	0.0	0.0	0.0
C	-0.578205	0.156892	-1.432196
Cl	1.792429	0.0	0.0
H	-1.646539	-0.079057	-1.331424
C	-0.383513	1.201441	0.75077
N	-0.607362	2.170142	1.377263
C	-0.484723	-1.254172	0.716154
H	-0.102637	-1.258249	1.738488
H	-0.129367	-2.138457	0.189252
H	-1.577515	-1.233137	0.718584
N	0.03611	-0.909189	-2.303038
O	0.970852	-0.587323	-3.032076
O	-0.429655	-2.044702	-2.204176
N	-0.415439	1.422976	-2.061002
H	0.501768	1.817422	-1.895016
H	-1.136334	2.04702	-1.722436
Cl	-3.638883	0.0	0.0
