17

C	0.0	0.0	0.0
C	-0.542411	-0.088414	-1.478
Cl	1.7911	0.0	0.0
H	-0.56671	-1.14366	-1.754977
C	-0.373256	1.294982	0.577972
N	-0.661578	2.339114	1.033434
C	-0.586638	-1.134574	0.818662
H	-0.267307	-1.059115	1.859138
H	-1.679553	-1.062743	0.772757
H	-0.256924	-2.092261	0.410385
N	0.465418	0.535557	-2.415051
O	1.072648	-0.208078	-3.18112
O	0.585622	1.75469	-2.352349
N	-1.780532	0.53264	-1.753125
H	-1.774459	1.50141	-1.453768
H	-2.588015	0.091408	-1.292035
Cl	-4.301414	0.0	0.0
