17

C	0.0	0.0	0.0
C	-0.578356	0.155703	-1.431927
Cl	1.7925	0.0	0.0
H	-1.646043	-0.082	-1.331782
C	-0.386323	1.200629	0.750522
N	-0.609322	2.168411	1.378577
C	-0.484184	-1.254415	0.71616
H	-0.12884	-2.138535	0.189077
H	-0.101063	-1.259485	1.73802
H	-1.577085	-1.234094	0.721738
N	0.037095	-0.910009	-2.302801
O	0.970859	-0.587509	-3.032504
O	-0.426228	-2.046379	-2.203133
N	-0.415868	1.421449	-2.060476
H	-1.137093	2.045698	-1.723913
H	0.501037	1.816964	-1.896952
Cl	-3.640048	0.0	0.0
