17

C	0.0	0.0	0.0
C	-0.445204	-0.912967	-1.187785
Cl	1.794384	0.0	0.0
H	0.407648	-1.547285	-1.446228
C	-0.42621	1.397687	-0.11157
N	-0.681308	2.544004	-0.076974
C	-0.490759	-0.559783	1.330189
H	-0.083411	0.045841	2.14244
H	-1.581914	-0.517323	1.346289
H	-0.164495	-1.593926	1.438689
N	-0.561521	-0.056801	-2.491346
O	-1.409774	-0.410373	-3.30244
O	0.269871	0.830731	-2.666052
N	-1.565682	-1.703292	-0.911275
H	-1.774794	-2.302363	-1.698146
H	-2.405678	-1.151237	-0.674043
Cl	-4.019703	0.0	0.0
