11

C	0.0	0.0	0.0
C	-0.586435	0.385853	-1.340912
F	1.379949	0.0	0.0
H	-0.269154	1.393609	-1.624041
H	-0.359372	-0.990564	0.275891
H	-1.723941	0.326635	-1.01703
C	-0.42163	0.960049	1.039532
N	-0.562873	1.751185	1.894907
C	-0.27023	-0.571602	-2.377009
N	-0.084037	-1.365979	-3.226106
F	-2.670826	0.0	0.0
