16
Coordinates from ORCA-job run
  C   0.66700651672558     -0.10014508858057      0.86278064007151
  C   -0.74442981947724      0.20088099939146      0.35927510507899
  Br  1.26189841937207      1.35551069787147      2.02985651719746
  H   -1.38489811909138      0.40323300390107      1.21864230218038
  H   0.56524010732062     -0.95689544078330      1.53443106341200
  C   1.73143751706366     -0.38424889732230     -0.18175363298969
  H   1.90818295551656      0.48246501729394     -0.81579912172232
  H   2.66450121794275     -0.65266550490761      0.31540936375472
  H   1.42884178967896     -1.22270493277472     -0.81386570905900
  C   -1.31729345872547     -0.91687438350209     -0.49760856289846
  H   -0.76192469091569     -1.02155025573520     -1.42828720868688
  H   -2.36034015952683     -0.70212270473853     -0.73968041934397
  H   -1.28231278859899     -1.86090851996303      0.05093705284813
  N   -0.78016332293305      1.47574146531448     -0.43088859115525
  O   -1.39339399521297      2.42292392294670      0.05444934689672
  O   -0.20335216913860      1.47736062158824     -1.51789814558435
