14

C	0.0	0.0	0.0
C	-0.519113	-0.267231	-1.413613
F	1.387672	0.0	0.0
H	-0.199516	0.536475	-2.082483
H	-1.619523	-0.269199	-1.360195
C	-0.385536	1.369955	0.404012
N	-0.570842	2.476957	0.748289
C	-0.481615	-1.02831	1.001592
H	-1.573868	-1.042542	1.007519
H	-0.107227	-0.769529	1.993832
H	-0.089705	-2.006808	0.714364
C	-0.015605	-1.538863	-1.921314
N	0.406051	-2.559646	-2.316636
Br	-3.806975	0.0	0.0
