14

C	0.0	0.0	0.0
C	-0.532434	0.309143	-1.394323
F	1.387419	0.0	0.0
H	-0.29517	-0.534397	-2.050863
H	-1.629169	0.38568	-1.307952
C	-0.379573	1.077191	0.940664
N	-0.584472	1.96868	1.676264
C	-0.484252	-1.34974	0.485586
H	-1.577064	-1.350068	0.500495
H	-0.112729	-2.120574	-0.194874
H	-0.092569	-1.538931	1.486972
C	0.045592	1.524575	-1.958939
N	0.518476	2.488915	-2.432233
Br	-3.815056	0.0	0.0
