14

C	0.0	0.0	0.0
C	-0.234612	0.387088	-1.484511
F	1.390622	0.0	0.0
H	0.133339	1.4116	-1.600863
H	0.474892	-0.255174	-2.018291
C	-0.412016	1.060054	0.931553
N	-0.570254	1.947706	1.683739
C	-0.519253	-1.35723	0.392189
H	-0.151503	-2.099514	-0.321163
H	-1.613249	-1.323179	0.379436
H	-0.157697	-1.609219	1.392011
C	-1.493759	0.27935	-2.222905
N	-2.256602	0.253656	-3.11755
Br	-3.781916	0.0	0.0
