14

C	-0.419868	0.024943	-1.443378
C	0.0	0.0	0.0
Br	-2.585472	-0.097755	-1.475038
H	1.095493	0.0	0.0
H	-0.335354	1.003277	-1.912622
H	-0.330051	-0.944137	0.447799
N	0.147879	-0.960625	-2.212684
H	-0.127717	-0.989821	-3.180613
H	0.214858	-1.866583	-1.778084
C	-0.493345	1.183658	0.81874
H	-0.186908	2.122898	0.349627
H	-0.035844	1.1557	1.80986
H	-1.579383	1.187821	0.927365
Br	3.680745	0.0	0.0
