14

C	-0.504048	-0.009724	-1.429107
C	0.0	0.0	0.0
Br	-0.240676	1.725737	-2.328114
H	1.093184	0.0	0.0
H	0.122836	-0.678172	-2.027546
H	-0.287577	-0.981242	0.410122
N	-1.925905	-0.303966	-1.490685
H	-2.209131	-0.444287	-2.453576
H	-2.085451	-1.168035	-0.98303
C	-0.565684	1.104566	0.880961
H	-0.160723	2.072759	0.584941
H	-0.274979	0.931017	1.919898
H	-1.655674	1.150369	0.819975
Br	3.744191	0.0	0.0
