14

C	-0.521047	0.005424	-1.428367
C	0.0	0.0	0.0
Br	-0.080206	1.729114	-2.268121
H	1.093217	0.0	0.0
H	0.019955	-0.734086	-2.023174
H	-0.348264	0.898958	0.520649
N	-1.943549	-0.214467	-1.614589
H	-2.150715	-1.176985	-1.370407
H	-2.454499	0.38382	-0.973638
C	-0.450178	-1.258194	0.745022
H	-1.529508	-1.289614	0.921967
H	0.055055	-1.306102	1.711379
H	-0.162908	-2.157966	0.191445
Br	3.725859	0.0	0.0
