14

C	-0.414631	-0.002338	-1.445499
C	0.0	0.0	0.0
Br	-2.497896	0.569996	-1.506961
H	1.09616	0.0	0.0
H	-0.016337	0.844671	-1.998441
H	-0.32542	0.939733	0.450869
N	-0.204872	-1.185263	-2.117772
H	-0.561532	-2.005745	-1.653853
H	-0.439864	-1.167071	-3.097503
C	-0.510634	-1.186228	0.805928
H	-0.239773	-1.057145	1.855522
H	-0.039648	-2.117252	0.47985
H	-1.598247	-1.284924	0.74047
Br	3.701906	0.0	0.0
