14

C	-0.27271	-0.024095	-1.493878
C	0.0	0.0	0.0
Br	-2.233451	-0.085672	-1.87282
H	1.098469	0.0	0.0
H	0.037271	0.926299	-1.930616
H	-0.358366	0.940123	0.430003
N	0.374459	-1.078198	-2.235309
H	0.167042	-1.969302	-1.799192
H	1.377747	-0.923373	-2.125335
C	-0.510448	-1.191217	0.795044
H	-0.123229	-2.132211	0.395935
H	-1.60211	-1.241818	0.803707
H	-0.155836	-1.120463	1.825896
Br	3.639111	0.0	0.0
