15

C	-0.507256	-0.044313	-1.421846
C	0.0	0.0	0.0
F	-0.114041	-1.19628	-2.034078
H	1.095617	0.0	0.0
H	-1.59354	0.045273	-1.527575
N	0.047048	1.111287	-2.22685
O	1.000898	0.911714	-2.96183
O	-0.546555	2.177021	-2.067846
C	-0.361794	-1.300555	0.72687
H	0.174788	-2.119479	0.248756
H	-1.437477	-1.516725	0.736947
H	-0.003431	-1.227947	1.755019
C	-0.549992	1.141054	0.703533
N	-1.029879	2.031732	1.303902
F	2.524535	0.0	0.0
