15

C	-0.419003	0.049887	-1.441936
C	0.0	0.0	0.0
F	-1.780036	0.15545	-1.62442
H	1.094591	0.0	0.0
H	0.073914	0.86126	-1.976874
N	0.004043	-1.214621	-2.150216
O	-0.771475	-2.167329	-2.113166
O	1.096574	-1.192805	-2.704295
C	-0.463923	-1.245213	0.754245
H	-0.20972	-1.124168	1.808604
H	0.087064	-2.111366	0.385219
H	-1.536772	-1.43485	0.662722
C	-0.47656	1.216833	0.632452
N	-0.854541	2.19629	1.163329
F	2.522306	0.0	0.0
