15

C	-0.26787	-0.015769	-1.478095
C	0.0	0.0	0.0
F	-0.054116	1.20104	-2.046209
H	1.096676	0.0	0.0
H	0.356208	-0.764578	-1.967152
N	-1.698676	-0.398437	-1.799008
O	-1.910861	-1.60276	-1.95696
O	-2.5483	0.486802	-1.816792
C	-0.374088	-1.313287	0.684264
H	-1.449516	-1.515789	0.70559
H	0.131643	-2.134296	0.170834
H	0.004973	-1.285359	1.707389
C	-0.589042	1.149691	0.651404
N	-1.064333	2.05749	1.229562
F	2.521961	0.0	0.0
