15

C	-0.465705	-0.011979	-1.439386
C	0.0	0.0	0.0
F	-0.248129	-1.227931	-2.010573
H	1.097098	0.0	0.0
H	-1.518677	0.25202	-1.591656
N	0.302363	1.015166	-2.248943
O	0.043699	2.180921	-1.967736
O	1.068184	0.627306	-3.115816
C	-0.392694	-1.295995	0.714456
H	-1.472236	-1.491462	0.71535
H	-0.045054	-1.232788	1.746294
H	0.130082	-2.126098	0.239551
C	-0.540088	1.145762	0.704281
N	-0.983139	2.035945	1.3343
F	2.52134	0.0	0.0
