15

C	-0.39769	-0.143763	-1.435376
C	0.0	0.0	0.0
F	-1.699181	-0.575817	-1.624042
H	1.099949	0.0	0.0
H	-0.25768	0.774601	-2.002858
N	0.465111	-1.161289	-2.149692
O	1.178617	-0.738278	-3.056179
O	0.35072	-2.335708	-1.814047
C	-0.415227	-1.154362	0.909696
H	-0.067795	-0.93375	1.920917
H	-1.496809	-1.318893	0.927389
H	0.081648	-2.065648	0.578166
C	-0.498224	1.270124	0.487853
N	-0.886748	2.302927	0.895775
F	2.505109	0.0	0.0
