15

C	-0.488412	-0.037899	-1.430362
C	0.0	0.0	0.0
F	-0.201864	-1.236353	-2.008851
H	1.09596	0.0	0.0
H	-1.558193	0.156974	-1.561857
N	0.19727	1.035007	-2.251354
O	1.022846	0.702856	-3.086111
O	-0.177193	2.179442	-2.006579
C	-0.378592	-1.289274	0.735248
H	0.146865	-2.121608	0.267353
H	-1.456556	-1.491278	0.746313
H	-0.022462	-1.2108	1.763679
C	-0.540234	1.149439	0.69864
N	-0.98833	2.041607	1.321457
F	2.524124	0.0	0.0
