15
Coordinates from ORCA-job run
  C   0.55486289614068      0.73603301054609     -0.31164402181449
  C   -0.45952688320415     -0.39005499887736     -0.54173201335891
  F   0.15467894345417      1.82619526191712     -1.01033687335552
  H   -0.53810855678837     -0.58076377307064     -1.61268313821997
  N   0.62188591922851      1.18610326561078      1.15491607776570
  O   -0.46613559297287      1.45969342762942      1.63961034478792
  O   1.72768497699729      1.29166187681801      1.65835049256351
  C   1.87854344197794      0.30426144063588     -0.75878641324759
  N   2.90478114697340     -0.05113998095971     -1.20881443416125
  N   -1.86121541269456     -0.05377480628766     -0.06525999955258
  O   -2.28058385260655     -0.65731480068823      0.90848656902500
  O   -2.42851797520518      0.78669589991406     -0.74499693329258
  N   -0.02954687344360     -1.64862901600812      0.13004866339667
  O   -0.44479875065471     -2.68503925622020     -0.37221661790299
  O   0.66499657279801     -1.52292755095946      1.13505829736708
