15
Coordinates from ORCA-job run
  C   0.81203985688609      0.36358944656698     -0.03274903112066
  C   -0.53565376236419     -0.16839573145194     -0.50811447464211
  F   1.65561685815059      0.30847869372038     -1.09971196705551
  H   -0.97530942665571      0.52614545688616     -1.22359410915240
  N   0.66505966686117      1.86958742859243      0.28598057017144
  O   0.01445723375658      2.49943714030368     -0.53563769563161
  O   1.26150618591343      2.29230465501156      1.26156496682388
  C   1.38482730897749     -0.32603032691270      1.11536071982827
  N   1.87212722225543     -0.88005103791961      2.03044545483158
  N   -1.48993840538897     -0.33120249834750      0.63913200534367
  O   -1.33697838372895      0.47424673408792      1.55145974076253
  O   -2.34646978854874     -1.19405909987985      0.53106679724054
  N   -0.36526085762717     -1.49302833199329     -1.18039734224447
  O   -0.83022091454976     -1.58727566343107     -2.30990453983218
  O   0.21319720606271     -2.35374686523314     -0.52690109532295
