15
Coordinates from ORCA-job run
  C   0.62041066258929      0.52113567238430     -0.27048069906694
  C   -0.42319221161063     -0.47474751350552      0.22998816586654
  F   0.32094903255461      0.97753450008922     -1.49362134820607
  H   -0.37855975129662     -0.58414635803275      1.31265977050136
  N   0.61939504562293      1.73185324929330      0.70923511963862
  O   0.78636679514286      1.42634244772095      1.87904570235458
  O   0.48464642564279      2.83053241305507      0.21116750814599
  C   1.96812174422274     -0.04159409309953     -0.21356934730569
  N   3.05693224842643     -0.47891374545775     -0.14013611826698
  N   -0.25944107732295     -1.82382104085435     -0.39034656888176
  O   0.20410821470623     -1.85967628222807     -1.52507971721947
  O   -0.64764182364169     -2.76210977504964      0.29618929818569
  N   -1.79804016486606      0.04574871825559     -0.12873044184728
  O   -2.03719938828522      1.15097465665205      0.33877724627333
  O   -2.51885575188470     -0.65811284922288     -0.81609857017192
