15
Coordinates from ORCA-job run
  C   0.55440781710745      0.64501759847893     -0.45950133308382
  C   -0.51056287545939     -0.45386188002168     -0.45035170316026
  F   0.10687777634446      1.62156528963812     -1.27782264668542
  H   -0.60987277258981     -0.85808016046565     -1.45828354220310
  N   0.77047029422140      1.24690095879443      0.94457245148640
  O   0.71515819234937      2.45498216311661      1.04014031188476
  O   1.02033150908233      0.40922934127389      1.79744518439523
  C   1.85720131095760      0.16343639494238     -0.91273231325412
  N   2.91511918328318     -0.16671534727762     -1.30534600765384
  N   -1.84581104459584      0.09359787428121     -0.05833648695669
  O   -1.85872689981897      0.98325623666822      0.78395545195314
  O   -2.80417541793409     -0.43726543132181     -0.60635908287322
  N   -0.18302437806211     -1.61934499064155      0.45673631591584
  O   0.78441011627810     -2.27120262024843      0.09281796248139
  O   -0.91180281116370     -1.81051542721704      1.41606543775369
