15
Coordinates from ORCA-job run
  C   0.59826676110326      0.70712207208294     -0.27696870199706
  C   -0.48003351900977     -0.33843586075676     -0.56973394060629
  F   0.23161141664535      1.84106824656355     -0.91195894316681
  H   -0.50458460970026     -0.52947730912344     -1.64308774839998
  N   0.71174658826554      1.00847575655688      1.23202943323543
  O   0.66732722843410      2.17400556233127      1.56538337335232
  O   0.88076290355174      0.00958380752634      1.91399833816861
  C   1.92559981175820      0.28662964615354     -0.71975075152657
  N   3.00651872231321      0.01179842818624     -1.09180634347243
  N   -1.83433655607041      0.15851445043881     -0.17599046889038
  O   -1.90113448480482      0.86345201967131      0.82388562999198
  O   -2.75391555396274     -0.22582547386583     -0.88811605443136
  N   -0.24211326282101     -1.67162751353229      0.10481964229677
  O   0.74092705959877     -2.26657851073259     -0.31101217873073
  O   -1.04664250530118     -2.02870532149997      0.94930871417650
