15
Coordinates from ORCA-job run
  C   0.70001096522261      0.44702998396448     -0.22679562320636
  C   -0.39848896362978     -0.52475508063543      0.19804144649620
  F   0.59553929526009      0.77698256598146     -1.52248122373835
  H   -0.22842855055916     -0.92204293207716      1.19596298247098
  N   0.56440975514857      1.72570223699176      0.63221821114404
  O   0.36061900718716      1.50463592196509      1.81731842814703
  O   0.71333483603495      2.78534885549053      0.06023890622576
  C   2.02601766755971     -0.10225164713209      0.06161359608353
  N   3.10409067040885     -0.51001670553911      0.29350910064433
  N   -0.39739188033954     -1.67989677069371     -0.77449299877549
  O   0.42810907966643     -2.55006987989809     -0.52564567144748
  O   -1.17661545122182     -1.61898606097438     -1.71385162397448
  N   -1.76557809036635      0.08882178911627      0.17339364770450
  O   -2.63999564501577     -0.62445253230503      0.64677793009068
  O   -1.88563269535594      1.20595025574543     -0.31480710786490
