15
Coordinates from ORCA-job run
  C   0.72718897098740      0.43460920959953     -0.16203859079172
  C   -0.42270752774079     -0.51574244026441      0.16532517450811
  F   0.76608743076844      0.73648447761948     -1.46773777684991
  H   -0.36129812262860     -0.89395231086349      1.18303492149605
  N   0.51774547611238      1.73334487408857      0.65049077420950
  O   0.18823279081485      1.54066846884357      1.81204527931789
  O   0.73733319715099      2.77857121728720      0.07469484246520
  C   2.00692650025833     -0.12438197009516      0.27793793591164
  N   3.04657335894798     -0.54701445337804      0.62833817157340
  N   -0.33738436021775     -1.69064187497822     -0.77898132163286
  O   -1.01077465982107     -1.63618336964710     -1.79751599503914
  O   0.43556856163869     -2.57213131435799     -0.42400677426224
  N   -1.77100791806379      0.11299240539466     -0.01334688786278
  O   -2.69924581520592     -0.57617997200617      0.38800054808279
  O   -1.82423788300112      1.21955705275758     -0.53624030112595
