15
Coordinates from ORCA-job run
  C   0.61167294661695      0.69655361185502     -0.27421550655790
  C   -0.47585696866307     -0.33741426170830     -0.57392810104348
  F   0.26959472193654      1.82943326623367     -0.92452993797345
  H   -0.48714995324786     -0.53777789136566     -1.64579603952315
  N   0.70611858624057      1.00968748713173      1.23356389239704
  O   0.66958719629933      2.17844145430495      1.55658373244765
  O   0.85392327660801      0.01483052490861      1.92632457163455
  C   1.93976631594347      0.25457433215462     -0.69326743259540
  N   3.02243004707021     -0.03584205948481     -1.04801908227975
  N   -1.82884195059521      0.18121153750553     -0.20471879548879
  O   -2.74254990620206     -0.19328246216919     -0.92964027803856
  O   -1.90123585534202      0.89231017683259      0.79040065399777
  N   -0.26547762221022     -1.66716400074963      0.11604846178559
  O   0.71613708566974     -2.27832475034708     -0.27926651327517
  O   -1.08711792012440     -2.00623696510208      0.95146037451301
