15
Coordinates from ORCA-job run
  C   0.81296483580674      0.37338464830739     -0.08885165175008
  C   -0.54610597134621     -0.16687860581304     -0.51637719731860
  F   1.60215176755506      0.38570747846761     -1.19881862271624
  H   -0.96064375353438      0.44778316549629     -1.31299868161009
  N   0.65289509411044      1.85117841499712      0.31624703037156
  O   -0.17954902085905      2.47497965245345     -0.32793588599014
  O   1.41955817599787      2.27169227903013      1.16660172001987
  C   1.46529717664331     -0.36674623120978      0.98346038061760
  N   2.03845136095592     -0.98161228426609      1.80520191181760
  N   -1.52258135039518     -0.19786633344664      0.61654250111684
  O   -1.16488211961945      0.31853681178431      1.67090359920786
  O   -2.59938708735216     -0.71651973523804      0.36147728856144
  N   -0.38470236427801     -1.56672560445028     -1.03463895907205
  O   -0.24597217522341     -2.44044280943701     -0.18639647410826
  O   -0.38849456846150     -1.68647084667542     -2.25341695914729
