14

C	-0.503373	0.003935	-1.466093
C	0.0	0.0	0.0
F	-0.224974	-1.257263	-1.954675
H	1.090741	0.0	0.0
H	0.111212	0.725624	-2.010082
N	-1.886056	0.283623	-1.683942
H	-2.450647	-0.159722	-0.96878
H	-2.050203	1.280643	-1.65851
N	-0.54264	-1.225592	0.668841
O	-1.75468	-1.222686	0.914621
O	0.22054	-2.155627	0.875406
C	-0.506865	1.179917	0.684285
N	-0.915091	2.165368	1.175505
Cl	3.23549	0.0	0.0
