14

C	-0.42688	-0.04141	-1.468664
C	0.0	0.0	0.0
F	-0.163659	1.237558	-1.990701
H	1.091974	0.0	0.0
H	-1.503249	-0.184835	-1.575367
N	0.294506	-1.074509	-2.090234
H	1.291748	-0.972795	-1.919626
H	0.100392	-1.129323	-3.07903
N	-0.512531	-1.261121	0.639116
O	-1.737511	-1.352124	0.744638
O	0.300386	-2.111043	0.974235
C	-0.558079	1.142563	0.706137
N	-1.013991	2.061489	1.277002
Cl	3.252635	0.0	0.0
