14

C	-0.379921	-0.126093	-1.478929
C	0.0	0.0	0.0
F	-0.144608	1.136238	-2.054505
H	1.090486	0.0	0.0
H	-1.445875	-0.317752	-1.616051
N	0.404615	-1.160394	-2.018055
H	1.391394	-1.012895	-1.81258
H	0.255698	-1.270417	-3.011028
N	-0.516331	-1.228183	0.694698
O	-1.741346	-1.360823	0.713727
O	0.295785	-2.009633	1.16889
C	-0.578603	1.173834	0.630716
N	-1.052815	2.115896	1.146245
Cl	3.259813	0.0	0.0
