14

C	-0.356086	0.098772	-1.474626
C	0.0	0.0	0.0
F	-1.729725	0.273076	-1.634155
H	1.093739	0.0	0.0
H	-0.127411	-0.858041	-1.950991
N	0.325627	1.236953	-2.006594
H	1.290101	1.237036	-1.679863
H	0.331424	1.192063	-3.017585
N	-0.450267	-1.301991	0.588848
O	-0.888273	-1.297203	1.735388
O	-0.302015	-2.299963	-0.110341
C	-0.529464	1.115771	0.766021
N	-0.95056	2.034142	1.36334
Cl	3.178145	0.0	0.0
