14

C	-0.49497	-0.016717	-1.438096
C	0.0	0.0	0.0
F	-1.873487	-0.358866	-1.41104
H	1.092057	0.0	0.0
H	0.006158	-0.819598	-1.974968
N	-0.261766	1.221945	-2.059361
H	-0.481777	1.190773	-3.043987
H	-0.768347	1.972476	-1.609008
N	-0.395316	-1.280718	0.674884
O	-0.817077	-1.226611	1.826639
O	-0.21369	-2.305583	0.026654
C	-0.543217	1.136925	0.726885
N	-0.980306	2.113163	1.212152
Cl	3.182334	0.0	0.0
