14

C	-0.353565	0.083943	-1.47655
C	0.0	0.0	0.0
F	-1.727355	0.248727	-1.640658
H	1.093467	0.0	0.0
H	-0.117136	-0.875566	-1.943882
N	0.322346	1.221876	-2.016808
H	0.327871	1.170689	-3.027344
H	1.286829	1.227896	-1.690731
N	-0.452125	-1.297503	0.596236
O	-0.27494	-2.302595	-0.085874
O	-0.92354	-1.282561	1.729493
C	-0.530551	1.122381	0.755107
N	-0.942386	2.038429	1.362447
Cl	3.17787	0.0	0.0
