14

C	-0.514683	-0.051248	-1.442069
C	0.0	0.0	0.0
F	-0.003894	-1.141761	-2.099812
H	1.092209	0.0	0.0
H	-0.103871	0.829702	-1.953754
N	-1.945285	-0.16911	-1.460794
H	-2.376882	0.496841	-0.831169
H	-2.296652	-0.013147	-2.398962
N	-0.503392	-1.192305	0.756832
O	-0.002754	-2.267857	0.456526
O	-1.389782	-1.017666	1.594146
C	-0.491653	1.222142	0.624402
N	-0.915636	2.236125	1.041521
Cl	3.207204	0.0	0.0
