14

C	-0.385728	0.003762	-1.482317
C	0.0	0.0	0.0
F	-0.355407	1.362791	-1.885189
H	1.094117	0.0	0.0
H	-1.411825	-0.323113	-1.652593
N	0.531774	-0.806103	-2.166194
H	1.493555	-0.572446	-1.928956
H	0.382181	-0.800565	-3.164107
N	-0.441263	-1.264817	0.688582
O	-1.150417	-2.054569	0.069468
O	-0.061251	-1.402308	1.845377
C	-0.547327	1.120623	0.746576
N	-1.018107	2.010849	1.350317
Cl	3.223836	0.0	0.0
