16

C	-0.549931	-0.009199	-1.430546
C	0.0	0.0	0.0
F	-0.2668	-1.275948	-1.941534
H	1.088104	0.0	0.0
H	-0.373085	0.885876	0.516656
N	-1.973648	0.169402	-1.565373
H	-2.198914	1.152215	-1.482475
H	-2.449521	-0.3236	-0.817272
C	0.205874	1.015476	-2.248578
H	0.036558	2.022714	-1.856416
H	-0.143418	0.969303	-3.281675
H	1.275149	0.803651	-2.197093
N	-0.523549	-1.169343	0.746605
O	-1.708672	-1.107518	1.10994
O	0.210105	-2.130307	0.936665
Br	3.569753	0.0	0.0
