16

C	-0.404544	0.01098	-1.473659
C	0.0	0.0	0.0
F	-1.794642	0.208114	-1.518949
H	1.090415	0.0	0.0
H	-0.402576	-0.865879	0.520204
N	0.196835	1.035386	-2.274141
H	0.185563	1.905871	-1.75316
H	1.174154	0.792068	-2.408756
C	-0.098523	-1.348362	-2.067474
H	-0.693059	-2.117837	-1.573248
H	-0.349204	-1.326437	-3.128342
H	0.961294	-1.576953	-1.941876
N	-0.500947	1.177826	0.736792
O	-0.241161	2.298577	0.295457
O	-1.152291	0.97757	1.762661
Br	3.512355	0.0	0.0
