16

C	-0.528928	0.180685	-1.419822
C	0.0	0.0	0.0
F	-0.393862	-1.082084	-2.057508
H	1.090669	0.0	0.0
H	-0.382724	0.803682	0.628852
N	-1.897855	0.586191	-1.423344
H	-2.438442	-0.054596	-0.851937
H	-2.247947	0.558839	-2.373827
C	0.344879	1.148471	-2.184038
H	0.282695	2.137435	-1.730124
H	-0.000394	1.211153	-3.219967
H	1.381136	0.810931	-2.158144
N	-0.53065	-1.265832	0.566597
O	0.225712	-2.216591	0.711286
O	-1.739541	-1.280489	0.843245
Br	3.608092	0.0	0.0
