15

C	-0.438704	0.083289	-1.450277
C	0.0	0.0	0.0
F	-1.837963	0.273197	-1.526767
H	1.09339	0.0	0.0
H	-0.369369	-0.934462	0.443316
C	0.248667	1.222649	-2.16568
H	-0.01471	2.141782	-1.643004
H	1.328962	1.072894	-2.090828
H	-0.068932	1.274676	-3.208905
C	-0.187395	-1.200577	-2.134764
N	-0.045792	-2.223977	-2.691538
N	-0.425694	1.205669	0.707018
H	-1.29128	1.049543	1.207743
H	0.30257	1.443002	1.372035
H	2.938753	0.0	0.0
