15

C	-0.573666	0.013804	-1.407635
C	0.0	0.0	0.0
F	-0.116036	-1.11548	-2.092783
H	1.098458	0.0	0.0
H	-0.350995	-0.925114	0.472812
C	-2.092461	-0.030332	-1.425795
H	-2.46501	-0.024678	-2.453075
H	-2.416843	-0.951992	-0.935028
H	-2.483575	0.829262	-0.882309
C	-0.123649	1.204567	-2.158833
N	0.146408	2.155524	-2.792107
N	-0.477437	1.198892	0.713153
H	-0.864375	0.933413	1.610098
H	0.349356	1.756321	0.9092
H	2.953862	0.0	0.0
