15

C	-0.552596	0.008081	-1.416354
C	0.0	0.0	0.0
F	-0.104813	-1.139519	-2.079404
H	1.099208	0.0	0.0
H	-0.351165	0.909216	0.501295
C	-2.071798	-0.016893	-1.474012
H	-2.404624	-0.125719	-2.509043
H	-2.407418	-0.862914	-0.875425
H	-2.483003	0.907711	-1.062218
C	-0.058679	1.177616	-2.17157
N	0.22966	2.130289	-2.794022
N	-0.518062	-1.19257	0.699091
H	-0.511004	-0.98622	1.689651
H	0.191295	-1.907913	0.572727
H	2.977743	0.0	0.0
