16

C	0.0	0.0	0.0
C	-0.225302	-0.087802	-1.536863
Cl	1.910743	0.0	0.0
H	0.536939	0.540923	-2.012465
H	-0.237249	0.994954	0.376022
N	-0.609475	-0.997738	0.770076
H	-1.575468	-0.688251	0.941578
H	-0.667148	-1.824735	0.1813
C	-1.591181	0.413076	-1.963442
H	-1.660063	1.489879	-1.793288
H	-2.419393	-0.022699	-1.386193
H	-1.723857	0.236097	-3.04116
N	-0.055619	-1.499276	-1.915398
H	0.929141	-1.708266	-2.014942
H	-0.504133	-1.663325	-2.807441
H	-3.649103	0.0	0.0
