16

C	0.0	0.0	0.0
C	-0.553269	-0.104387	-1.434365
Cl	1.848891	0.0	0.0
H	0.278242	0.037663	-2.130487
H	-0.213269	0.985287	0.412104
N	-0.537766	-0.986624	0.828546
H	-0.23945	-0.926717	1.789197
H	-0.424389	-1.907724	0.430905
C	-1.615115	0.968155	-1.646781
H	-2.481463	0.775275	-0.993559
H	-1.218266	1.971359	-1.461301
H	-1.972037	0.928782	-2.683202
N	-1.077591	-1.459782	-1.641779
H	-2.013161	-1.469648	-1.234195
H	-1.192617	-1.603246	-2.637391
H	-4.235244	0.0	0.0
