16

C	0.0	0.0	0.0
C	-0.369648	0.315586	-1.490908
Cl	1.79092	0.0	0.0
H	0.406304	-0.182361	-2.084789
H	-0.27698	0.84053	0.6474
N	-0.54498	-1.265555	0.404345
H	-1.564814	-1.119524	0.358879
H	-0.319164	-1.420398	1.382666
C	-0.275005	1.819506	-1.724186
H	0.680695	2.228689	-1.382612
H	-1.089595	2.320127	-1.19278
H	-0.390914	2.025484	-2.789853
N	-1.647046	-0.165193	-1.971143
H	-2.402056	0.063203	-1.292496
H	-1.619421	-1.179622	-1.984439
H	-3.428311	0.0	0.0
