16

C	0.0	0.0	0.0
C	-0.574257	0.000762	-1.397604
Cl	1.856637	0.0	0.0
H	-1.654508	0.120176	-1.1677
H	-0.269859	0.944974	0.467267
N	-0.470269	-1.085679	0.767661
H	0.025915	-1.942775	0.584208
H	-0.513534	-0.888411	1.753111
C	-0.376978	-1.320355	-2.12775
H	-0.843771	-1.255169	-3.115123
H	-0.868054	-2.133752	-1.587564
H	0.685701	-1.55464	-2.264045
N	-0.105847	1.184143	-2.118015
H	0.807733	0.99982	-2.515452
H	-0.745321	1.368601	-2.88092
H	-3.598664	0.0	0.0
