13

C	-0.477721	0.049686	-1.445298
C	0.0	0.0	0.0
Br	0.027343	-1.541832	-2.466366
H	1.095428	0.0	0.0
H	-0.000669	0.88363	-1.960059
H	-1.564797	0.117604	-1.542038
C	-0.479863	-1.2176	0.783442
H	-0.177225	-1.116838	1.827983
H	0.009105	-2.106974	0.384341
H	-1.567856	-1.355661	0.741798
C	-0.479181	1.22617	0.618534
N	-0.885813	2.216401	1.108638
F	2.572264	0.0	0.0
