13

C	-0.476439	0.05566	-1.445683
C	0.0	0.0	0.0
Br	0.027516	-1.532792	-2.472241
H	1.095555	0.0	0.0
H	0.002309	0.890722	-1.956217
H	-1.563141	0.125073	-1.544238
C	-0.479977	-1.220821	0.778614
H	0.010069	-2.108468	0.3766
H	-1.567936	-1.360021	0.736143
H	-0.178515	-1.123326	1.823599
C	-0.479243	1.223905	0.622973
N	-0.885939	2.21232	1.116821
F	2.572033	0.0	0.0
