13

C	-0.219171	-0.011984	-1.483552
C	0.0	0.0	0.0
Br	-2.105197	-0.230312	-2.084832
H	1.098637	0.0	0.0
H	0.321849	-0.849708	-1.920923
H	0.120656	0.916646	-1.938462
C	-0.429007	-1.278257	0.708375
H	-0.103964	-1.242466	1.750846
H	0.081897	-2.123633	0.236584
H	-1.510964	-1.447232	0.674375
C	-0.540794	1.18643	0.629026
N	-0.975248	2.143663	1.158388
F	2.543267	0.0	0.0
