13

C	-0.482635	0.050126	-1.44358
C	0.0	0.0	0.0
Br	0.043484	-1.528459	-2.474537
H	1.095631	0.0	0.0
H	-1.571217	0.100936	-1.536114
H	-0.021659	0.894862	-1.955119
C	-0.474759	-1.2204	0.783534
H	-1.563598	-1.355568	0.756375
H	0.006353	-2.109018	0.372976
H	-0.15704	-1.12466	1.82407
C	-0.479445	1.224297	0.622817
N	-0.884911	2.210043	1.122735
F	2.573305	0.0	0.0
