16

C	0.0	0.0	0.0
C	-0.613483	0.062037	-1.383049
Br	1.927534	0.0	0.0
H	-1.695286	0.225461	-1.190861
H	-0.328229	-0.888326	0.52863
N	-0.420307	1.160009	0.87084
O	-0.61169	2.24862	0.342902
O	-0.478519	0.919282	2.070281
N	-0.565294	-1.315224	-1.986347
O	-0.859444	-1.395794	-3.176964
O	-0.278412	-2.276485	-1.274276
C	-0.042219	1.056438	-2.373649
H	0.01198	2.034684	-1.903451
H	0.953667	0.757738	-2.707171
H	-0.697758	1.113266	-3.240085
Cl	-3.480444	0.0	0.0
