13

C	-0.443221	0.075376	-1.420691
C	0.0	0.0	0.0
F	-1.813487	0.04357	-1.566743
H	1.089674	0.0	0.0
H	-0.049331	0.940678	-1.944879
H	-0.378795	-0.884191	0.505264
N	0.071284	-1.141362	-2.142922
O	-0.304285	-2.232208	-1.718528
O	0.798349	-0.954438	-3.115619
N	-0.425671	1.175597	0.730072
O	-0.418842	2.263235	0.134155
O	-0.654343	1.048366	1.939268
H	2.574912	0.0	0.0
