13

C	-0.568054	0.020375	-1.383793
C	0.0	0.0	0.0
F	-1.922197	0.260799	-1.391619
H	1.089506	0.0	0.0
H	-0.069109	0.806205	-1.958201
H	-0.305246	0.919574	0.499796
N	-0.340959	-1.243313	-2.195404
O	-1.309959	-1.925222	-2.493656
O	0.821652	-1.44709	-2.513041
N	-0.464953	-1.106008	0.817469
O	-0.672782	-0.87851	2.015986
O	-0.504376	-2.22993	0.300094
H	2.583265	0.0	0.0
