13

C	-0.452586	0.080706	-1.415981
C	0.0	0.0	0.0
F	-1.824167	0.016425	-1.553023
H	1.089723	0.0	0.0
H	-0.085781	0.962066	-1.932638
H	-0.375333	-0.886561	0.503819
N	0.082752	-1.112259	-2.162611
O	0.771257	-0.892843	-3.156792
O	-0.241479	-2.218249	-1.738273
N	-0.424759	1.172639	0.736903
O	-0.645053	1.039669	1.94734
O	-0.426167	2.262727	0.144737
H	2.574414	0.0	0.0
