13

C	-0.446056	-0.09477	-1.423666
C	0.0	0.0	0.0
F	-0.030807	0.921527	-2.20935
H	1.088475	0.0	0.0
H	-0.068838	-1.035725	-1.836244
H	-0.299024	-0.889494	0.551257
N	-1.958027	-0.201882	-1.555376
O	-2.545801	0.560659	-2.309298
O	-2.471069	-1.106049	-0.898429
N	-0.52743	1.151645	0.718408
O	-1.06867	2.063644	0.07755
O	-0.34079	1.167436	1.938431
H	2.627487	0.0	0.0
