13

C	-0.528623	0.110256	-1.393749
C	0.0	0.0	0.0
F	-1.849424	0.488914	-1.425252
H	1.08947	0.0	0.0
H	0.05969	0.854889	-1.935258
H	-0.30741	0.892885	0.544826
N	-0.408065	-1.150037	-2.226544
O	-1.434629	-1.752326	-2.508551
O	0.727267	-1.426905	-2.585595
N	-0.476491	-1.144608	0.752378
O	-0.476383	-2.247853	0.189969
O	-0.731704	-0.973482	1.95229
H	2.586288	0.0	0.0
