13

C	-0.453951	-0.094352	-1.422033
C	0.0	0.0	0.0
F	0.009254	0.884337	-2.227369
H	1.088476	0.0	0.0
H	-0.133466	-1.061031	-1.821995
H	-0.308274	-0.881815	0.557404
N	-1.971192	-0.119133	-1.541633
O	-2.526419	-0.992872	-0.878044
O	-2.523123	0.675757	-2.28926
N	-0.508403	1.162937	0.711939
O	-0.947375	2.118318	0.057784
O	-0.393268	1.149244	1.941486
H	2.620715	0.0	0.0
