14

C	0.0	0.0	0.0
C	-0.488384	-0.156687	-1.437922
Cl	1.830807	0.0	0.0
H	-1.586382	-0.175748	-1.359008
H	-0.199383	0.718455	-2.02702
N	-0.461026	1.266244	0.475246
H	-0.33653	1.347438	1.475861
H	0.003363	2.037011	0.012164
N	-0.463526	-1.110512	0.767458
H	-0.155386	-1.019705	1.730096
H	-1.488811	-1.057482	0.742318
C	0.009283	-1.360198	-2.093544
N	0.386807	-2.310283	-2.669484
Br	-3.829217	0.0	0.0
