14

C	0.0	0.0	0.0
C	-0.466099	0.23144	-1.440758
Cl	1.790564	0.0	0.0
H	-0.109185	1.211155	-1.763486
H	-1.563799	0.238663	-1.425963
N	-0.439218	1.147719	0.766884
H	-0.162863	1.01234	1.734628
H	-1.462268	1.120668	0.734673
N	-0.438454	-1.310585	0.412023
H	-1.461371	-1.285548	0.403738
H	-0.133299	-1.483648	1.363924
C	0.002393	-0.791299	-2.369761
N	0.35573	-1.581202	-3.162515
Br	-3.721988	0.0	0.0
