14

C	0.0	0.0	0.0
C	-0.447954	-0.251884	-1.443936
Cl	1.790561	0.0	0.0
H	-1.544677	-0.278862	-1.447379
H	-0.064742	-1.228321	-1.746123
N	-0.427663	1.318429	0.398434
H	-1.44987	1.301675	0.411996
H	-0.094767	1.50859	1.337675
N	-0.430948	-1.142003	0.780829
H	-0.130735	-1.004354	1.741039
H	-1.453733	-1.117979	0.767557
C	0.023711	0.766183	-2.377146
N	0.379913	1.551047	-3.173219
Br	-3.737469	0.0	0.0
