14

C	0.0	0.0	0.0
C	-0.441533	-0.518783	-1.380581
Cl	1.804215	0.0	0.0
H	-0.090417	0.1754	-2.149246
H	-1.539298	-0.510909	-1.372749
N	-0.438368	1.349019	0.262382
H	-1.459951	1.309968	0.281026
H	-0.151148	1.968919	-0.487396
N	-0.458425	-0.918439	0.994708
H	-1.472473	-0.995731	0.883266
H	-0.286508	-0.499095	1.902985
C	0.042062	-1.858169	-1.6984
N	0.410615	-2.928628	-2.008154
Br	-3.722466	0.0	0.0
