14

C	0.0	0.0	0.0
C	-0.45237	0.034522	-1.468031
Cl	1.854175	0.0	0.0
H	-0.088629	-0.84089	-2.013129
H	-1.552094	-0.0034	-1.414125
N	-0.458899	1.08856	0.801917
H	-0.178552	1.971708	0.392678
H	-1.483396	1.021098	0.793896
N	-0.480628	-1.189494	0.58291
H	-0.3357	-1.173798	1.58217
H	-0.090596	-2.020376	0.164008
C	-0.028373	1.247899	-2.154648
N	0.300411	2.234845	-2.69918
Br	-3.819569	0.0	0.0
