12
Coordinates from ORCA-job run
  C   0.66670014644749     -0.13073665061105     -0.10392213185468
  C   -0.66310362578111      0.12711061056995      0.11015818832127
  N   1.47988663742840      0.50602803527493     -1.04798779501909
  H   0.95916311274570      1.07228407543304     -1.70521484779617
  H   2.10143789583564     -0.12964311991093     -1.52888833120285
  C   1.31298850669686     -1.04913100665784      0.77758868767049
  N   1.79471997404849     -1.82430923131604      1.52275181373765
  N   -1.47435202980570     -0.50559573062412      1.05719700689573
  H   -0.95473015896832     -1.05734029456012      1.72730824470688
  H   -2.11259881188158      0.12624834648254      1.52041896194671
  C   -1.31080942584576      1.04549734627824     -0.77069995141572
  N   -1.79930222092011      1.81958761964140     -1.51270984599023
