12
Coordinates from ORCA-job run
  C   0.59301030810700     -0.42139226396470     -0.13726662972000
  C   -0.61433273256762      0.20728121042557     -0.00838804935296
  N   1.71011489190327      0.00054616681720      0.54638935342426
  H   1.62023985201114      0.95754616348545      0.86548415141742
  H   2.59536445251208     -0.22874684314676      0.12158803223424
  C   0.71473994436142     -1.61563232498210     -0.91788252782019
  N   0.85068915670678     -2.58770827347673     -1.56763493994916
  N   -0.65785781437776      1.37603761099911      0.80688198367756
  H   -1.30989103858034      2.05490505778393      0.43507109477245
  H   -0.93548407378843      1.15333867822652      1.75726303408204
  C   -1.78382862506227     -0.27900127623106     -0.66150060740047
  N   -2.78176432122528     -0.61617390593643     -1.19100489536519
