12
Coordinates from ORCA-job run
  C   -0.71894238951873      0.04147491021220      0.16648197954142
  C   0.54522738252489     -0.17929284470124     -0.30529224447329
  N   -0.96347193208457      0.91489493191618      1.20363423352415
  H   -1.80321350153249      0.73456966268481      1.73238915652482
  H   -0.13399398888364      1.07342687186673      1.76382242636435
  C   -1.85378542264411     -0.54969323662558     -0.47513670478513
  N   -2.80783335329389     -1.03514227641825     -0.96508814893041
  N   1.61662012103874      0.47378371788116      0.36786024688669
  H   1.81037977784493      1.38356218477105     -0.03774178951823
  H   2.46293251153996     -0.07964420397430      0.33666162381277
  C   0.78872875267044     -1.03363874987313     -1.41910361828580
  N   1.05735204233845     -1.74430096773962     -2.32048716066135
