12
Coordinates from ORCA-job run
  C   -0.67097625373759     -0.03725000684821      0.14666590071884
  C   0.64906703969893     -0.01965314743534     -0.22260258119724
  N   -1.66453981307506      0.80712238998856     -0.35761780366451
  H   -2.30728785175711      1.13281836764104      0.35097660124643
  H   -1.29919451444666      1.57584795434032     -0.90537100239893
  C   -1.10648922348753     -1.08268226252540      1.01762703810420
  N   -1.41840702165614     -1.93617437951718      1.76767770123088
  N   1.56940105419505     -1.04604395855958      0.00947580226925
  H   2.47892100477609     -0.70882162702371      0.29289866787012
  H   1.22693416911665     -1.75872052064567      0.64083652050265
  C   1.10034392655887      1.07020015202608     -1.02894651228595
  N   1.44222748381453      2.00235703855908     -1.66362033239575
