12
Coordinates from ORCA-job run
  C   0.66266623449718     -0.15228554377003     -0.09790342532461
  C   -0.68248303012058      0.07369168968566      0.03844064949763
  N   1.46070861381535      0.31490833785961     -1.14646134509669
  H   2.36822285534533      0.63925215190984     -0.84236796675344
  H   0.99873407847564      1.00090003195029     -1.72981699442988
  C   1.28450760344968     -1.04654790448890      0.82655302476755
  N   1.76616130122003     -1.76001839494584      1.63112782449107
  N   -1.54372533351161     -0.64306930742415      0.87485433859107
  H   -2.21958339304106     -0.05729295640567      1.34567249734768
  H   -1.06017781897116     -1.24652782836197      1.52779514401906
  C   -1.29038217796412      1.02754878476108     -0.83421384024713
  N   -1.74664893319468      1.84944093923006     -1.54467990686232
