12
Coordinates from ORCA-job run
  C   0.60078533133733     -0.08512193702207     -0.25740724978642
  C   -0.62908959486413      0.04323212928760      0.32523589003096
  N   1.36805671077151     -1.26291281280902     -0.04395016444263
  H   1.68443640225987     -1.65734527212747     -0.92082828727492
  H   2.17767258849085     -1.07815786112703      0.53605535781885
  C   1.08042937958380      0.99639937919147     -1.06019116801901
  N   1.45397291948873      1.89216006463159     -1.73044970900257
  N   -1.40385079385418      1.18068477338115      0.31354637497335
  H   -2.39698747802013      1.03713879204671      0.40525763495692
  H   -1.14765369921153      1.88118932495882     -0.36790554660813
  C   -1.14235236183298     -1.04793238384168      1.10557775218479
  N   -1.64441940414916     -1.90033419657008      1.74205911516881
