12
Coordinates from ORCA-job run
  C   0.55778124147862     -0.48449924257776     -0.07322031136918
  C   -0.58139088531062      0.27159806064532     -0.07394277832371
  N   1.62803665491809     -0.18936131865825      0.73921456177796
  H   1.60355782894158      0.77033289192482      1.06228772908540
  H   2.52666900882203     -0.50893124620329      0.41228933273133
  C   0.63706786466600     -1.68341551774296     -0.85261655065449
  N   0.73550463286242     -2.66283496554340     -1.49808138833284
  N   -0.59047461983838      1.43861588580119      0.74630629175168
  H   -1.02133041347867      1.25200021788324      1.64591984035450
  H   -1.10035432246602      2.19047855434842      0.30019241653791
  C   -1.71509554473163     -0.08421308504294     -0.86074588179433
  N   -2.67997144586342     -0.30977023483438     -1.49960326176422
