12
Coordinates from ORCA-job run
  C   0.57219012783008     -0.07840745610972     -0.36711416455816
  C   -0.68400735671379      0.01392992205380      0.16142288583715
  N   1.70897367206389      0.52775866887675      0.18000125159149
  H   1.64969580843904      0.69710434113641      1.17096109640946
  H   2.56728377363155      0.05450527419170     -0.05782751661774
  C   0.77819599945561     -0.75862155580505     -1.60484387031064
  N   1.07139647617889     -1.35617103635970     -2.57554575022271
  N   -0.97692106010819      0.56851913465823      1.41105025823713
  H   -1.91860188641763      0.93039304430562      1.46962282728607
  H   -0.31992359498515      1.26191771850144      1.73280014098748
  C   -1.75913858116281     -0.67596170072928     -0.48019521322948
  N   -2.68914337821148     -1.18496635472020     -0.99233194541006
