12
Coordinates from ORCA-job run
  C   0.65154961984505     -0.14400965268595     -0.16334622035155
  C   -0.67576049050640      0.08572268685211      0.09174895481360
  N   1.42333556072312      0.53334003075176     -1.11255595067727
  H   0.96286833802376      1.34926288505325     -1.49512828194896
  H   2.35358068111536      0.75503015205436     -0.78561230207574
  C   1.27395078509942     -1.25151669086950      0.49037544607984
  N   1.76043871389736     -2.15092999498035      1.07580271400854
  N   -1.53158393470725     -0.78224594075827      0.77628384242372
  H   -2.15895897053905     -0.30646890290911      1.40973790734244
  H   -1.04902398385388     -1.54362231865256      1.23588748421797
  C   -1.27852219031922      1.23829696808858     -0.49956545796783
  N   -1.73087412877828      2.21714077805568     -0.97462813586476
