12
Coordinates from ORCA-job run
  C   0.56507122713553     -0.19464525545895     -0.25492327723508
  C   -0.72987906019645      0.06920372360013      0.09555486278041
  N   1.58937403874423      0.38943278685700      0.54349360558039
  H   1.86050986061011      1.30162556425326      0.19111051290750
  H   2.41078851675935     -0.20025237592616      0.57648551539997
  C   0.88429123834268     -1.02682605378960     -1.36638617134594
  N   1.21469957297118     -1.72299759716060     -2.25857137683983
  N   -1.04092517393526      0.92319480353936      1.13112115898442
  H   -0.26636186259177      1.02911639895713      1.77586763623965
  H   -1.93617074123056      0.76556365282170      1.56794034634765
  C   -1.81712719776216     -0.45249127189514     -0.67558013264138
  N   -2.73327041884688     -0.88092437579812     -1.27811268017777
