12
Coordinates from ORCA-job run
  C   -0.70951497521880     -0.03616085461249      0.20680878986548
  C   0.55994646987857     -0.16731207206100     -0.28377947552381
  N   -1.05379752560135      0.98764970918780      1.06209016679187
  H   -2.02936208180379      1.24318980639878      1.06168062990863
  H   -0.41013543974020      1.76725576497813      0.99291607582180
  C   -1.70579325966479     -1.02649057178488     -0.06797728992768
  N   -2.55248085510306     -1.81373560665328     -0.28997712562581
  N   1.50151598206261      0.84315502545947      0.06291052737590
  H   2.18354144846688      0.97765396516661     -0.67210202861612
  H   1.99235329277519      0.61501578131392      0.92133250682741
  C   0.92988789136239     -1.26159252212236     -1.11767647456113
  N   1.29283905258636     -2.12862842527070     -1.82922630233654
