12
Coordinates from ORCA-job run
  C   -0.64816837101729      0.00585921997952      0.23057947272537
  C   0.61263093323752     -0.06477610013539     -0.30329224069389
  N   -1.64671935208837      0.89961250116182     -0.16617840338899
  H   -1.31334244168930      1.62648854071595     -0.78599759756370
  H   -2.17045213176518      1.28437718418673      0.60778660598722
  C   -1.02809788072593     -0.99428069164530      1.17780427134445
  N   -1.29173298577743     -1.81064291656475      1.98562010204794
  N   1.49346835175191     -1.14121425272600     -0.16149276932116
  H   2.44973976134709     -0.85600020799750     -0.00114733205126
  H   1.19044523002640     -1.82029836044438      0.52473931199553
  C   1.02100193928900      0.98219812276712     -1.18546680656923
  N   1.33122694741158      1.88667696070219     -1.87395461451229
