12
Coordinates from ORCA-job run
  C   -0.71913912508810      0.01859451131559      0.18289031850073
  C   0.54015970880321     -0.15273858886676     -0.32138734815392
  N   -0.97064522170201      0.87545570362705      1.23170325848602
  H   -1.78522067199984      0.65482329760155      1.78391048042397
  H   -0.13256791765503      1.06696481720839      1.76821616400217
  C   -1.84551870352919     -0.61276578931867     -0.43534565086860
  N   -2.78578267303386     -1.13904404053704     -0.90950475717028
  N   1.60465469512429      0.52895487334485      0.33670969274733
  H   2.46153563056383     -0.00769797829172      0.29746047894632
  H   1.77571604850684      1.43875236965546     -0.07876873709991
  C   0.78886628094750     -0.98935683952160     -1.44741842963237
  N   1.06794194906234     -1.68094233621710     -2.36046547018146
