12
Coordinates from ORCA-job run
  C   0.60907826365979     -0.08792322977972     -0.30061332871597
  C   -0.60776363676769      0.08572551965772      0.30795576216675
  N   1.43199562367988     -1.21113744227798     -0.17173474229880
  H   2.41324722558243     -0.98068781755880     -0.09946249446789
  H   1.14624727619291     -1.83323611241207      0.57334610009516
  C   1.03303198703188      0.91123245754321     -1.22811867567311
  N   1.34437061433924      1.77231907856608     -1.96966213916868
  N   -1.43099983415201      1.20923665871966      0.17996125600234
  H   -2.41109838009014      0.97735555293926      0.09725847799757
  H   -1.14035327392253      1.83829498848180     -0.55747067250907
  C   -1.03438581972926     -0.91181982607767      1.23592141404496
  N   -1.35337004582449     -1.76835982780149      1.97961904252674
