12
Coordinates from ORCA-job run
  C   0.65353712215050     -0.19167551279891     -0.06777586053753
  C   -0.65616146840205      0.18959497617009      0.07557472609669
  N   1.61534129311832      0.46692152064596     -0.84095128081142
  H   2.21685319007834     -0.16515404090239     -1.35083900319165
  H   1.22560778426531      1.17350229235830     -1.45143021203165
  C   1.11436202809396     -1.29203583416600      0.71640754142594
  N   1.44652621206590     -2.21519909219985      1.36907283761160
  N   -1.61642520311783     -0.46810590213551      0.85069996016728
  H   -2.22482173974330      0.16347763851297      1.35265084070903
  H   -1.22336007342596     -1.16617260061846      1.46851781384508
  C   -1.11402960194927      1.29100273476005     -0.70899614074991
  N   -1.43642954313391      2.21584382037374     -1.36393122253347
