12
Coordinates from ORCA-job run
  C   -0.65109973917529      0.00153181981837      0.21913210686453
  C   0.65116556645815     -0.00131373158286     -0.21096650962303
  N   -1.62974364032295      0.93003769004469     -0.14999463271385
  H   -2.22729314744702      1.20515174982478      0.61712731178712
  H   -1.25515677613965      1.73828031779249     -0.62966060283996
  C   -1.08281185324433     -1.09096779252144      1.03048926052363
  N   -1.38677591777749     -2.00486536343363      1.70935447219586
  N   1.62983393741553     -0.92969758719699      0.15818686995018
  H   2.22659377474719     -1.20559384502460     -0.60923112120021
  H   1.25555557093971     -1.73744652868421      0.63886693111499
  C   1.08283729503460      1.09089940143780     -1.02269370933766
  N   1.38689492951154      2.00398386952559     -1.70261037672159
