12
Coordinates from ORCA-job run
  C   -0.65293984664270      0.01183256555608      0.27633394535775
  C   0.61060942082592     -0.07066131367996     -0.23835063721185
  N   -1.58854883197988      0.96593263808372     -0.05247788962922
  H   -2.28493323662536      1.15998152278824      0.64937418229386
  H   -1.23374285873981      1.78691866126943     -0.52246952236515
  C   -1.10788177529373     -1.02289019897336      1.16234904540292
  N   -1.55078579975513     -1.81635812684542      1.90936258800784
  N   1.42989349575010     -1.19157623368040      0.06760175496390
  H   1.56495143135916     -1.78489885079081     -0.74212580278284
  H   2.33746181587750     -0.89978965225998      0.40762698830515
  C   1.05943562686548      0.98633387637859     -1.09006044175850
  N   1.41648055835846      1.87517511215387     -1.77816421058386
