12
Coordinates from ORCA-job run
  C   -0.57255560061907     -0.07711496260046      0.30792105732690
  C   0.66259433623619     -0.17284536387220     -0.27058602992599
  N   -1.20892065553964      1.19494234983734      0.28349178027288
  H   -1.73789995559134      1.33056252304847     -0.57170903268941
  H   -1.83000727865705      1.31441540481064      1.07266261904939
  C   -1.20032171863270     -1.19870757264594      0.92201601088565
  N   -1.76525243275884     -2.08041416839572      1.46362627377194
  N   1.24371164461306      0.89902572994258     -0.91489693561389
  H   0.85593018490498      1.78085179716119     -0.59994656344936
  H   2.25085329103006      0.87717504924354     -0.96452393889024
  C   1.35124997414133     -1.42612551549613     -0.32008503500362
  N   1.94861821087302     -2.43976527103331     -0.35997020573426
