12
Coordinates from ORCA-job run
  C   0.61490945944829     -0.13589565401790     -0.19254234177352
  C   -0.68003105458894      0.12620698626632      0.15774401342121
  N   0.95563855170912     -0.32764404609376     -1.55946513635341
  H   1.73478959463969      0.25989183553054     -1.82863759203077
  H   1.20006900741748     -1.29219283438041     -1.74844163956347
  C   1.59040073929739     -0.22463972958646      0.84885493257856
  N   2.38794145589711     -0.28414460841140      1.71586373342447
  N   -1.16235326804753      0.18953025240898      1.44480250829484
  H   -1.97968398049638      0.76269003260845      1.58193734835538
  H   -0.46752246801384      0.27610354644330      2.17295275317344
  C   -1.66482322719777      0.25448573142585     -0.87988651403273
  N   -2.52733481006462      0.39560848780650     -1.66718206549399
