12
Coordinates from ORCA-job run
  C   0.55968119962664     -0.16897598321559     -0.28905276500875
  C   -0.72547652593915      0.03152165888532      0.13201550901321
  N   1.59747223959325      0.42452902902487      0.48221987453672
  H   2.45358392910997     -0.11141488029590      0.43196892174153
  H   1.78698235514559      1.37499925820678      0.18281915825056
  C   0.85752409699713     -0.94242721235152     -1.44717035360299
  N   1.17472762346745     -1.59064580163744     -2.37923929300428
  N   -1.01184188861031      0.83005145141822      1.21876139224278
  H   -1.88483209296593      0.63225764900311      1.68362079361785
  H   -0.21183046968359      0.92561291757755      1.83342466509984
  C   -1.83167218200577     -0.49110012201277     -0.60972976814052
  N   -2.76331828473528     -0.91340796460263     -1.19163813474595
