12
Coordinates from ORCA-job run
  C   -0.64988068663593     -0.02007037609218      0.22589128238061
  C   0.67489962288425      0.04301309702574     -0.12106204388488
  N   -1.50552074414168      1.07766508844127      0.35950334170357
  H   -1.10879818622074      1.93973687593712      0.00815491228157
  H   -2.42642458207974      0.91397063188079     -0.02346419051209
  C   -1.17717243767787     -1.28948324966561      0.61580450599411
  N   -1.58457592450165     -2.35863362867166      0.89751705360645
  N   1.61037436241485     -0.97943506911657      0.06378550137472
  H   2.23867768053149     -1.09241559707934     -0.71978815421413
  H   1.19363065172832     -1.86106253196041      0.33378832982350
  C   1.18255228722568      1.29439214943087     -0.58779555567891
  N   1.55223795647303      2.33232260986997     -1.00533498287454
