12
Coordinates from ORCA-job run
  C   0.55309500171920     -0.25903170822161     -0.22140044080713
  C   -0.72593286833745      0.11516839660071      0.08374882966817
  N   1.60842031992328      0.39205709496535      0.47826207194435
  H   2.40587982806323     -0.21953616736420      0.59320816274827
  H   1.91179177240942      1.23161534093059     -0.00451932378461
  C   0.82858179937950     -1.26606169976269     -1.19082666360086
  N   1.12703495645637     -2.10529921295331     -1.96331181124702
  N   -0.99000813443886      1.13133928887763      0.97635107407979
  H   -1.88980755784932      1.08510845615302      1.42969701386758
  H   -0.20824304584626      1.29610146333098      1.59976476188203
  C   -1.84096049581289     -0.46578126848463     -0.60013239107151
  N   -2.77985157566623     -0.93667998407184     -1.13184128367905
