12
Coordinates from ORCA-job run
  C   -0.60014783037233      0.08444383534948      0.26706712685253
  C   0.62419278270388     -0.05088133157824     -0.32581164439924
  N   -1.46299438323440      1.14614904238347     -0.11939854717843
  H   -1.79385823335554      1.66088601132075      0.68687635819618
  H   -2.26561914496050      0.80387477744400     -0.63369001508872
  C   -0.97591078740093     -0.87530629119939      1.25813721791963
  N   -1.26220567308417     -1.66899536837286      2.08224129913198
  N   1.48719735425288     -1.10742683195384     -0.14410541409813
  H   2.46358182878962     -0.90796322146024     -0.29282424064857
  H   1.30155229170913     -1.69550259900055      0.65614654967853
  C   1.03302246163331      0.92290244400901     -1.29919853909807
  N   1.45218933331907      1.68681953305842     -2.08944015126767
