12
Coordinates from ORCA-job run
  C   -0.63272812739500      0.03987961449495      0.31816833801377
  C   0.60585697391472     -0.07873774032012     -0.24790687775919
  N   -1.46844225420548      1.12597355921656      0.19106076760251
  H   -2.45269809170702      0.93742170531393      0.29706743318789
  H   -1.24758431630395      1.76672061546068     -0.55831579411227
  C   -1.09016256978556     -0.99314552628163      1.20506923695237
  N   -1.54788802869785     -1.80270221725105      1.92538186169199
  N   1.43527658459105     -1.18481241595968      0.08372301840376
  H   1.78125252369259     -1.64492008750746     -0.74886479336419
  H   2.22841820884165     -0.89848481970867      0.64503768558792
  C   1.03044623660956      0.94300657528904     -1.15359526965909
  N   1.35725286044530      1.78880073725345     -1.90782560654546
