12
Coordinates from ORCA-job run
  C   0.61757777501050     -0.11034617594711     -0.38816984199309
  C   -0.62666854003783     -0.03988076820888      0.17380738438467
  N   1.68932545659953      0.57871981091362      0.13699133177186
  H   2.59641963811168      0.18912018941405     -0.06954424698033
  H   1.54136806782295      0.81824638329971      1.11045812727431
  C   0.82810085046461     -0.82011298038609     -1.61301213571515
  N   1.03801979358489     -1.41155608970836     -2.60895701327237
  N   -0.75980988427404      0.71433060295143      1.37414831131884
  H   -0.97237691540062      1.68735498522624      1.17955361436128
  H   -1.48838136660423      0.33736841853010      1.96599690325160
  C   -1.74875020291298     -0.70174585069245     -0.40299018065374
  N   -2.71482467236443     -1.24049852539226     -0.81128225374788
