12
Coordinates from ORCA-job run
  C   -0.58608675044417      0.10298359496903      0.28939762207481
  C   0.60741118055145     -0.07523670803152     -0.35278378125914
  N   -1.45071020805751      1.16221007784058     -0.10040280547199
  H   -1.73238778748607      1.71738025215163      0.69771662683091
  H   -2.28349757205010      0.81164692434878     -0.55822288754473
  C   -0.92917900446540     -0.80797299914995      1.33679143190879
  N   -1.19086464688560     -1.56069543308327      2.20638410623959
  N   1.46307818579394     -1.13719801475790     -0.16838032392286
  H   2.43440388051082     -0.95949023978006     -0.36864299394455
  H   1.30554976464709     -1.69104850818206      0.66169062872764
  C   0.98466722076387      0.85462465502722     -1.38048288559810
  N   1.37661573712167      1.58379639864752     -2.21606473804038
