12
Coordinates from ORCA-job run
  C   0.56050072333780     -0.14535842242459     -0.40367943235910
  C   -0.53471575014289      0.18141239745930      0.34617640021412
  N   1.68087287361211     -0.79637311300727      0.05994711666833
  H   2.20244214089992     -1.31807152888208     -0.62639325761415
  H   1.58147916369121     -1.26528309916297      0.94921821407039
  C   0.62071967285389      0.29749425384316     -1.76870807522923
  N   0.73742878305284      0.60199382800638     -2.89885960363887
  N   -1.56264356916403      0.98903397087803     -0.21276015117474
  H   -2.47175707169817      0.56096099153237     -0.09125203560508
  H   -1.58138734154120      1.90990012165328      0.20864341091525
  C   -0.59688468185874     -0.29943003697828      1.69133312947685
  N   -0.63805494304274     -0.71527936291731      2.79433428427622
