12
Coordinates from ORCA-job run
  C   0.62120924552696     -0.03062125285594     -0.33424292508200
  C   -0.58934761858856      0.08021193605782      0.29108610153956
  N   1.68460813246778     -0.78197504402067      0.11161032702447
  H   1.47014651536696     -1.47540493012306      0.81431858727286
  H   2.32815190464350     -1.09690648570243     -0.59688391145102
  C   0.87265428876701      0.76905203875552     -1.50048133321947
  N   1.14907506289351      1.37483463348065     -2.47025177838905
  N   -1.55433360126764      1.00750187511532     -0.18881944324828
  H   -2.45139084092223      0.56085344628973     -0.33186934483015
  H   -1.67880074092304      1.77978553532049      0.45471014085469
  C   -0.83336199478659     -0.74513925002398      1.43291034991245
  N   -1.01961035317767     -1.44219250229346      2.36591322961592
