12
Coordinates from ORCA-job run
  C   -0.64306215030924     -0.00299683250533      0.24353845477460
  C   0.64215481606952      0.00425216961401     -0.23469761259744
  N   -1.62116854401551      0.95853014296522     -0.03129582601998
  H   -1.25160758080860      1.79000211012914     -0.47392045819703
  H   -2.18383027055901      1.19433575974465      0.77446073131289
  C   -1.06051804113906     -1.13763116532036      1.00286668808491
  N   -1.35208240429675     -2.08754857097068      1.63610563766664
  N   1.62003763648076     -0.95743489554359      0.04038235637422
  H   2.18319307366635     -1.19318994694477     -0.76499665553126
  H   1.25058709725122     -1.78881566436955      0.48326815028975
  C   1.06025657514159      1.13728511600504     -0.99597214922166
  N   1.35403979251872      2.08421177719621     -1.63273931693564
