12
Coordinates from ORCA-job run
  C   -0.66764495240680     -0.04123577056235      0.15337883107471
  C   0.66802352737105      0.04040180538605     -0.14638139852700
  N   -1.60647261122173      0.98100849273212     -0.02090438250756
  H   -1.18704243513061      1.88055806937272     -0.21768856705538
  H   -2.26873455832795      1.04625514735157      0.73969977566123
  C   -1.17468923368623     -1.30417539613602      0.58465988314544
  N   -1.54324660633635     -2.36115003622221      0.95265803019601
  N   1.60709806107125     -0.98164108214965      0.02776414602662
  H   2.26887052654177     -1.04693445290474     -0.73330293954606
  H   1.18757955303038     -1.88119446656347      0.22436091445805
  C   1.17417021189414      1.30446761199712     -0.57555024163176
  N   1.54008851720108      2.36364007769886     -0.93969405129431
