12
Coordinates from ORCA-job run
  C   0.61469436484446     -0.03386796036569     -0.23564919278478
  C   -0.64041573087247     -0.00706877558538      0.30521857765015
  N   1.49268393627701     -1.11223299162756      0.06136612959340
  H   1.87571185834611     -1.51515050578539     -0.78456615792535
  H   2.26050024486630     -0.81328302134886      0.65062190051100
  C   1.00563494015257      1.05017065083750     -1.08183879984649
  N   1.30642257154355      1.94465002581271     -1.78935849701206
  N   -1.52885384565298      1.03961811076234      0.21068389996240
  H   -2.50407149876319      0.79715249485576      0.28460019860553
  H   -1.32528273244793      1.72796405576618     -0.50025653793742
  C   -1.06259557860468     -1.10538159036601      1.12893840058787
  N   -1.49442852968875     -1.97257049295560      1.79624007859575
