12
Coordinates from ORCA-job run
  C   0.59645578344367     -0.04135435640221     -0.37455179486594
  C   -0.57412333022502      0.08306902375406      0.32033262332088
  N   1.36854332704460     -1.17850634933698     -0.44183967234519
  H   1.17676680256763     -1.88367665865078      0.25576604861083
  H   2.34864882835945     -1.03478442633630     -0.62634044081914
  C   1.03581540881767      1.05491268239461     -1.19199915018643
  N   1.47780126549333      1.91122085613138     -1.86666480315934
  N   -1.35658548137434      1.26291061493360      0.18719816519681
  H   -1.58849810588499      1.65161114656896      1.09262219987269
  H   -2.21784116730732      1.08159862446020     -0.31430188174739
  C   -0.97847507151030     -1.00367951716631      1.15666194682907
  N   -1.28950825942436     -1.90332164035022      1.85311675929315
