12
Coordinates from ORCA-job run
  C   -0.63600355716901      0.00782038850752      0.26039329343321
  C   0.63501349273806     -0.00969343280552     -0.25438584019149
  N   -1.49372057742258      1.11264131950544      0.27748688344263
  H   -2.45290045312196      0.87517996655652      0.06559858579571
  H   -1.17110873553219      1.87913009479088     -0.29874480516251
  C   -1.09415276806277     -1.16423038822796      0.93457856736191
  N   -1.43208939261392     -2.15849588732301      1.46914887729716
  N   1.49317190731038     -1.11381066616650     -0.27058845945828
  H   1.17211156813241     -1.88027136161561      0.30655036971593
  H   2.45286744545799     -0.87591814412114     -0.06209085471610
  C   1.09408821903242      1.16395833196448     -0.92528736604509
  N   1.43272285125119      2.16068977893491     -1.45465925147306
