12
Coordinates from ORCA-job run
  C   0.62068718191562     -0.05162067425389     -0.41164740457668
  C   -0.63399071808888     -0.02192228361538      0.13706278050581
  N   1.64581386067454      0.72345939016503      0.07271106539139
  H   1.40041087638391      1.17541493101243      0.94266787943831
  H   2.57151257960418      0.32877009561443      0.02416647707068
  C   0.90042090245064     -0.84850505987114     -1.56845181937903
  N   1.15800170401962     -1.52605803596112     -2.49638871278637
  N   -0.78877370814184      0.73714000558752      1.34504697649340
  H   -1.65584342803693      1.26372189055756      1.34234470541437
  H   -0.82726353226992      0.10881194818890      2.14380038906002
  C   -1.73409724311115     -0.67727690053797     -0.49190371373362
  N   -2.65687847539974     -1.21193530688636     -0.99240862289828
