12
Coordinates from ORCA-job run
  C   0.59256971010252     -0.04482861360314     -0.34205312113556
  C   -0.53611431102789      0.09180861182137      0.42416581620775
  N   1.55268017346476     -1.05059938305136     -0.19779800461117
  H   1.88339803239782     -1.41722804356956     -1.07965671829821
  H   1.26502467215857     -1.79354394356787      0.42610242125872
  C   0.89107310646708      0.99231164673132     -1.27848298864299
  N   1.08083539774802      1.84912621696401     -2.06477839417061
  N   -1.31483878909544      1.24916952651354      0.51999306663666
  H   -1.07672120578577      1.95043011896159     -0.16975560107473
  H   -2.30811646003163      1.06211355836308      0.52762948514994
  C   -0.87938599702110     -0.98208226887076      1.30174028256408
  N   -1.14940432937693     -1.90567742669222      1.98189375611613
