12
Coordinates from ORCA-job run
  C   -0.62823816748461      0.00817951386350      0.28236075938750
  C   0.58439316529163     -0.05959988630691     -0.35376935221231
  N   -1.63384076605595      0.94119489072256      0.01170522951850
  H   -2.08638141695354      1.29300440795243      0.84424796578263
  H   -1.32868208870374      1.69583392879001     -0.58960658297061
  C   -0.95560722582797     -1.03283985805525      1.20462053090141
  N   -1.17023250928273     -1.88855975090797      1.98574606775156
  N   1.44711783431408     -1.15946308608159     -0.33754849281841
  H   2.41983784635724     -0.90352585286746     -0.23754403358479
  H   1.18146413170241     -1.86804568974229      0.33434746044941
  C   0.94652320206337      1.02258311123242     -1.21334881003632
  N   1.22364599457981      1.95223827140056     -1.88221074216859
