12
Coordinates from ORCA-job run
  C   -0.61696163480995      0.02833657094832      0.30574054867847
  C   0.65233351479827      0.01818043245567     -0.21234858248604
  N   -1.49335901617348      1.11714780606138      0.28046042037543
  H   -1.17704853759645      1.87347104502562     -0.31268733960096
  H   -2.44728504295186      0.85775188678780      0.07027043915488
  C   -1.04141500732185     -1.11463310816361      1.05059144250800
  N   -1.36658837096417     -2.09032412948425      1.62577586505533
  N   1.64348441348839     -0.91994417008911      0.09089095728343
  H   1.29753577045391     -1.71521182938609      0.61208672934311
  H   2.17805828257108     -1.21150658942336     -0.71584534318958
  C   1.04842581512131      1.12358488448733     -1.02632697791347
  N   1.32381981338479      2.03414720078028     -1.72160815920860
