12
Coordinates from ORCA-job run
  C   0.60209449221711     -0.02018859681494     -0.43957613992834
  C   -0.63174995512765     -0.03552002143020      0.14725316590093
  N   1.63370860978402      0.74509279703351      0.03355134798709
  H   2.56934879391031      0.43079777990620     -0.16143507694353
  H   1.45947971247678      1.12719789095242      0.95282478146904
  C   0.88414000651825     -0.79816369694566     -1.61246139431809
  N   1.23413348920555     -1.47144247769261     -2.51035224170232
  N   -0.77621250823057      0.66334077231530      1.38651619380927
  H   -0.93176271762589      0.00768793176915      2.14492546776873
  H   -1.56532203082585      1.29658463256290      1.34774001236709
  C   -1.74085912684725     -0.72401770593018     -0.42598346376253
  N   -2.73699876545482     -1.22236930572588     -0.81500265264734
