12
Coordinates from ORCA-job run
  C   -0.68395171083391      0.01982345491143      0.18215343664671
  C   0.63879771458940     -0.07998530871579     -0.14691395593456
  N   -1.57946510668027      0.90585822717646     -0.36843619321734
  H   -2.37499622396762      1.15297444524041      0.19916633634204
  H   -1.18584055699979      1.67043004973468     -0.89710976755369
  C   -1.23981479555223     -0.92599283608311      1.10946770373710
  N   -1.77823825812477     -1.64497429251042      1.86926686902779
  N   1.42364487434517     -1.13978213262287      0.38635891017417
  H   1.72822777940449     -1.77581018013381     -0.34101410693213
  H   2.24366889564329     -0.78537915911735      0.86334003747773
  C   1.18569013245249      0.89016426530603     -1.04214327129294
  N   1.62227725572375      1.71067346681434     -1.76813599847490
