12
Coordinates from ORCA-job run
  C   0.64499039701466     -0.08477717916261     -0.11154803571592
  C   -0.69174272347459      0.12746956219259      0.07426471534815
  N   1.38356909749521      0.76672739476030     -0.98019218580520
  H   1.70752895526436      0.26542162288090     -1.79884767297872
  H   2.18841373192560      1.16159228032670     -0.51017187304600
  C   1.25385899268326     -1.18001971904581      0.57389845072094
  N   1.73936588246939     -2.08346679243953      1.15616385074829
  N   -1.54158798781207     -0.70096424390505      0.76781540994743
  H   -1.10279809134676     -1.38561536000421      1.36660542160249
  H   -2.36028019377075     -0.26635079902578      1.16253409967485
  C   -1.31558400176935      1.24299225198944     -0.58260045173414
  N   -1.90573405867895      2.13599098143306     -1.06992172876216
