14

C	-0.326456	0.010297	-1.485213
C	0.0	0.0	0.0
F	0.121326	1.193601	-2.054479
H	1.09618	0.0	0.0
H	0.206608	-0.811803	-1.970767
C	-1.773011	-0.086513	-1.781157
N	-2.925608	-0.15241	-1.998079
C	-0.489578	-1.239039	0.571684
N	-0.883069	-2.243855	1.0413
C	-0.527678	1.227994	0.73023
H	-0.0824	2.115348	0.279081
H	-0.205182	1.188947	1.772176
H	-1.619927	1.314186	0.700954
F	2.539963	0.0	0.0
