14

C	-0.459076	0.086714	-1.443679
C	0.0	0.0	0.0
F	-0.114992	-1.060329	-2.145798
H	1.095601	0.0	0.0
H	-1.551285	0.178978	-1.521819
C	0.146688	1.247142	-2.124759
N	0.607959	2.161727	-2.695528
C	-0.564277	-1.188501	0.609105
N	-1.048004	-2.139024	1.106902
C	-0.395767	1.260418	0.771042
H	0.160206	2.109502	0.369216
H	-1.470324	1.478872	0.737884
H	-0.09636	1.146314	1.814099
F	2.531313	0.0	0.0
