14

C	-0.328529	-0.00233	-1.485017
C	0.0	0.0	0.0
F	0.120025	1.175403	-2.065286
H	1.096108	0.0	0.0
H	0.202646	-0.829328	-1.964457
C	-1.775504	-0.099749	-1.777054
N	-2.92871	-0.165872	-1.990094
C	-0.489955	-1.233731	0.583183
N	-0.883392	-2.23425	1.062026
C	-0.525936	1.234608	0.720139
H	-0.081153	2.11775	0.260169
H	-1.618277	1.320558	0.692477
H	-0.200784	1.20501	1.761648
F	2.540745	0.0	0.0
