17

C	0.0	0.0	0.0
C	-0.269195	-0.213718	-1.557666
Br	1.968394	0.0	0.0
H	0.495122	0.364536	-2.071075
N	-0.500559	1.325891	0.274318
H	-1.524328	1.150405	0.292396
H	-0.204652	1.594994	1.208865
N	-0.484385	-1.085628	0.800779
H	-1.506726	-1.031877	0.651068
H	-0.3125	-0.851107	1.77429
N	-1.543178	0.090731	-2.115992
H	-2.27808	-0.093765	-1.404431
H	-1.557641	1.084588	-2.303578
N	0.044199	-1.645031	-1.938612
O	1.075419	-1.851015	-2.584101
O	-0.777679	-2.5031	-1.645689
F	-2.940791	0.0	0.0
