17

C	0.0	0.0	0.0
C	-0.498769	0.032712	-1.453091
Br	1.969046	0.0	0.0
H	-1.591983	0.09968	-1.325987
N	-0.50859	1.177945	0.64593
H	-0.218449	1.176645	1.618464
H	-1.534096	1.00818	0.591725
N	-0.465166	-1.281807	0.51301
H	-0.153992	-1.367219	1.476183
H	-1.493224	-1.125533	0.509331
N	-0.037	-1.100362	-2.227763
H	-0.708076	-1.260106	-2.968398
H	-0.070825	-1.890045	-1.590822
N	-0.127558	1.255574	-2.25417
O	0.691222	2.080184	-1.868663
O	-0.721066	1.31768	-3.336697
F	-2.845737	0.0	0.0
