14

C	0.0	0.0	0.0
C	-0.274103	0.048078	-1.535176
Cl	1.785841	0.0	0.0
H	0.347218	0.853811	-1.952785
H	-0.337603	-0.959043	0.393002
C	-0.677362	1.050334	0.763781
N	-0.717311	1.96123	1.525537
C	-1.677563	0.380127	-1.858551
N	-2.465985	0.753537	-2.663324
C	0.117853	-1.259443	-2.25293
H	-0.472724	-2.100282	-1.863817
H	1.179452	-1.468186	-2.118682
H	-0.063247	-1.135548	-3.324974
H	-2.139766	0.0	0.0
