14

C	0.0	0.0	0.0
C	-0.565442	-0.036105	-1.415942
Cl	1.782667	0.0	0.0
H	-1.682485	-0.107431	-1.114706
H	-0.349932	-0.880319	0.541618
C	-0.44564	1.18194	0.753063
N	-0.592622	2.137098	1.423526
C	-0.126588	-1.229482	-2.108795
N	0.202858	-2.193747	-2.698526
C	-0.292002	1.229808	-2.217752
H	-0.794204	2.07246	-1.735111
H	0.778142	1.447299	-2.291476
H	-0.69194	1.126209	-3.228176
H	-2.768339	0.0	0.0
