13

C	-0.355866	0.070735	-1.461346
C	0.0	0.0	0.0
Cl	-2.122745	0.257812	-1.784367
H	1.094992	0.0	0.0
H	0.145558	0.894639	-1.965518
H	-0.402016	-0.914553	0.436838
N	0.071735	-1.17096	-2.198785
O	0.648175	-1.005262	-3.270972
O	-0.200628	-2.25334	-1.689649
N	-0.397294	1.180829	0.753823
H	0.331874	1.877554	0.656716
H	-1.277914	1.566074	0.437617
H	2.862739	0.0	0.0
