13

C	-0.424095	0.048321	-1.452508
C	0.0	0.0	0.0
Cl	-2.204191	0.211558	-1.667857
H	1.093366	0.0	0.0
H	0.042613	0.882978	-1.970467
H	-0.326762	0.954816	0.429252
N	-0.00181	-1.170942	-2.221208
O	-0.513891	-2.245371	-1.913452
O	0.848312	-1.006649	-3.092378
N	-0.477553	-1.113927	0.796039
H	0.205272	-1.858087	0.73034
H	-1.358533	-1.471192	0.450771
H	2.88588	0.0	0.0
