13

C	-0.410883	-0.007424	-1.455685
C	0.0	0.0	0.0
Cl	-2.193225	0.077777	-1.697394
H	1.093465	0.0	0.0
H	0.026231	0.833208	-1.989456
H	-0.329986	0.967842	0.395874
N	0.071451	-1.226193	-2.190381
O	0.876869	-1.035268	-3.098392
O	-0.351361	-2.320494	-1.826674
N	-0.472763	-1.086488	0.834766
H	0.19115	-1.846601	0.762769
H	-1.373619	-1.428723	0.526348
H	2.884285	0.0	0.0
