17

C	0.0	0.0	0.0
C	-0.686821	-0.059977	-1.350946
Cl	1.760524	0.0	0.0
H	-1.821711	-0.057966	-1.013634
N	-0.576264	1.054919	0.690308
H	-0.273309	1.046795	1.656744
H	-1.613303	0.86912	0.633266
N	-0.298837	-1.386448	0.744946
O	-0.350922	-2.415423	0.085514
O	-0.388723	-1.305966	1.962547
N	-0.415042	-1.241339	-2.218898
O	0.749398	-1.40514	-2.581635
O	-1.373368	-1.927694	-2.55319
N	-0.400114	1.104343	-2.2223
O	-0.953225	1.061389	-3.324918
O	0.316128	2.019256	-1.826091
H	-2.87811	0.0	0.0
