14
Coordinates from ORCA-job run
  C   0.78061829381897     -0.29525107598153     -0.01199489348493
  C   -0.69992629466382     -0.34891957660721     -0.45515569853325
  Cl  1.70858097869986     -1.01159289643306     -1.43481929461037
  H   -0.98236482000015     -1.38290859027164     -0.65917275202997
  N   1.13585353024433      1.01898538590581      0.33778739226642
  H   1.00467995236761      1.67936423345149     -0.41944876995251
  H   2.07210636878690      1.08639594741450      0.71454634573539
  C   1.02343560807404     -1.19727150658633      1.11597842270103
  N   1.26485839308012     -1.90734274772900      2.02039163161578
  C   -0.92764143414088      0.50333254772293     -1.61334385961122
  N   -1.09380244842112      1.19273677435936     -2.54973590975829
  N   -1.56603826820960      0.11772322620811      0.70207475119384
  O   -1.81817948914606     -0.74764768998540      1.53273754413184
  O   -1.90418037049019      1.29239596853196      0.72015509033626
