14
Coordinates from ORCA-job run
  C   0.74247564486314     -0.22579419824293      0.13830143909662
  C   -0.63263422922866     -0.02699031963847     -0.53449915298588
  Cl  1.06730670918947     -2.02338824068316      0.12482130922511
  H   -0.56018078958742     -0.35810583915118     -1.57326888347286
  N   1.68368498076132      0.54019322866809     -0.59496991920408
  H   2.57422280465594      0.60846076684257     -0.11851175870768
  H   1.82112054667635      0.17171311944071     -1.52876973212208
  C   0.75069112594468      0.21002241193844      1.53577313780514
  N   0.84678165689405      0.58560093458988      2.64490588976680
  C   -1.05300597666444      1.36475401245639     -0.45199483950857
  N   -1.41316907900374      2.48125423204058     -0.39348153310725
  N   -1.69114787026480     -0.90051071363195      0.09921946334915
  O   -1.93493064009684     -0.68253364359735      1.27895305943343
  O   -2.20221488413906     -1.74267575103164     -0.62847847956787
