14
Coordinates from ORCA-job run
  C   0.81739147448846     -0.31912486351542     -0.13279513093503
  C   -0.69366148121388     -0.36046369526669     -0.45643240702685
  Cl  1.62517383368308     -1.26248385463217     -1.42463224015932
  H   -1.00060871081820     -1.39362555280032     -0.62434668188444
  N   1.31209710566558      1.01973566833990     -0.17500138200717
  H   2.30303616351241      1.04696292580915      0.03241379212658
  H   0.79938355908070      1.61103226776352      0.46986777492594
  C   1.03622404490272     -1.04017959500638      1.13601960041179
  N   1.18980188986537     -1.56377762289755      2.17808302322397
  C   -1.02213840653561      0.47897276985128     -1.60026704752850
  N   -1.34058070756237      1.12990964990715     -2.52425524870011
  N   -1.48772130512382      0.10725692779257      0.74910346851195
  O   -1.26667048013965      1.24864299361886      1.14263032379620
  O   -2.26972697980481     -0.70085801896389      1.23161215524499
