14
Coordinates from ORCA-job run
  C   0.64932126274135     -0.15454701380512      0.41292117683478
  C   -0.72482308867660      0.30434595560014     -0.13717052874735
  Cl  0.48340285209250     -1.63812546211592      1.37993208651346
  H   -0.59591306918603      1.28366250282658     -0.60681644867292
  N   1.51310724533860     -0.43575351507205     -0.69821666561728
  H   2.41262341942387     -0.76995584776590     -0.37347436172356
  H   1.64569936562864      0.38464924909074     -1.28046659535634
  C   1.11942261196927      0.91405868065848      1.31546480955338
  N   1.53379335243520      1.80202374471411      1.96637532654191
  C   -1.74834651635402      0.36791454215385      0.89257023590221
  N   -2.57905913892855      0.45417335609536      1.71819822535023
  N   -1.14493155423496     -0.61942899442457     -1.25892685802623
  O   -1.67533851184001     -1.67480590446186     -0.94441227119448
  O   -0.88795823040928     -0.21621129349385     -2.38697813135782
