18

C	0.0	0.0	0.0
C	-0.249263	-0.0701	-1.563646
Br	1.967848	0.0	0.0
H	0.565679	0.497238	-2.020863
C	-0.456864	1.343969	0.551946
H	-0.134661	1.440283	1.59405
H	-1.552235	1.297472	0.497895
H	-0.05379	2.188504	-0.014219
N	-0.609639	-1.122747	0.634091
H	-0.478162	-1.029397	1.638146
H	-1.629924	-0.924857	0.448511
C	-1.543446	0.509989	-2.152209
H	-2.422596	0.109509	-1.64324
H	-1.546977	1.591294	-1.990262
H	-1.534535	0.327984	-3.232183
C	-0.057061	-1.450414	-2.027829
N	0.117504	-2.498986	-2.528393
F	-3.017224	0.0	0.0
