18

C	0.0	0.0	0.0
C	-0.516125	-0.037771	-1.46125
Br	1.971144	0.0	0.0
H	-1.610444	0.055655	-1.257941
C	-0.425147	1.310353	0.650934
H	-0.072232	1.320095	1.684067
H	-1.519301	1.29504	0.617117
H	-0.020743	2.174204	0.119595
N	-0.526607	-1.072374	0.797108
H	-1.553804	-0.896269	0.700536
H	-0.308368	-1.962865	0.362224
C	-0.23319	-1.336575	-2.214883
H	-0.645851	-1.279178	-3.225198
H	-0.719876	-2.173471	-1.710321
H	0.840778	-1.532172	-2.287047
C	-0.058395	1.100447	-2.248435
N	0.298107	1.998892	-2.918613
F	-2.884653	0.0	0.0
