18

C	0.0	0.0	0.0
C	-0.246851	-0.059835	-1.56444
Br	1.967895	0.0	0.0
H	0.562891	0.519006	-2.015223
C	-0.455681	1.34277	0.557573
H	-1.55103	1.298385	0.503314
H	-0.134139	1.435234	1.599881
H	-0.052975	2.189473	-0.006342
N	-0.612779	-1.124553	0.627122
H	-0.479185	-1.038828	1.631847
H	-1.632559	-0.922726	0.4426
C	-1.546242	0.511458	-2.15268
H	-2.422071	0.109277	-1.639016
H	-1.540107	0.319973	-3.230338
H	-1.552964	1.593991	-1.998859
C	-0.040758	-1.433771	-2.038418
N	0.131587	-2.484225	-2.534358
F	-3.020857	0.0	0.0
