18

C	0.0	0.0	0.0
C	-0.364883	0.198785	-1.519107
Br	2.047926	0.0	0.0
H	0.567185	0.372292	-2.062285
C	-0.357831	1.203111	0.863366
H	-0.00235	1.023958	1.882343
H	-1.452449	1.224901	0.844497
H	0.080429	2.138335	0.509436
N	-0.540307	-1.22218	0.477035
H	-0.378435	-1.269932	1.479663
H	-1.572088	-1.026682	0.33493
C	-1.312942	1.365982	-1.841305
H	-2.251234	1.167425	-1.317934
H	-1.461578	1.40558	-2.924971
H	-0.87176	2.314124	-1.525999
C	-0.912404	-1.030352	-2.106875
N	-1.321681	-1.947274	-2.715964
F	-2.842308	0.0	0.0
