18

C	0.0	0.0	0.0
C	-0.592742	0.072932	-1.403238
Br	2.033022	0.0	0.0
H	-1.69642	0.131996	-1.078546
C	-0.491127	1.158022	0.837637
H	-1.587701	1.015866	0.811964
H	-0.084719	1.098973	1.851236
H	-0.203742	2.113685	0.396593
N	-0.395028	-1.244966	0.584743
H	-0.546267	-1.15049	1.578619
H	0.265623	-1.98394	0.394857
C	-0.379461	-1.181505	-2.242968
H	0.682665	-1.424017	-2.354537
H	-0.806913	-1.045378	-3.238927
H	-0.901163	-2.006921	-1.756747
C	-0.173229	1.269372	-2.114541
N	0.139982	2.232688	-2.713284
F	-2.927054	0.0	0.0
