17

C	-0.374764	-0.0871	-1.475104
C	0.0	0.0	0.0
F	-1.731048	-0.56336	-1.577106
H	1.093664	0.0	0.0
N	-0.279875	1.185976	-2.100094
H	-0.51557	1.100832	-3.081642
H	-0.917817	1.841428	-1.664103
C	0.531909	-1.095983	-2.142566
H	1.555229	-0.846104	-1.844404
H	0.285963	-2.087906	-1.767043
H	0.407544	-1.074745	-3.230797
N	-0.377369	-1.233555	0.690398
H	-1.313597	-1.180915	1.070133
H	0.284613	-1.370233	1.443357
C	-0.55233	1.198487	0.628065
N	-1.026047	2.139	1.154483
F	2.614039	0.0	0.0
