17

C	-0.183663	-0.016632	-1.526215
C	0.0	0.0	0.0
F	0.048715	1.32193	-1.961309
H	1.10346	0.0	0.0
N	0.835742	-0.888902	-1.99947
H	0.937474	-0.803446	-3.002142
H	1.716424	-0.6396	-1.511955
C	-1.56276	-0.371803	-2.034291
H	-1.859817	-1.348467	-1.655706
H	-1.562551	-0.386181	-3.129187
H	-2.282126	0.376452	-1.694301
N	-0.523285	-1.265869	0.570941
H	-0.158478	-1.31488	1.518401
H	-0.012497	-1.984212	0.059422
C	-0.633232	1.143539	0.628251
N	-1.138916	2.052171	1.176508
F	2.668788	0.0	0.0
