17

C	-0.332584	-0.009181	-1.491122
C	0.0	0.0	0.0
F	0.108595	-1.293408	-1.940049
H	1.093557	0.0	0.0
N	-1.732123	0.110253	-1.725418
H	-2.192589	-0.558634	-1.117129
H	-1.937187	-0.125799	-2.689307
C	0.52453	1.000299	-2.219475
H	0.183973	2.010557	-1.98148
H	1.548275	0.852755	-1.858378
H	0.464669	0.845393	-3.301439
N	-0.612421	-1.191692	0.630173
H	-0.560361	-1.068668	1.635422
H	0.023982	-1.950794	0.407886
C	-0.505258	1.210685	0.627471
N	-0.889967	2.168173	1.191772
F	2.639403	0.0	0.0
