17

C	-0.058752	-0.019426	-1.537657
C	0.0	0.0	0.0
F	-1.385063	0.072397	-1.998986
H	1.096316	0.0	0.0
N	0.690346	1.09335	-2.08145
H	1.611469	1.002175	-1.637753
H	0.279798	1.952235	-1.722949
C	0.561265	-1.302375	-2.047807
H	-0.027741	-2.173391	-1.7526
H	0.620748	-1.254071	-3.135793
H	1.562054	-1.355341	-1.610197
N	-0.54766	-1.14005	0.720581
H	0.165628	-1.856834	0.75885
H	-1.355693	-1.507551	0.232638
C	-0.543434	1.253429	0.512091
N	-0.975134	2.275898	0.900997
F	2.648268	0.0	0.0
