17

C	-0.340225	0.024852	-1.48845
C	0.0	0.0	0.0
F	0.099332	-1.250796	-1.970182
H	1.099828	0.0	0.0
N	-1.739656	0.14998	-1.715035
H	-1.947459	-0.059863	-2.68448
H	-2.199041	-0.533338	-1.121293
C	0.514987	1.045547	-2.199166
H	0.182883	2.053516	-1.944115
H	0.450098	0.906539	-3.282569
H	1.538619	0.889184	-1.845293
N	-0.604554	-1.209373	0.607992
H	0.00064	-1.965271	0.302828
H	-0.467129	-1.137078	1.610379
C	-0.503274	1.196357	0.65597
N	-0.868207	2.16217	1.218396
F	2.638468	0.0	0.0
