16

C	-0.42746	-0.000874	-1.440377
C	0.0	0.0	0.0
F	0.067202	-1.083714	-2.048659
H	1.095843	0.0	0.0
N	-1.948136	-0.041307	-1.630281
O	-2.612763	0.504746	-0.759393
O	-2.359143	-0.595985	-2.640791
N	0.038553	1.207321	-2.259559
O	-0.822768	1.986156	-2.648226
O	1.235817	1.235613	-2.485917
C	-0.505896	-1.189293	0.643943
N	-0.899159	-2.191977	1.115791
N	-0.375518	1.219767	0.736113
O	-0.700514	1.105126	1.913738
O	-0.241176	2.282378	0.13271
F	2.393826	0.0	0.0
