16

C	-0.365995	0.152706	-1.447233
C	0.0	0.0	0.0
F	0.421809	0.999267	-2.10596
H	1.11414	0.0	0.0
N	-0.251796	-1.179437	-2.195418
O	-0.887452	-1.247479	-3.243827
O	0.525016	-2.010169	-1.747862
N	-1.816595	0.584301	-1.687278
O	-2.025853	1.493201	-2.47257
O	-2.643768	-0.068894	-1.061579
C	-0.519696	-1.175397	0.652262
N	-0.911968	-2.135396	1.206511
N	-0.380879	1.211337	0.756309
O	-0.617933	2.233267	0.108254
O	-0.367492	1.135109	1.980482
F	2.388151	0.0	0.0
