16

C	-0.398629	-0.017252	-1.431406
C	0.0	0.0	0.0
F	-0.046674	-1.180585	-2.011278
H	1.11519	0.0	0.0
N	-1.90097	-0.000372	-1.764481
O	-2.534474	-0.835603	-1.078402
O	-2.212002	0.297357	-2.947363
N	0.140474	1.115979	-2.293644
O	-0.239902	2.248109	-1.926319
O	0.396319	0.820656	-3.487961
C	-0.284719	-1.20479	0.87035
N	0.151286	-1.52436	1.878055
N	-0.524615	1.100234	0.858304
O	-1.779006	1.136019	1.004449
O	0.274665	1.471994	1.759095
F	2.478131	0.0	0.0
