16

C	-0.4742	-0.008057	-1.480237
C	0.0	0.0	0.0
F	-0.1371	-1.195901	-2.072684
H	1.113392	0.0	0.0
N	-1.952772	0.105239	-1.648613
O	-2.278886	0.303934	-2.90177
O	-2.552223	-0.918097	-1.090074
N	0.228441	1.093391	-2.206464
O	-0.112788	2.263992	-1.774899
O	1.529467	0.860434	-2.27777
C	-0.335981	-1.338846	0.684657
N	0.298227	-2.341975	0.414959
N	-0.47958	1.168339	0.782533
O	0.257285	1.329542	1.857858
O	-1.764697	1.125027	1.006939
F	2.493684	0.0	0.0
