13
Coordinates from ORCA-job run
  C   0.91961752394250      0.15361544920836     -0.31278855040764
  C   -0.48939145093869     -0.39289191689723     -0.54554981755216
  Br  2.16786351513450     -1.25422349898954     -0.80920283340807
  H   -0.64894879314834     -0.66523646847264     -1.59458160564584
  H   1.09393425652000      0.96560371705609     -1.01971429828537
  N   1.05683240284201      0.54393430998638      1.06904220530960
  H   1.08107653622136      1.55215701276483      1.14336148002265
  H   1.88130017168106      0.15374245064037      1.50121607096463
  N   -1.49985083844733      0.71593520035391     -0.27438543866109
  O   -1.07662827256202      1.86705130060783     -0.30601959123578
  O   -2.66186868174067      0.36965349813900     -0.12335615133663
  C   -0.79709480196354     -1.53132830414746      0.31045827817907
  N   -1.02684156754083     -2.47901275024989      0.96352025205663
