13
Coordinates from ORCA-job run
  C   0.92166296464695      0.17246653905984     -0.25861264196642
  C   -0.45739622922590     -0.41506640329807     -0.55720207514876
  Br  2.24091871486833     -1.29226556001429     -0.64738152268667
  H   -0.49039758158594     -0.80539974169613     -1.57612449523012
  H   1.14632826701716      0.93168798690345     -1.00511577018222
  N   0.95671879878237      0.71698533387888      1.03433245577607
  H   1.78407673977550      1.27153882749356      1.20408648846480
  H   0.84598126137102      0.02503278376602      1.76563143964885
  N   -1.44226599490884      0.74422184470467     -0.52302963614520
  O   -1.24840833955193      1.59035969601639     -1.38797361384206
  O   -2.30914823645520      0.75292355292259      0.33778962149460
  C   -0.84094922990769     -1.43481816528582      0.40945765433115
  N   -1.10612113482583     -2.25766669445108      1.20414209548597
