13
Coordinates from ORCA-job run
  C   0.89073608109139     -0.10198601755994      0.11904395220484
  C   -0.54294577865466     -0.15138090536212     -0.44416926798186
  Br  0.92843155287995     -0.82347640887365      1.92160307840261
  H   -0.59887248481626      0.55704152665992     -1.27785667821945
  H   1.47704426362524     -0.82329915446921     -0.45950542651374
  N   1.40957751939583      1.24711271495852      0.08600985999890
  H   2.09596451524029      1.38962709838247      0.81409659546127
  H   1.86020785800447      1.40595659102091     -0.80901383869844
  N   -1.60745325370687      0.33697445149976      0.52872268786583
  O   -2.66030310636834     -0.29138602225754      0.54865951920931
  O   -1.34228193371617      1.34534690938573      1.16238512233624
  C   -0.87252028810683     -1.49583450544408     -0.90267993765159
  N   -1.03858494486802     -2.59269627794078     -1.28729566641392
