15
Coordinates from ORCA-job run
  C   -0.55230840645611      0.22092951667917     -0.22616171826709
  C   0.70887859255161     -0.15999878961077      0.16099033716501
  N   -0.85122026562108      1.26843835253345     -1.03408921266777
  H   -0.12242223388558      1.93654451330552     -1.22770947738477
  H   -1.80757845814212      1.57661326213040     -1.05886694908418
  C   -1.73663149903145     -0.60814619595894      0.18093657059037
  H   -1.42852214867398     -1.43037129361552      0.81845731465843
  H   -2.45946571479310      0.01606121961475      0.71596200593915
  H   -2.23256745213143     -1.00259885565966     -0.71033906364497
  N   1.87553881056474      0.62993149817190     -0.18033113587161
  O   2.96399333095769      0.23909903431865      0.25376204196489
  O   1.74968322682338      1.65062238952913     -0.87680214372866
  N   0.93324489806038     -1.31198165194018      0.94334536863764
  H   1.42624537674958     -1.06307600366000      1.79333285980226
  H   1.53313194302747     -1.96106699583790      0.44651320189129
