15
Coordinates from ORCA-job run
  C   -0.54940959211966      0.30934189716091     -0.08599627820035
  C   0.69880683783501     -0.25658700473271     -0.00220227464578
  N   -0.84495048655571      1.49297940098138     -0.67971283095675
  H   -1.73925825438889      1.90269308850900     -0.47293215733757
  H   -0.07838480841202      2.10199555795981     -0.91788022931984
  C   -1.74277697562268     -0.44235761865797      0.42968208987958
  H   -2.27219658865345      0.16553046171037      1.17035163472941
  H   -1.43975166562164     -1.38037771953863      0.88331670565365
  H   -2.43499051282007     -0.64176482110206     -0.39312677081285
  N   1.88192730385474      0.44972842696365     -0.45280623011886
  O   1.77125050129814      1.57115381356763     -0.97512694910600
  O   2.96872629593749     -0.11288709775181     -0.28543895379333
  N   0.90250856878416     -1.53135314289737      0.56625601861659
  H   1.31402683510085     -2.15763578331940     -0.11661445584348
  H   1.56447254138375     -1.46845945885279      1.33123068125557
