15
Coordinates from ORCA-job run
  C   -0.55353955240062      0.25074151560340     -0.12213451655706
  C   0.68007234014789     -0.20288592866493      0.17794341835366
  N   -0.79437823846211      1.43131604013114     -0.82266364586731
  H   -0.02953392598235      1.76581102283357     -1.39135724351301
  H   -1.65394317190242      1.39840224588807     -1.35163762698812
  C   -1.77859187049384     -0.46009765458254      0.36058798497385
  H   -2.44316080213013      0.25215259614028      0.85745203138178
  H   -1.51162890350669     -1.25132981824581      1.05669676627292
  H   -2.32234797525472     -0.89748072864807     -0.48297698587629
  N   1.84107049742352      0.51433586752432     -0.39103723054936
  O   2.56993774228812     -0.13608210868188     -1.14524028523616
  O   2.03130855579541      1.68689972776043     -0.05939401729785
  N   0.97518511105705     -1.30006689980389      1.00418632871318
  H   1.52141593311550     -1.02230473480899      1.81017958615648
  H   1.46713426030538     -2.02841114244511      0.50139543603330
