15
Coordinates from ORCA-job run
  C   -0.55361570632935      0.24487347183752     -0.22534736380905
  C   0.70482164591466     -0.17228549501934      0.10078540918448
  N   -0.87888684833227      1.42997632355094     -0.81413061911964
  H   -1.82636239727929      1.74293032608364     -0.67090510657747
  H   -0.14504879735084      2.12573753606802     -0.83876323221967
  C   -1.70766026821621     -0.66622389475788      0.05822721911445
  H   -1.36215414224644     -1.69665798554271      0.07084472249039
  H   -2.14470675749158     -0.45545378628810      1.04038202628089
  H   -2.48765108691291     -0.55114291763414     -0.70147264821330
  N   1.87383500324854      0.61899177159918     -0.20584489195882
  O   1.73142732657996      1.75827965187450     -0.68714719382666
  O   2.99361143253948      0.14768236028744      0.06585456002877
  N   0.93696895074175     -1.41949338670883      0.72951715035961
  H   1.80204447823406     -1.77792700630102      0.34599937784366
  H   1.06437716690045     -1.32928696904919      1.73300059042235
