15
Coordinates from ORCA-job run
  C   -0.49214753622416      0.27698476671567     -0.03741778563716
  C   0.77264110657336     -0.17509229798183      0.18009820498960
  N   -0.93602672305366      1.35663564801046      0.73061457924428
  H   -1.93904556307558      1.45704262366857      0.74231201062064
  H   -0.54832156541831      1.38065653370294      1.66414036384725
  C   -1.42543019977984     -0.17448663551421     -1.12406987207811
  H   -1.02312214293773      0.06125670826230     -2.10959222468408
  H   -1.57728824766426     -1.25334450277453     -1.10119271808499
  H   -2.39253790319313      0.32176208845798     -1.01404999044225
  N   1.29484807239286     -1.35053794051090     -0.49319415735730
  O   2.24613358503430     -1.90617363211266      0.06047569266083
  O   0.75545264253887     -1.75151282549391     -1.52782184801011
  N   1.69481984465947      0.43279022784898      1.02579936992192
  H   2.01918532295700     -0.09020841154637      1.82234610904670
  H   1.54983930719081      1.41522764926749      1.18255226596277
