15
Coordinates from ORCA-job run
  C   -0.47914223457245      0.10380842446712     -0.27297565221720
  C   0.80164598022720     -0.15279031618520      0.09215063456584
  N   -0.85388299379751      0.89572464726787     -1.34320794553886
  H   -0.11221896190652      1.40090454065429     -1.80516209667545
  H   -1.69136118589199      1.43810539109853     -1.19880723263282
  C   -1.61905732152268     -0.50737299701024      0.49179838853096
  H   -1.85096846505522      0.10063471194942      1.37209517086491
  H   -2.51255089631193     -0.56995935190737     -0.13160135049994
  H   -1.37580897984469     -1.51063327598657      0.83992725878082
  N   1.85910672395698      0.68018999785104     -0.49087597109166
  O   1.86668123488934      0.85148650070362     -1.71628492176314
  O   2.62882829034522      1.22099251295929      0.29820080576694
  N   1.27858789492634     -1.06570097370435      1.05032347657847
  H   0.99738230979965     -0.86203369943484      1.99890458515866
  H   1.06175860475827     -2.02335611272261      0.81551485017246
