15
Coordinates from ORCA-job run
  C   -0.59495825362702     -0.03617817189387     -0.23605529977194
  C   0.74885575922756     -0.08752836551145      0.00967397375672
  N   -1.03600990292044     -0.50533029475704     -1.44322914048640
  H   -0.30238852180691     -0.63325494123575     -2.12713762412792
  H   -1.90940719077518     -0.13828917485359     -1.78220974910272
  C   -1.66304965907099      0.40339436260072      0.72063364225816
  H   -1.71288030092266     -0.27019167172455      1.57623944801451
  H   -1.45323472164414      1.39388013122802      1.12133657762004
  H   -2.63414100387421      0.40798779556026      0.22107909121759
  N   1.32800490488040      0.30310343592424      1.27671293476105
  O   0.59369458815937      0.60674139042499      2.22149755249181
  O   2.56380046684030      0.31476162092090      1.33142638143282
  N   1.62861078894633     -0.51331023988930     -1.01201165989666
  H   2.38653988772897      0.15253698825453     -1.11021643219779
  H   2.05656315885863     -1.40032286504810     -0.76773969596927
