15
Coordinates from ORCA-job run
  C   -0.50277177991134      0.22763612377804     -0.03873104806209
  C   0.77117855052358     -0.15514015501321      0.25111098409584
  N   -1.06216276441607      1.07488048526000      0.96688412877193
  H   -2.07060995539050      1.09932104748353      0.90518160638753
  H   -0.70388112179804      2.02266007920364      0.91381796026433
  C   -1.36400275798165     -0.15125289945547     -1.21074555181751
  H   -0.79026441140050     -0.26463048943345     -2.12500310905091
  H   -2.12032160917361      0.62327243863559     -1.35679195629960
  H   -1.88626884228853     -1.09872609450524     -1.03395162964226
  N   1.54982464229063     -1.06568840645707     -0.58303433297894
  O   1.13254165604366     -1.37740691712161     -1.69702924249321
  O   2.60710684585864     -1.48046745357818     -0.09786230487948
  N   1.46352238784895      0.31417309654079      1.35846360210470
  H   0.80078725264939      0.56754460718735      2.08219858234083
  H   2.17332190714539     -0.33617546252471      1.66349231125884
