15
Coordinates from ORCA-job run
  C   -0.52591539668735      0.27252242413405     -0.17654136151773
  C   0.75903552825897     -0.15220403308255      0.02807524080827
  N   -0.91537298437061      1.33536574988426     -0.95328920795182
  H   -0.22024228563497      1.68493832339600     -1.59433827211162
  H   -1.86060579499734      1.29475257434465     -1.29687861162394
  C   -1.61904980538786     -0.43340661642545      0.57815276770494
  H   -2.59711850706215      0.00076156866952      0.36705416448220
  H   -1.65582160797699     -1.49759886814393      0.32926046041581
  H   -1.45663472713467     -0.34559679950151      1.65726718484079
  N   1.88432394580514      0.44439538827694     -0.63186208455858
  O   3.00430043373011      0.01095990791631     -0.33778640949282
  O   1.69479082609088      1.33729886918942     -1.47519919578487
  N   1.11902185507028     -1.27413186202977      0.79556612668080
  H   1.99643818450573     -1.12466579634315      1.27445935560879
  H   0.39385033579083     -1.55339083028480      1.43705984249978
