15
Coordinates from ORCA-job run
  C   -0.60206509512138      0.21754844174091     -0.03776454371548
  C   0.72051417465025     -0.01197436423391      0.22159291285821
  N   -1.19149146973911      1.28701895414982      0.57816672418008
  H   -0.65202746733155      1.67180381154562      1.34174817218671
  H   -2.18923869500805      1.25000555894710      0.70185511237545
  C   -1.46707875167698     -0.53607176873478     -1.00377234860306
  H   -2.49714726326326     -0.17870785421296     -0.94148358783528
  H   -1.43994275780299     -1.60678120227032     -0.80735403582985
  H   -1.11016608670563     -0.40125587968169     -2.02486276678193
  N   1.47478007297267     -1.06148499845261     -0.42782900399743
  O   2.62979593757964     -1.23579588781841     -0.02038704584071
  O   0.95455950190340     -1.72632027941932     -1.32875280603942
  N   1.39063344891892      0.78270453906753      1.18025322986468
  H   2.09284254940917      1.36379429575380      0.73415683844982
  H   1.88603190121489      0.18651663361922      1.83343314872819
