15
Coordinates from ORCA-job run
  C   -0.56284297103385      0.30725017365093     -0.00002382151895
  C   0.70090525341827     -0.16408022708171      0.22400659722951
  N   -1.01831665656876      1.30815396447960      0.81278156492900
  H   -2.01520956930893      1.39861810972003      0.91265385290095
  H   -0.46107753370991      1.45010789890066      1.64425392487890
  C   -1.48511841817427     -0.10135300137805     -1.10995470845501
  H   -1.61976019860550     -1.18158020230638     -1.13570240940386
  H   -2.45483107247599      0.38614430615893     -0.98927870460287
  H   -1.06917804409968      0.17961070335200     -2.07757883970788
  N   1.32334474321357     -1.16466688541253     -0.61476919404737
  O   0.75122629930841     -1.55332499593235     -1.63739225942725
  O   2.42341598809335     -1.58587878167126     -0.23688137428977
  N   1.43755974223913      0.31736817807205      1.33067578124916
  H   2.23290742495124      0.86511971493349      1.01910400353547
  H   1.81597501275291     -0.46248895548540      1.85610558672997
