15
Coordinates from ORCA-job run
  C   -0.57993054637238      0.26690995198315     -0.06227265005867
  C   0.72159535676623     -0.04821179763545      0.21275928677728
  N   -1.02807256560816      1.49970429730825      0.32461939243212
  H   -1.81291827870225      1.87905298399057     -0.17763586538148
  H   -0.29193931562708      2.14575813886587      0.57529367759876
  C   -1.60731918601190     -0.63687228147215     -0.67637654851817
  H   -1.25295956064089     -1.05769359810071     -1.61608353730535
  H   -2.53547535254747     -0.08744394407130     -0.84734157695876
  H   -1.81617657947671     -1.48191190366059     -0.02022978689644
  N   1.29031581901925     -1.34640151385970     -0.07703099733882
  O   0.56711266544901     -2.25574608787882     -0.49460097311765
  O   2.50713978359030     -1.46393584474928      0.11234560982502
  N   1.57138924583827      0.93071002379091      0.77782595397807
  H   1.83340322007098      0.67225261909258      1.72341488957750
  H   2.43283529425277      0.98382895639667      0.24631312538661
