15
Coordinates from ORCA-job run
  C   -0.57591225011326      0.28182222756511      0.00531796625309
  C   0.69465220547021     -0.16261931993363      0.24397178515606
  N   -1.09818027624073      1.20198642539015      0.87237802594996
  H   -1.82910446977836      1.79672178170230      0.51975984905134
  H   -0.41234212093480      1.63418921299685      1.47654605863239
  C   -1.50333942461045     -0.19858662624740     -1.07094133090071
  H   -2.42065021628061      0.39396235480829     -1.06699624144314
  H   -1.76193984945659     -1.24606171128957     -0.91578100120132
  H   -1.03492250539331     -0.13980626101484     -2.05224677332829
  N   1.32677335752271     -1.19037647304506     -0.55408076975805
  O   0.67853941452835     -1.78022297891566     -1.42366499976798
  O   2.51821889498805     -1.41606083432548     -0.30941489085673
  N   1.44808364236326      0.41108697077337      1.29405161305395
  H   1.60749075309072     -0.26782820973639      2.03109905576018
  H   2.36263284484482      0.68179344127195      0.95100165339925
