15
Coordinates from ORCA-job run
  C   -0.57829341444402      0.26368458905962     -0.08398766269927
  C   0.71388501939016     -0.04452399568910      0.23880872802382
  N   -1.04668176012427      1.49460538793584      0.28528229982757
  H   -0.32332146653885      2.14491878814708      0.56101363880269
  H   -1.81355167520782      1.86955373152482     -0.24721271952012
  C   -1.57882400935181     -0.64612297971316     -0.73250763611533
  H   -1.81014057727744     -1.48860869805641     -0.08056676561631
  H   -2.50141772867077     -0.10028076631505     -0.94104156801547
  H   -1.18842367339523     -1.07028499987516     -1.65625290524372
  N   1.29969868892761     -1.33962831603900     -0.02952313953152
  O   0.59541743739690     -2.25513089586984     -0.46559044612830
  O   2.51095183289162     -1.44847027735860      0.19705349878832
  N   1.53756085225530      0.93957415576480      0.83285909969501
  H   1.76481800736931      0.68499769324656      1.78848671424309
  H   2.41832246677930      0.99471658323760      0.33417886348953
