15
Coordinates from ORCA-job run
  C   -0.54906105474915      0.12186107896254     -0.31762004615833
  C   0.70390713261167     -0.06258038139018      0.21179652639018
  N   -0.83366492883043      0.80933980303124     -1.44452113744485
  H   -0.09463557134253      1.32897053507524     -1.89029796482359
  H   -1.79233038349719      1.00464740821177     -1.66669761024498
  C   -1.72148411362873     -0.50571050138702      0.38551872485484
  H   -2.61295213341157     -0.47883217323463     -0.24507694743641
  H   -1.93604277493187      0.02449474348278      1.31552761656425
  H   -1.50002232011665     -1.53719765273803      0.65089653547857
  N   1.88084048419352      0.50233261306385     -0.40476629112531
  O   2.97057521827205      0.24485551658829      0.11704939296108
  O   1.76515425992718      1.18754395662819     -1.43599020298837
  N   0.88693274220775     -0.82329202880661      1.38349874583731
  H   1.27251920903094     -0.24931489519786      2.12483849553875
  H   1.55826423426501     -1.56411802228958      1.21684416259685
