15
Coordinates from ORCA-job run
  C   -0.57412582936994      0.28098966418919     -0.04832262270849
  C   0.68078701497786     -0.14188800256081      0.29191454106100
  N   -1.16848792895450      1.21098203119021      0.75856369339250
  H   -2.17343809576367      1.25322981392355      0.74782175961676
  H   -0.71522803326839      1.33259672270288      1.65390961628257
  C   -1.34624844967104     -0.10712705607989     -1.27401113660886
  H   -2.35028198407261      0.32069297714175     -1.23550128919877
  H   -0.84582324382865      0.25376173775623     -2.17274692354376
  H   -1.41365745179663     -1.18932806289728     -1.37327146368926
  N   1.44238202630824     -1.06521076597677     -0.51989586358856
  O   1.01089829280175     -1.41458925234566     -1.62269982082302
  O   2.50953104282610     -1.46414741932807     -0.03787669270913
  N   1.26331733342817      0.30704210280572      1.49997579099324
  H   2.05943262601518      0.90713985415111      1.31052217184720
  H   1.62094268036814     -0.48514434467215      2.02161823967658
