15
Coordinates from ORCA-job run
  C   -0.51339750250516      0.23215040985901     -0.03178679608674
  C   0.77043734742476     -0.13707687295567      0.22520115303094
  N   -1.15469691132186      1.04631748710131      0.90596137390095
  H   -2.15841028625116      1.05555617595084      0.81345492748627
  H   -0.87106437769449      0.87258743412202      1.86071597837252
  C   -1.27920187268132     -0.03322886201502     -1.29595116129910
  H   -2.31227369267111      0.30438975464221     -1.18420948301791
  H   -0.83251714304585      0.48724808360209     -2.14354781428511
  H   -1.28045320380114     -1.09317258524212     -1.54900212741238
  N   1.49024186971217     -1.05947618833315     -0.63403291960819
  O   2.43359057905092     -1.65371735149525     -0.10724878422442
  O   1.11460252737512     -1.23299079173317     -1.79615049961945
  N   1.53406911285066      0.33165740207837      1.29171171600732
  H   1.82233485962984     -0.34051714325593      1.98446708994126
  H   1.23673869392861      1.21927304767445      1.66041734681402
