15
Coordinates from ORCA-job run
  C   -0.51850392270745      0.25065069720615     -0.19865552955772
  C   0.76069707059783     -0.05522849966875      0.17857955947604
  N   -0.89947643832007      1.34212820309010     -0.94425310104615
  H   -1.74912070431006      1.22638930795990     -1.47251775691329
  H   -0.15073512358315      1.82532715167231     -1.41704201478499
  C   -1.65063026159601     -0.55967185929804      0.36964479902424
  H   -2.57074894867370     -0.37576970199643     -0.18866931495201
  H   -1.84128969839022     -0.29068593960474      1.41295132994784
  H   -1.44891105138382     -1.63236386175557      0.32030470220537
  N   1.90646101396924      0.60776229582687     -0.37720130983335
  O   3.01202478852044      0.11031324730064     -0.13002169299017
  O   1.75398288757747      1.62146333010767     -1.07825702458386
  N   1.10910192392780     -0.97955277929680      1.17715751768110
  H   0.34804315959137     -1.59160706351951      1.42559959440015
  H   1.93810530478033     -1.49915452802380      0.92338024192679
