12
Coordinates from ORCA-job run
  C   0.95880959545460      0.18197489622345     -0.25394032485126
  C   -0.34469674158008     -0.44454686974728      0.23759418148751
  Cl  1.40811221690394      1.61099213664453      0.72950925015329
  H   -0.48550892116683     -1.37397167077411     -0.32444473054238
  H   0.84214648425508      0.54512118392668     -1.27828315897555
  H   -0.21950894819860     -0.71733694243782      1.28893257186019
  C   2.05647586117536     -0.78180810448803     -0.22628852345974
  N   2.92383047639129     -1.57308363409934     -0.22897749772459
  C   -1.55027058470062      0.46761995259284      0.05014564146554
  H   -2.45966318621192     -0.03752312756829      0.38084281978255
  H   -1.68068230931783      0.73508761837833     -1.00172899050051
  H   -1.44804394300441      1.38747456134902      0.62663876130494
