12
Coordinates from ORCA-job run
  C   1.09471598151058      0.31423080228541     -0.23670744367711
  C   -0.36802118218776      0.29040461878746     -0.67833880641939
  Cl  1.39270508836428      1.61643341427012      0.95851247159493
  H   -0.43850910046230     -0.42544604496776     -1.50490205852268
  H   1.74047151932877      0.54030183087829     -1.08779024587935
  H   -0.60166798411170      1.27873359339067     -1.08419917769238
  C   1.50795270447003     -0.96832547348936      0.32928413916451
  N   1.80924019207579     -2.01959945360332      0.75661124704577
  C   -1.34342443108034     -0.08456953216043      0.42911636674826
  H   -1.13282557307232     -1.08231833809376      0.81999064078736
  H   -1.29598770973512      0.62520251711918      1.25586493567107
  H   -2.36464950509992     -0.08404793441651      0.04355793117898
