12
Coordinates from ORCA-job run
  C   1.09301308411780      0.27108527392554     -0.27920249141855
  C   -0.38494679016176      0.29996883777183     -0.66566300776328
  Cl  1.48470593823810      1.56854441363502      0.89374113414822
  H   -0.59707086821294      1.29404207959962     -1.06930774306004
  H   1.71455270552273      0.46626591272190     -1.15562094498329
  H   -0.51331574389998     -0.41719888977193     -1.48408591872692
  C   1.48087239525832     -1.02230362337237      0.28027503335423
  N   1.78569650834458     -2.07726288528110      0.69584606639581
  C   -1.33087249865982     -0.03237668840443      0.48034413580975
  H   -1.22493491741797      0.67884698243055      1.30039780416127
  H   -1.14324718787211     -1.03562122246077      0.86899145181492
  H   -2.36545262525695      0.00500980920614      0.13428448026789
