15

C	-0.417015	-0.035274	-1.479235
C	0.0	0.0	0.0
Cl	-2.163682	0.165309	-1.713059
H	1.102428	0.0	0.0
H	-0.121328	-0.968822	-1.952023
N	0.298998	1.03517	-2.250773
O	1.132364	0.649458	-3.065584
O	0.02347	2.204526	-1.991013
N	-0.541842	-1.219501	0.603982
H	-0.457482	-1.07369	1.603651
H	0.084428	-1.98577	0.373711
N	-0.46475	1.130124	0.758357
H	-1.430667	1.335928	0.535507
H	0.099112	1.939678	0.541206
Cl	3.465388	0.0	0.0
