15

C	-0.606225	0.022805	-1.393009
C	0.0	0.0	0.0
Cl	0.102528	1.26372	-2.444296
H	1.09319	0.0	0.0
H	-1.684937	0.192276	-1.339009
N	-0.472969	-1.311321	-2.073077
O	-1.522717	-1.830331	-2.453842
O	0.653933	-1.768067	-2.200999
N	-0.509124	-1.22421	0.622695
H	0.283377	-1.722782	1.011268
H	-1.118316	-0.956622	1.384963
N	-0.424867	1.198295	0.729966
H	-1.05214	1.784523	0.190639
H	0.400064	1.744345	0.931935
Cl	3.423359	0.0	0.0
