15

C	-0.618141	0.070918	-1.384831
C	0.0	0.0	0.0
Cl	0.029406	1.391223	-2.374342
H	1.097335	0.0	0.0
H	-1.694995	0.206473	-1.302892
N	-0.43456	-1.225802	-2.115269
O	0.706842	-1.602664	-2.329927
O	-1.470206	-1.810888	-2.433822
N	-0.459334	-1.240107	0.595073
H	0.279527	-1.633941	1.160572
H	-1.276029	-1.05969	1.166157
N	-0.517644	1.159641	0.751464
H	-0.19414	2.004024	0.286205
H	-0.022262	1.149717	1.637954
Cl	3.447887	0.0	0.0
