15

C	-0.600843	0.037068	-1.400634
C	0.0	0.0	0.0
Cl	0.134779	1.252947	-2.44156
H	1.092676	0.0	0.0
H	-1.675159	0.221902	-1.363488
N	-0.476303	-1.31287	-2.052487
O	-1.535172	-1.903406	-2.26576
O	0.645024	-1.725069	-2.300562
N	-0.41458	-1.262626	0.601287
H	-1.324768	-1.181615	1.039847
H	0.268426	-1.538721	1.295533
N	-0.414474	1.231001	0.664492
H	0.273266	1.467505	1.369881
H	-1.317382	1.108463	1.113597
Cl	3.435839	0.0	0.0
