16

C	0.0	0.0	0.0
C	-0.486211	-0.079334	-1.461551
Br	1.956006	0.0	0.0
H	-1.564613	-0.230871	-1.307061
N	-0.595354	1.140669	0.620272
H	-0.379703	1.127838	1.612114
H	-1.634866	0.879256	0.487816
C	-0.326597	-1.274392	0.677459
N	-0.542403	-2.24444	1.305452
N	0.089138	-1.222975	-2.138412
H	-0.555299	-1.541125	-2.850571
H	0.939577	-0.914263	-2.596546
N	-0.172993	1.192647	-2.1254
H	-0.930602	1.38477	-2.77336
H	-0.225979	1.912391	-1.407994
F	-2.822894	0.0	0.0
