16

C	0.0	0.0	0.0
C	-0.353729	0.197892	-1.566054
Br	1.954274	0.0	0.0
H	0.5235	-0.193762	-2.09215
N	-0.639064	0.965535	0.82433
H	-1.668831	0.733816	0.635876
H	-0.434556	0.768885	1.799216
C	-0.324563	-1.396161	0.356707
N	-0.545512	-2.513856	0.648522
N	-0.470372	1.629186	-1.80284
H	-1.259381	1.73604	-2.431362
H	-0.697021	2.08602	-0.925244
N	-1.498084	-0.513571	-2.075185
H	-1.281658	-1.504211	-2.121141
H	-2.265577	-0.378476	-1.383756
F	-2.909427	0.0	0.0
