15

C	0.0	0.0	0.0
C	-0.297812	0.404787	-1.466394
Br	2.038405	0.0	0.0
H	0.296888	-0.245627	-2.114679
H	0.0882	1.421997	-1.609557
N	-0.524256	0.93817	0.890051
H	-0.227476	1.884888	0.713625
H	-0.409261	0.670049	1.856697
N	-0.44863	-1.291433	0.422285
H	-1.467337	-1.242325	0.476461
H	-0.178381	-1.996834	-0.251404
N	-1.677191	0.34633	-1.878868
H	-2.302308	0.790317	-1.21129
H	-1.996544	-0.614121	-1.901515
Cl	-4.27719	0.0	0.0
