15

C	0.0	0.0	0.0
C	-0.399163	-0.072892	-1.48458
Br	2.036323	0.0	0.0
H	-0.267253	0.940322	-1.899353
H	0.294504	-0.736959	-2.004352
N	-0.4735	1.206638	0.571083
H	-0.317054	1.249055	1.569645
H	-0.065256	2.019685	0.131454
N	-0.4229	-1.163428	0.684005
H	-1.209853	-1.546259	0.161811
H	-0.717333	-0.953748	1.628125
N	-1.729798	-0.637746	-1.577834
H	-2.450673	-0.11858	-1.07008
H	-2.029085	-0.725651	-2.538779
Cl	-4.561621	0.0	0.0
