15

C	0.0	0.0	0.0
C	-0.304518	0.391829	-1.467403
Br	2.037578	0.0	0.0
H	0.28789	-0.262389	-2.113319
H	0.07898	1.408592	-1.620534
N	-0.524961	0.943773	0.884324
H	-0.401072	0.686981	1.852579
H	-0.234888	1.890349	0.696711
N	-0.443647	-1.289227	0.43394
H	-0.171132	-1.999121	-0.234
H	-1.461939	-1.244585	0.489748
N	-1.685977	0.326735	-1.871298
H	-2.31153	0.768959	-1.202178
H	-2.004673	-0.633581	-1.895511
Cl	-4.308709	0.0	0.0
