15

C	0.0	0.0	0.0
C	-0.44451	-0.197612	-1.437616
Br	2.066141	0.0	0.0
H	-1.537339	-0.128948	-1.379292
H	-0.056603	0.637145	-2.030632
N	-0.41543	1.289306	0.462608
H	-0.110949	1.418743	1.422385
H	-1.441321	1.231281	0.466685
N	-0.421431	-1.086324	0.76829
H	-0.231261	-1.958985	0.292611
H	-0.093689	-1.072983	1.722154
N	-0.073539	-1.523732	-1.923214
H	0.822775	-1.487996	-2.389802
H	-0.770068	-1.84903	-2.579087
Cl	-3.764863	0.0	0.0
