17
Coordinates from ORCA-job run
  C   -0.54379373484998      0.38034037877880      0.45408144499198
  C   0.94028748030615      0.14492161700291      0.16116434339870
  F   -0.61808128858524      1.61536066079143      1.04516418349445
  H   1.55140495322055      0.47920068081212      0.99530072446473
  C   -1.49234585787921      0.31311220710995     -0.70170889538288
  H   -1.24714540844707      1.10909508625505     -1.40597983344516
  H   -2.50333061976765      0.47092327287440     -0.33034371779147
  H   -1.43567649116073     -0.65167699741652     -1.20016967969811
  N   -0.92103852265658     -0.59636260941411      1.57152822656260
  O   -0.04383256792255     -0.79926072082047      2.40626144479862
  O   -2.06525050045868     -1.02613237520723      1.59057097816958
  N   1.32907661843360      0.94319209656737     -1.05002472538015
  O   1.27908508072267      0.37294511786440     -2.13363542343885
  O   1.61188530412031      2.11500786362417     -0.83267214135887
  N   1.29014859066304     -1.28120355119950     -0.11679221374921
  O   0.37571621539244     -2.07294285293380     -0.31961136035669
  O   2.49189074886892     -1.51651987468897     -0.13313335527928
