17
Coordinates from ORCA-job run
  C   -0.47321164177510      0.07314399435132      0.49240947175912
  C   0.70575357172865     -0.26313558437587     -0.41414411496645
  F   -0.03957003979622      0.61465754069317      1.64998490670178
  H   0.40858372179288     -0.95735622372041     -1.19815759202822
  C   -1.49137718577200      0.97281651323269     -0.16497755603279
  H   -1.81991292583871      0.56223630982757     -1.11984419134835
  H   -1.05778964559595      1.96208829968148     -0.31404988177949
  H   -2.34769802415762      1.06790845566022      0.50491790179799
  N   -1.18392215052812     -1.24175642341920      0.82835055238251
  O   -1.50227014047382     -1.41901451912958      1.99026202261658
  O   -1.42831081857211     -1.96011404219040     -0.13470300798988
  N   1.82933312110981     -0.91278483135730      0.35032867401579
  O   1.47186018785229     -1.72771356854428      1.19102339065553
  O   2.97078717005098     -0.63080162408050      0.01923401444738
  N   1.21100355638372      0.97983107329276     -1.06777625883639
  O   1.09146207092016      1.03014133721735     -2.28957389561308
  O   1.65427917267115      1.84885329286099     -0.32628443578203
