17
Coordinates from ORCA-job run
  C   -0.56410471226958      0.52364346845631      0.13085334242598
  C   0.72096807645478      0.09330314035409     -0.57528299909475
  F   -0.54942099705794      1.88498043605032      0.08989789411482
  H   0.67431967796581      0.42235367388309     -1.61322632355239
  C   -1.83997932332307      0.00840499860763     -0.48215078838565
  H   -1.88291302399160      0.28903486800301     -1.53507014319289
  H   -2.67060412156024      0.48180440005283      0.04561431369119
  H   -1.91237264903464     -1.07267563880343     -0.39328234081205
  N   -0.55379150467212      0.10174510322379      1.59211357434140
  O   -0.83039014435783      0.94213754482156      2.42851196463006
  O   -0.33120451449361     -1.09140090840170      1.76406373712906
  N   0.96019136057083     -1.39491204266512     -0.61485226614436
  O   1.90814728695251     -1.83945896389985      0.01246113824411
  O   0.17376696119167     -2.01028731237746     -1.32274965081810
  N   1.93294559171339      0.73963916505923      0.02001452506028
  O   1.93957344938191      0.91961757231255      1.23139283015197
  O   2.82486858652972      1.00307049532314     -0.77930880778869
