17
Coordinates from ORCA-job run
  C   -0.43011983170371      0.13408861760459      0.51905452029613
  C   0.65114824641061     -0.33413868537725     -0.44812928691221
  F   0.12482318287106      0.69812809873322      1.61223133775705
  H   0.24277377285551     -1.02350070217164     -1.18490469701038
  C   -1.42408245140456      1.07653561183480     -0.11511545347779
  H   -2.21876434305885      1.27185160177655      0.60700780900632
  H   -1.85153151038585      0.64652592270008     -1.02087405805763
  H   -0.93068995752655      2.02045609432031     -0.34901750148455
  N   -1.20840333883336     -1.10400435174778      0.97427876183471
  O   -1.56423937094256     -1.85384363856785      0.07168811563067
  O   -1.46291117853391     -1.19340515308116      2.16163716485717
  N   1.77060623985924     -1.05251373952903      0.25789324968785
  O   2.89212466447214     -0.92696944459802     -0.21035747457312
  O   1.42387676190285     -1.76051080747123      1.19446805081137
  N   1.20933592305438      0.84193398677663     -1.17952147533085
  O   1.81199094236378      1.67071317115524     -0.50795861532224
  O   0.96406224859977      0.88965341764253     -2.38238044771250
