13

C	0.0	0.0	0.0
C	-0.400975	-0.421906	-1.421225
F	1.36511	0.0	0.0
H	0.339971	0.071952	-2.059085
H	-0.392001	-0.595726	0.82242
H	-0.182434	-1.497383	-1.461844
N	-0.343738	1.43666	0.326025
O	-0.560975	2.202327	-0.608388
O	-0.254006	1.752468	1.509187
N	-1.710826	-0.171309	-1.960344
H	-2.469289	-0.468412	-1.349034
H	-1.838703	0.826321	-2.066307
Br	-4.40411	0.0	0.0
