13

C	0.0	0.0	0.0
C	-0.466637	-0.304407	-1.419905
F	1.365212	0.0	0.0
H	0.222909	0.249805	-2.062995
H	-0.381435	-0.654522	0.782786
H	-0.267204	-1.370848	-1.576865
N	-0.38215	1.399756	0.41039
O	-0.79344	1.561208	1.556668
O	-0.184804	2.284667	-0.420653
N	-1.81761	0.001637	-1.801062
H	-2.537004	-0.41475	-1.212466
H	-1.986211	0.997708	-1.764295
Br	-4.668215	0.0	0.0
