13

C	0.0	0.0	0.0
C	-0.460559	-0.211479	-1.438062
F	1.3596	0.0	0.0
H	-0.2235	-1.256432	-1.6708
H	-0.382716	-0.706692	0.735428
H	0.209599	0.40988	-2.03895
N	-0.383921	1.367387	0.509357
O	-0.2488	2.304986	-0.274535
O	-0.72551	1.452576	1.685894
N	-1.821065	0.075003	-1.799111
H	-2.020779	1.060621	-1.696871
H	-2.523727	-0.396441	-1.233187
Br	-4.659351	0.0	0.0
