13

C	0.0	0.0	0.0
C	-0.453925	0.219579	-1.433578
F	1.369277	0.0	0.0
H	-1.519289	0.443987	-1.427194
H	-0.385175	-0.90434	0.464339
H	-0.331315	-0.748531	-1.931479
N	-0.3636	1.121086	0.94232
O	-0.460017	2.257349	0.484011
O	-0.435435	0.823802	2.131243
N	0.296504	1.226102	-2.177651
H	1.287204	1.069898	-2.035039
H	0.08206	2.129177	-1.775811
Br	-3.611671	0.0	0.0
