13

C	0.0	0.0	0.0
C	-0.475413	-0.632313	-1.311192
F	1.361163	0.0	0.0
H	0.278195	-0.329186	-2.045804
H	-0.381838	-0.445603	0.917981
H	-0.382796	-1.716854	-1.177909
N	-0.387049	1.455623	0.049818
O	-0.908625	1.874215	1.078553
O	-0.103623	2.120556	-0.944733
N	-1.782501	-0.317383	-1.820847
H	-2.551581	-0.511892	-1.17785
H	-1.850726	0.664511	-2.05335
Br	-4.618396	0.0	0.0
