13
Coordinates from ORCA-job run
  C   -0.32012914260856     -0.25970370070813     -0.11852341989004
  C   0.74389391304796      0.80763395374869     -0.37678177083168
  F   0.28936406289300     -1.49428239404987     -0.50293081123271
  H   1.00276667477232      0.79621696198077     -1.43809263703425
  H   0.31566965070360      1.78075606394219     -0.13320718446581
  N   -0.69275586710342     -0.29020995550931      1.24674865810515
  H   0.12491281218173     -0.41334356689600      1.83124754094038
  H   -1.32022093616498     -1.06675755172253      1.41990364630147
  N   -1.45188819803400     -0.00625897106407     -0.94276516566927
  H   -2.26801615920518     -0.49788820189946     -0.60216381018202
  H   -1.25975140039022     -0.31125355905982     -1.88831131117796
  C   1.94763013874480      0.57470429590601      0.41668263122851
  N   2.88952445116293      0.37938662533151      1.08819363390824
