13
Coordinates from ORCA-job run
  C   -0.32080777681883     -0.25766641921505     -0.12089290578652
  C   0.75616522450267      0.79843561332639     -0.37164240550182
  F   0.28165920683581     -1.49996611851235     -0.49057783717000
  H   0.33384946298426      1.77658416398285     -0.13803081892063
  H   1.02715003117155      0.77979667947026     -1.42980362301548
  N   -0.71092217289275     -0.27647313208445      1.23977286200178
  H   -1.34862280662214     -1.04535755432195      1.40952834274394
  H   0.09785149892414     -0.40436990000199      1.83540957310510
  N   -1.43980812522531      0.00168094913251     -0.96063743948436
  H   -2.26368134782850     -0.48348153160151     -0.62938707721124
  H   -1.23764335450331     -0.30715769884476     -1.90286116694830
  C   1.94796784672814      0.55888228360364      0.43753053678508
  N   2.87984231274428      0.35909266506639      1.12159195940246
