13
Coordinates from ORCA-job run
  C   -0.19050800654017     -0.50517010146285     -0.09504219945067
  C   1.15576789053858      0.16307659836225     -0.37662515889023
  F   -0.07126415945295     -1.80791487983121     -0.60686612960810
  H   1.31473702167007      0.24394251099724     -1.45578995248743
  H   1.93079429321731     -0.48139152905275      0.04081397047351
  N   -0.38274820848538     -0.66724928146543      1.31789116687821
  H   -1.05718066100118     -1.40396642003780      1.48444006860834
  H   -0.72289255826710      0.19791093520280      1.71876043820029
  N   -1.24109121362543      0.20780795564739     -0.73493980836271
  H   -2.13418759782747     -0.23053038300155     -0.54629264539297
  H   -1.10146430308647      0.25965497820291     -1.73676315346080
  C   1.22576005724711      1.48349606052397      0.23947001170888
  N   1.27527744561307      2.53833355591502      0.74994339178368
