13
Coordinates from ORCA-job run
  C   -0.24237531357536     -0.44773878024897      0.02908080846076
  C   0.86717622904919      0.56057896323259      0.38247059294269
  F   0.42372223278910     -1.49916702748058     -0.62106411127897
  H   0.42790022673666      1.38448740291005      0.94916668773818
  H   1.62093346288392      0.07538878627999      1.00950402382323
  N   -0.89179178172866     -0.85840048250378      1.21801572409371
  H   -1.61934267656431     -1.52100258900380      0.97903535048963
  H   -0.24149485030975     -1.28594938190439      1.86447658591232
  N   -1.24246686631761     -0.00467881701652     -0.89012797997398
  H   -0.82849047293147      0.25460197698928     -1.77635032418098
  H   -1.75735212072256      0.77525724427532     -0.50474151647800
  C   1.50495685616897      1.07634261651083     -0.82417005736297
  N   1.97862507452188      1.49028008795998     -1.81429578418563
