13
Coordinates from ORCA-job run
  C   -0.21176106926173     -0.45816556694460     -0.25085652107566
  C   0.69751826838994      0.78068410913801     -0.36123503059420
  F   0.57292703271418     -1.53246035673636     -0.63355999972277
  H   0.12663718468672      1.68695530994813     -0.13657608362484
  H   1.06449513753715      0.84991760365745     -1.38753474738361
  N   -0.67477562874933     -0.79745904094925      1.06812797727746
  H   -1.23761948277295     -0.05280149661374      1.45772172269322
  H   0.10107445697908     -0.99495539973280      1.68951095912940
  N   -1.27530125398116     -0.32284290130934     -1.19136748297739
  H   -1.70072637839405      0.59315643133925     -1.16062421324825
  H   -1.97540564757709     -1.02969119979225     -1.00191889963466
  C   1.81827266291620      0.68612948047594      0.56715467368385
  N   2.69366471751305      0.59153302751955      1.34215764547745
