13
Coordinates from ORCA-job run
  C   -0.39770469958962     -0.12627535155214     -0.09910821544971
  C   1.01867068022348      0.33468870829055     -0.44522177771374
  F   -1.19598498899747      1.05833084955552     -0.13848838896479
  H   1.00919275807992      0.78276723265982     -1.44152913757689
  H   1.66614983891493     -0.54286798413754     -0.46405330860915
  N   -0.85021471661426     -1.04280067700041     -1.08919088418269
  H   -1.63935564256481     -1.58025762411568     -0.75410133824797
  H   -1.13082972916545     -0.53632391152806     -1.91911118169717
  N   -0.44228347958508     -0.71727219716261      1.18647479847008
  H   -1.40035520271757     -0.92653720023737      1.44166688942011
  H   -0.06691102327067     -0.08084134688524      1.87896446659304
  C   1.52117463553491      1.30984416886845      0.51877261057698
  N   1.90945156975167      2.06854533324471      1.32492546738190
