13
Coordinates from ORCA-job run
  C   -0.24473046013485     -0.47030181279380     -0.18838925856619
  C   0.74026758572973      0.68223255381170     -0.46203012454701
  F   0.46460133786552     -1.63359818137518     -0.43384022820786
  H   0.23189196012371      1.64533392541245     -0.35371316642467
  H   1.09839767962882      0.59483911995585     -1.49009764523360
  N   -0.71004460301302     -0.60744445217015      1.16585184600451
  H   -1.21726555735960      0.21651026445607      1.46075297781589
  H   0.06005509422358     -0.77612630473128      1.80267741566448
  N   -1.31024642515124     -0.38777991346395     -1.13255678425050
  H   -1.67545189702220      0.55034550623688     -1.21900295042079
  H   -2.05168718991513     -1.01685109444846     -0.84934858087720
  C   1.86542216613333      0.63369063087251      0.46475720923864
  N   2.74879030889137      0.57014975823738      1.23393928980432
