13
Coordinates from ORCA-job run
  C   -0.18606810087340     -0.53003037146411     -0.03518211596567
  C   0.95275658404957      0.42349723539871      0.37375179734607
  F   0.39599403673579     -1.47215472206669     -0.86596259242400
  H   0.58413273595488      1.16406592925728      1.09030524527636
  H   1.73810785459991     -0.16220803779536      0.85644818016240
  N   -0.65956617638838     -1.19563355350721      1.13378446532698
  H   -0.81645297637436     -0.55804966082941      1.90178574314467
  H   -1.52117402065338     -1.67948859693436      0.91197079021491
  N   -1.24803788503210      0.04019314652918     -0.82032241379682
  H   -1.72175953859633      0.77468346759046     -0.31113575719480
  H   -0.89833147375139      0.40856230287181     -1.69729812710034
  C   1.49084252465701      1.11803822083192     -0.79035939436516
  N   1.88855643567218      1.66852464011780     -1.74678582062460
