13
Coordinates from ORCA-job run
  C   -0.27138809748122     -0.41889152560254     -0.06151098510665
  C   1.11132224705806      0.15861747588261     -0.35758091622039
  F   -0.19558210375573     -1.74759298697779     -0.60563370483295
  H   1.28564123716794      0.12488249225899     -1.43633541305213
  H   1.86779015292754     -0.47983702729634      0.10661155177182
  N   -0.50998437200907     -0.47102846328852      1.33195509453874
  H   -1.44954020668424     -0.78905207390841      1.53427790206578
  H   0.14612601896239     -1.10038957948915      1.77528225635560
  N   -1.28101092974130      0.32407371510310     -0.71751410512949
  H   -1.16775408713629      0.25637668983412     -1.72037847182788
  H   -2.20413841228345     -0.01279429480380     -0.47394868251122
  C   1.25458153776722      1.52766433933351      0.12612065039172
  N   1.41393701520814      2.62797123895423      0.49865482355705
