13
Coordinates from ORCA-job run
  C   -0.34291455052460     -0.23644430778862     -0.10328970178517
  C   0.84929061376235      0.66295786595598     -0.43172631473435
  F   0.13367930675870     -1.57079953934212     -0.29061906015016
  H   1.15149889853085      0.48254026642863     -1.46598050750919
  H   0.52751705207668      1.70102625445955     -0.33911479246308
  N   -0.77660707421895     -0.04275914866791      1.23022936369270
  H   -0.00622942791890     -0.17786464128528      1.87347472636673
  H   -1.49946293878117     -0.71344487562894      1.46354805847962
  N   -1.39962951253956      0.02863660010949     -1.01869861838141
  H   -1.20249311652096     -0.41845419104228     -1.90487066697201
  H   -2.28183535141275     -0.32081411168090     -0.66746443962533
  C   1.98143552933585      0.40620143071582      0.45429907002093
  N   2.86375057145247      0.19921839776658      1.19921288306072
