13
Coordinates from ORCA-job run
  C   -0.18640220063887     -0.65080055792031     -0.11988517930614
  C   1.11715692775984      0.14600575650078     -0.32334078257339
  F   0.05746449857437     -1.86228158551166     -0.75787915002514
  H   1.93324659449514     -0.36911914239491      0.18949122726525
  H   1.34534708682772      0.16403526477076     -1.39131723813274
  N   -0.39837317821720     -0.88320662564843      1.26363456884803
  H   -1.36724352574329     -1.11635632655294      1.43532179008180
  H   -0.10957664023183     -0.11272495390991      1.84874250115623
  N   -1.35794061498330     -0.12546373356582     -0.76553636152998
  H   -1.59141456036159      0.79002105798821     -0.40322773787594
  H   -1.23551518411793     -0.07400452743200     -1.76921466788184
  C   0.98082749904405      1.50751573030695      0.18078418236980
  N   0.81242329759288      2.58637964336930      0.61142684760407
