13
Coordinates from ORCA-job run
  C   -0.22145198321911     -0.60285059236291     -0.24522271928199
  C   1.12619948344202      0.14365445241570     -0.29129039793770
  F   0.07306208176436     -1.85982372049133     -0.76240060356217
  H   1.87265850951718     -0.46322042452705      0.22588970341269
  H   1.43853814477869      0.25098993297260     -1.33305668714556
  N   -0.75894114419041     -0.86089428378763      1.06239480139087
  H   -0.96042761455326      0.00353931901563      1.54824314900243
  H   -0.12722878192855     -1.42478763807915      1.61734107457389
  N   -1.16003737360874      0.04413797962231     -1.08993741991390
  H   -1.07067616740706      1.04981992451827     -1.09279209912547
  H   -2.10148841075348     -0.22843956285649     -0.84110215730723
  C   1.02013138505976      1.45214559160234      0.34356355715732
  N   0.86966187109861      2.49572902195768      0.85936979873681
