13
Coordinates from ORCA-job run
  C   -0.32211992178493     -0.38349435275961     -0.08789127193103
  C   0.75218923109344      0.66370618573452     -0.43272801501446
  F   0.27877091054917     -1.62021428759828     -0.38198343858963
  H   1.06030604094239      0.51310518328835     -1.47015366855015
  H   0.31838142641066      1.66141808866333     -0.33660067120982
  N   -0.71578639295450     -0.26595746279434      1.26277282391230
  H   0.06984073422534     -0.37031133680808      1.89210259472753
  H   -1.41545149334824     -0.96878527526074      1.46556297382341
  N   -1.50117348639995     -0.33323157932805     -0.89736612119173
  H   -1.27742619602246     -0.44119814062544     -1.87740221588887
  H   -2.00119065373027      0.53124010653537     -0.74277601848520
  C   1.92080326028930      0.55685748214731      0.43690272458820
  N   2.83185654073005      0.45586538880567      1.16956030380944
