13
Coordinates from ORCA-job run
  C   -0.17958204970263     -0.51049072141163     -0.08572683263014
  C   1.13342219713998      0.19678460738295     -0.42332022100060
  F   -0.04120036701777     -1.81109723362625     -0.59829510627868
  H   1.24591665832071      0.27924426345349     -1.50820897181706
  H   1.94342831423590     -0.42355419185399     -0.03698538393343
  N   -0.30975922799664     -0.67253895049039      1.33419159928369
  H   -0.95429944639971     -1.42847078255690      1.52989412174048
  H   -0.65907845783499      0.18361434634320      1.74647474351627
  N   -1.27631048424686      0.16744816767627     -0.68485561389581
  H   -2.14752008364044     -0.29624282598297     -0.45829811983772
  H   -1.17896842086464      0.21765822711225     -1.69170831202302
  C   1.19016142020051      1.52051177560170      0.18668633691181
  N   1.23078994780659      2.57813331835228      0.69215175996422
