13
Coordinates from ORCA-job run
  C   -0.20860003390494     -0.47638211475113     -0.17250566849900
  C   1.17725441055531      0.15608607342239     -0.30508648665978
  F   -0.10460455467195     -1.72924271974778     -0.79937346314207
  H   1.91201631046291     -0.43234410461767      0.25196984238572
  H   1.44379191570666      0.13203841136079     -1.36270833344081
  N   -0.56293326037413     -0.61160598536111      1.19772989088621
  H   0.10737228810239     -1.17896628246115      1.70225401290804
  H   -1.48267370537989     -1.02548655027816      1.28787911260771
  N   -1.16945733847056      0.25764081491868     -0.94537946734206
  H   -1.48303842321920      1.06675249138505     -0.42384006632830
  H   -1.96174491536871     -0.33779710994033     -1.15247782447601
  C   1.17484491436677      1.53409488372645      0.17310560447609
  N   1.15877239219534      2.64521219234397      0.54843284662426
