13
Coordinates from ORCA-job run
  C   -0.54225825535627      0.07921614708448     -0.13473201140698
  C   0.93383942469618      0.36808197830563     -0.46815485971710
  F   -1.15887082108731      1.31675138652393     -0.06575288112230
  H   1.47751716658331     -0.57100885109695     -0.61077792030854
  H   0.97357165226183      0.93476438767115     -1.40088840456208
  N   -1.11625720796708     -0.64715269114955     -1.21921047931773
  H   -0.53095862422479     -1.41313950191985     -1.52193624884878
  H   -2.02194785013833     -1.00170320459321     -0.93673199519963
  N   -0.80338945802894     -0.52804235077130      1.14305171611975
  H   -0.35723040338710     -1.43309291112906      1.21276102732747
  H   -0.48537744568195      0.06423818390275      1.90122908580664
  C   1.57030012097556      1.12333731181118      0.60518866472522
  N   2.05906170135490      1.70775011536080      1.49695430650406
