13
Coordinates from ORCA-job run
  C   -0.34062682693244     -0.36185644505722     -0.12373906216519
  C   0.80303547102765      0.63089708799497     -0.40434766489814
  F   0.22553459841393     -1.62899600263379     -0.33743219207114
  H   0.41701008342501      1.64854074385399     -0.31358610044661
  H   1.17043529682357      0.49175467069601     -1.42529569013533
  N   -0.84968892466747     -0.39262766489185      1.21103559768757
  H   -1.25776057873928      0.49945413671910      1.45517435172592
  H   -0.12095212145738     -0.63475384056169      1.87004626914790
  N   -1.41994384206929     -0.08578454752520     -0.99713023518754
  H   -1.13853211942985     -0.16011609147440     -1.96604034680421
  H   -2.16755386651814     -0.74226433057958     -0.80843716094293
  C   1.90460861346441      0.43742009022931      0.53256088894249
  N   2.77443421665928      0.29833219323035      1.30719134514720
