13
Coordinates from ORCA-job run
  C   -0.49295177190202     -0.06271776422862     -0.12393649074343
  C   0.98150060327505      0.28444930142701     -0.40272859056732
  F   -1.18785728779346      1.14066199778822     -0.32599220993441
  H   1.57975564610359     -0.62562260997232     -0.32081174002834
  H   1.08321033717445      0.67297303371398     -1.42026630423950
  N   -0.90278214568562     -1.09094789485965     -1.00639891814472
  H   -1.87271382155878     -1.31353699837943     -0.81883990714295
  H   -0.79893494279168     -0.81052410365867     -1.97287830541578
  N   -0.81507241066386     -0.46930661499493      1.20746832335557
  H   -0.58343900020469      0.25696174467795      1.87294404306724
  H   -0.33133276397544     -1.32505042355717      1.44333763743688
  C   1.47134170299418      1.28174706184121      0.54286518155290
  N   1.86927585502828      2.06091327020243      1.32423728080387
