13
Coordinates from ORCA-job run
  C   -0.27225307061004     -0.54065307298433     -0.06471057455560
  C   1.09102087847625      0.12041000298222     -0.33844615311106
  F   -0.13209313984421     -1.82046958695050     -0.63717704452430
  H   1.30833999928114      0.03120992872401     -1.40571637830301
  H   1.88016110392005     -0.41301611355049      0.19988264816523
  N   -0.52983021785668     -0.57890247296225      1.32134187396281
  H   -1.42627522242295     -1.01792355970605      1.48756401196709
  H   0.19783527456383     -1.06213887288392      1.82991417956374
  N   -1.40605925402002      0.04644052289202     -0.70628233087518
  H   -1.28761438255809      0.06059700661288     -1.71040487117019
  H   -1.56085934196157      0.98451456124826     -0.36104797711451
  C   1.08389833984381      1.52718561223201      0.04663324861188
  N   1.05372903318848      2.66274604434613      0.33944936738309
