13
Coordinates from ORCA-job run
  C   -0.29802279174227     -0.51129455665926     -0.14249324134320
  C   1.08170985055820      0.13576324059190     -0.36182025929977
  F   -0.14429674064037     -1.79724221048208     -0.69747284806391
  H   1.27799707135461      0.24412502107800     -1.43271388411247
  H   1.84417764543175     -0.53492233172838      0.04200451274338
  N   -0.69536632917454     -0.72188573102034      1.21381885539111
  H   -0.02413494683085     -1.29863813407253      1.70299548271004
  H   -0.80653610114437      0.16312316323714      1.69082243139433
  N   -1.30301912447635      0.24890608804492     -0.77575755906639
  H   -2.20336758478451     -0.18827904270823     -0.62667837990873
  H   -1.12707937574715      0.36284466480979     -1.76455509367308
  C   1.16844344407480      1.43372666320944      0.29782151239759
  N   1.22949498312105      2.46477316569963      0.85402847083111
