13
Coordinates from ORCA-job run
  C   -0.10452284025190     -0.58926215751006     -0.18988412923615
  C   1.19504711204420      0.20483601223470     -0.34398006160406
  F   0.11007463542550     -1.83142543481643     -0.75166307170712
  H   1.42719799355641      0.26725608809043     -1.40817528895295
  H   1.98786939760418     -0.33674068067812      0.17446421224743
  N   -0.35059106223209     -0.83655910218617      1.20936139604044
  H   -0.51542262616912      0.03398658773778      1.70061632075730
  H   -1.17013176189652     -1.42447086619945      1.31132555685652
  N   -1.13539750664086      0.01962954773983     -0.99644369452970
  H   -1.95748910379072     -0.57374613192175     -0.99544024881571
  H   -1.39136511642461      0.92453292468045     -0.61926741922109
  C   1.04669471172959      1.54212437171798      0.21878320011511
  N   0.85803616704594      2.59983884111081      0.69130322804997
