13
Coordinates from ORCA-job run
  C   -0.11179084127950     -0.58078693061440     -0.21008404857215
  C   1.18453808061824      0.21706424268681     -0.37189307907217
  F   0.08659899629482     -1.80442934244480     -0.81667631134258
  H   1.38474702282866      0.32758776262922     -1.43883112784076
  H   1.98985905171117     -0.35053412173288      0.09671520162519
  N   -0.31877383956332     -0.87841677822391      1.18725212961631
  H   -0.52313470333918     -0.03056581630929      1.70301826039742
  H   -1.10516030099891     -1.51110032064164      1.28336620972277
  N   -1.16287704536186      0.05694035213694     -0.96383040301769
  H   -2.00347886771901     -0.50793490822326     -0.91925106498040
  H   -1.36916692705008      0.97229975190009     -0.58184229023178
  C   1.05995975394012      1.52748791026968      0.25605676682541
  N   0.88967961991887      2.56438819856744      0.77899975687043
