13
Coordinates from ORCA-job run
  C   -0.20817866314671     -0.61219493434792     -0.23363483641111
  C   1.11606289100974      0.17244367329356     -0.31528819274259
  F   0.11302628517559     -1.86729150761702     -0.73935589290489
  H   1.40470281009554      0.27614771607656     -1.36413113032525
  H   1.88948268696873     -0.40593203261857      0.19484110934279
  N   -0.71339252133391     -0.86740967500230      1.08737480879178
  H   -0.93111660202483     -0.00234693190228      1.56488669040349
  H   -0.05553221115500     -1.40500765378901      1.63802555610636
  N   -1.18057345106284     -0.00437013224054     -1.06855065197382
  H   -1.12082307657226      1.00314469946461     -1.08849308944453
  H   -2.10897872580734     -0.30171735516249     -0.79975286484054
  C   0.98291389575762      1.48467904330370      0.30709287419444
  N   0.81140668209567      2.52885509054172      0.81498561980387
