13
Coordinates from ORCA-job run
  C   -0.16769362398056     -0.65777084793529     -0.10556813569104
  C   1.10049131576999      0.17999923040220     -0.36168447735300
  F   0.09791557024412     -1.86993568122651     -0.73374647263841
  H   1.94968105222349     -0.30158960168292      0.12941367323091
  H   1.29205140004306      0.19380530678198     -1.43684653674535
  N   -0.32818236821204     -0.87548224019694      1.28678685272676
  H   -1.28201983388956     -1.14020555510131      1.49305706617374
  H   -0.04613490074204     -0.08847784792164      1.85276196917526
  N   -1.37641339964230     -0.18324448918876     -0.72146843751154
  H   -1.63003567836367      0.72919321421619     -0.36537436703898
  H   -1.28737084447152     -0.14396675187530     -1.72903907025840
  C   0.93422052669705      1.54182588597658      0.13296730814805
  N   0.74349078432398      2.61884937775171      0.55874062778201
