13
Coordinates from ORCA-job run
  C   -0.28289209254813     -0.53275341434501     -0.08276387323419
  C   1.09380491181609      0.10925871697802     -0.33463604877683
  F   -0.16998253870939     -1.79389959089111     -0.70047039435203
  H   1.87200724354396     -0.45523390874159      0.18771392378789
  H   1.30991683987011      0.04829790053008     -1.40413926811187
  N   -0.54020359957839     -0.61532747511403      1.30161089381107
  H   0.17816274736211     -1.13156323414825      1.79066272096640
  H   -1.44504924648433     -1.04210325351017      1.45323646933475
  N   -1.40407176089960      0.10092474766301     -0.70102547025349
  H   -1.28595452580871      0.15147717812508     -1.70398544555802
  H   -1.54177032745383      1.02732974285719     -0.31908024145768
  C   1.11372365527556      1.50341917015719      0.09327615163060
  N   1.10430869361454      2.63017342043959      0.41960058221339
