13

C	-0.447618	-0.037635	-1.428645
C	0.0	0.0	0.0
Br	-0.205844	1.660423	-2.343425
H	1.092197	0.0	0.0
H	0.089305	-0.79195	-1.997281
H	-0.410246	0.87824	0.50709
N	-1.908821	-0.390791	-1.568305
O	-2.696588	0.111397	-0.771099
O	-2.217388	-1.164623	-2.473177
N	-0.415706	-1.282948	0.585729
H	-1.182864	-1.160539	1.232642
H	0.385877	-1.642869	1.088924
F	2.650396	0.0	0.0
