13

C	-0.441173	0.055592	-1.437541
C	0.0	0.0	0.0
Br	-2.330585	0.561071	-1.692956
H	1.092312	0.0	0.0
H	0.143555	0.785336	-1.993343
H	-0.318055	0.947052	0.459927
N	-0.204834	-1.267122	-2.119066
O	-1.092454	-2.107516	-2.155436
O	0.933809	-1.405316	-2.559082
N	-0.477879	-1.193115	0.677768
H	-1.313452	-1.023431	1.220872
H	0.262871	-1.504064	1.292755
F	2.626662	0.0	0.0
