13

C	-0.385454	0.051681	-1.435773
C	0.0	0.0	0.0
Br	-2.347906	0.057683	-1.773456
H	1.097566	0.0	0.0
H	-0.008806	0.944085	-1.928778
H	-0.38077	-0.915543	0.463282
N	0.159526	-1.118796	-2.200454
O	-0.003334	-2.238108	-1.72379
O	0.730783	-0.869414	-3.259983
N	-0.42029	1.245141	0.644853
H	-1.206376	1.096288	1.255722
H	0.360721	1.556153	1.201939
F	2.611132	0.0	0.0
