13

C	-0.514772	-0.078954	-1.428329
C	0.0	0.0	0.0
Br	0.309332	-1.505292	-2.451287
H	1.091198	0.0	0.0
H	-1.592015	-0.244168	-1.497799
H	-0.410719	0.928262	0.417715
N	-0.307436	1.248296	-2.111344
O	-1.231172	2.047871	-1.936738
O	0.730879	1.480185	-2.710441
N	-0.407711	-1.153233	0.798878
H	-1.248712	-1.599717	0.451552
H	0.349185	-1.820274	0.748608
F	2.635245	0.0	0.0
