13

C	-0.586486	-0.006852	-1.398814
C	0.0	0.0	0.0
Br	0.202435	-1.357297	-2.534766
H	1.095671	0.0	0.0
H	-1.658828	-0.194201	-1.397532
H	-0.386058	0.905288	0.484724
N	-0.431727	1.362261	-2.013055
O	-1.304993	2.161785	-1.661919
O	0.520865	1.626402	-2.731477
N	-0.468239	-1.218889	0.685958
H	-0.902844	-0.97009	1.565358
H	0.374623	-1.735929	0.912262
F	2.649506	0.0	0.0
