13

C	-0.31928	-0.349877	-1.442631
C	0.0	0.0	0.0
Br	0.174187	1.045508	-2.692403
H	1.092308	0.0	0.0
H	0.216092	-1.248383	-1.739439
H	-0.365697	-0.849867	0.594267
N	-1.776834	-0.659747	-1.634624
O	-2.07185	-1.853601	-1.7293
O	-2.591463	0.260759	-1.579162
N	-0.51179	1.257066	0.509029
H	0.163961	1.973775	0.278359
H	-1.400291	1.50419	0.090462
F	2.631884	0.0	0.0
