13

C	-0.457334	0.024789	-1.431139
C	0.0	0.0	0.0
Br	-2.364641	0.478275	-1.66224
H	1.092315	0.0	0.0
H	0.097579	0.762216	-2.006187
H	-0.316189	0.955431	0.443611
N	-0.196451	-1.293081	-2.106331
O	-1.051888	-2.169577	-2.092049
O	0.927931	-1.390005	-2.593418
N	-0.469213	-1.17931	0.708281
H	0.288226	-1.485738	1.303498
H	-1.285992	-0.995093	1.274843
F	2.624469	0.0	0.0
