19

C	-0.519121	-0.06028	-1.433868
C	0.0	0.0	0.0
Br	0.159068	1.636835	-2.413329
H	1.097948	0.0	0.0
C	0.101053	-1.209234	-2.198264
H	-0.185529	-1.178719	-3.254054
H	1.187521	-1.147418	-2.106014
H	-0.246626	-2.134265	-1.737291
N	-1.940429	-0.087535	-1.495073
H	-2.24957	-0.148937	-2.458511
H	-2.327458	0.757863	-1.093584
N	-0.342657	-1.287347	0.625897
H	-1.194003	-1.207134	1.169513
H	0.425229	-1.524098	1.246475
C	-0.491432	1.188823	0.814812
H	-0.274853	2.140229	0.326128
H	0.034645	1.179249	1.773722
H	-1.569481	1.129299	1.022804
H	2.944967	0.0	0.0
