19

C	-0.42973	-0.080541	-1.469432
C	0.0	0.0	0.0
Br	0.085275	1.687097	-2.39979
H	1.094493	0.0	0.0
C	0.368446	-1.132917	-2.216417
H	0.093856	-2.121846	-1.837209
H	1.433538	-0.960867	-2.029089
H	0.160751	-1.096751	-3.289888
N	-1.835308	-0.287066	-1.60966
H	-2.344858	0.483143	-1.194919
H	-2.090257	-0.346023	-2.588723
N	-0.368333	-1.256348	0.68017
H	0.427045	-1.884071	0.619262
H	-1.163219	-1.683516	0.219103
C	-0.563357	1.16978	0.787745
H	-0.123841	1.127158	1.786316
H	-1.651956	1.091385	0.908588
H	-0.314859	2.131719	0.337621
H	2.980051	0.0	0.0
