19

C	-0.14924	-0.034929	-1.514073
C	0.0	0.0	0.0
Br	-2.125809	-0.404773	-2.057468
H	1.102751	0.0	0.0
C	0.194564	1.286617	-2.175116
H	0.190512	1.179963	-3.26387
H	-0.494129	2.086851	-1.903205
H	1.210663	1.535529	-1.842559
N	0.633266	-1.136665	-1.986977
H	0.772546	-1.059279	-2.988879
H	1.552352	-1.045992	-1.522637
N	-0.423537	-1.218542	0.68186
H	-1.315213	-1.511264	0.291231
H	0.244986	-1.944854	0.450528
C	-0.569065	1.223474	0.684156
H	-1.648736	1.311467	0.51397
H	-0.396991	1.114537	1.756207
H	-0.080801	2.142402	0.352133
H	2.859321	0.0	0.0
