19

C	-0.520305	-0.057357	-1.44841
C	0.0	0.0	0.0
Br	-0.205303	1.68547	-2.342511
H	1.099797	0.0	0.0
C	0.261524	-1.100182	-2.223798
H	-0.045487	-1.099567	-3.271311
H	1.332042	-0.90574	-2.121594
H	0.041611	-2.079413	-1.788637
N	-1.951312	-0.319675	-1.574963
H	-2.09574	-1.132224	-0.976008
H	-2.45876	0.452142	-1.152318
N	-0.400249	-1.302553	0.599167
H	-0.852762	-1.136465	1.490302
H	0.465068	-1.79722	0.801333
C	-0.516703	1.149209	0.843153
H	-0.062541	1.078989	1.836126
H	-0.239174	2.114446	0.420867
H	-1.608755	1.116158	0.95943
H	2.967063	0.0	0.0
