19

C	-0.380986	0.033434	-1.486072
C	0.0	0.0	0.0
Br	-0.125652	-1.828655	-2.230914
H	1.104965	0.0	0.0
C	-1.828804	0.381713	-1.765727
H	-2.043761	0.281084	-2.830837
H	-2.481644	-0.27411	-1.188752
H	-2.019104	1.418796	-1.465733
N	0.518361	0.867036	-2.241426
H	1.460965	0.748011	-1.857622
H	0.245049	1.836159	-2.118988
N	-0.619058	-1.111056	0.733364
H	-0.151054	-1.961283	0.434088
H	-0.355911	-0.988599	1.707954
C	-0.415153	1.298167	0.68608
H	0.108151	1.359556	1.646439
H	-0.111392	2.176291	0.111595
H	-1.493826	1.331798	0.870499
H	3.007863	0.0	0.0
