15

C	0.0	0.0	0.0
C	-0.2313	-0.221851	-1.544307
Cl	1.831863	0.0	0.0
H	0.55481	0.372084	-2.021994
H	-0.275056	-0.89673	0.561986
N	-0.607556	1.210387	0.414752
H	-0.432843	1.325357	1.409803
H	-1.637928	0.923643	0.308032
C	-1.541592	0.199005	-2.216462
H	-1.653045	1.277784	-2.096182
H	-1.459763	-0.033964	-3.284232
H	-2.397192	-0.255898	-1.723216
C	0.077679	-1.620362	-1.865291
N	0.303038	-2.735397	-2.160089
F	-2.877591	0.0	0.0
