15

C	0.0	0.0	0.0
C	-0.423033	0.046681	-1.523766
Cl	1.793603	0.0	0.0
H	0.484592	-0.015809	-2.132897
H	-0.292502	-0.968624	0.399027
N	-0.533015	0.990838	0.874016
H	-0.366156	1.908033	0.474363
H	-1.559862	0.760044	0.766617
C	-1.182342	1.316088	-1.911785
H	-2.095181	1.313443	-1.314758
H	-1.421636	1.287731	-2.978676
H	-0.564824	2.201873	-1.728591
C	-1.204171	-1.137807	-1.893923
N	-1.717076	-2.082933	-2.368326
F	-2.737423	0.0	0.0
