15

C	0.0	0.0	0.0
C	-0.430615	0.001191	-1.501191
Cl	1.844597	0.0	0.0
H	0.479793	-0.10257	-2.100989
H	-0.224763	-0.979336	0.429441
N	-0.534437	1.101965	0.717618
H	-0.311473	0.965868	1.698964
H	-1.567888	0.875011	0.586762
C	-1.158682	1.267846	-1.95638
H	-2.119225	1.280394	-1.445269
H	-1.298457	1.234906	-3.041249
H	-0.567034	2.146374	-1.694505
C	-1.209504	-1.203968	-1.806884
N	-1.67967	-2.21474	-2.17549
F	-2.731332	0.0	0.0
