15

C	0.0	0.0	0.0
C	-0.348538	-0.009523	-1.520937
Cl	1.794284	0.0	0.0
H	0.424523	-0.615641	-2.009823
H	-0.305453	-0.952219	0.4265
N	-0.530696	1.037604	0.813477
H	-1.560794	0.812743	0.694834
H	-0.332731	1.933298	0.379459
C	-0.28961	1.389097	-2.128813
H	0.667841	1.863515	-1.890295
H	-1.111039	1.992211	-1.746302
H	-0.379542	1.325834	-3.21661
C	-1.598368	-0.679586	-1.920418
N	-2.319904	-1.334546	-2.578977
F	-2.679777	0.0	0.0
