15

C	-0.574927	0.02493	-1.412457
C	0.0	0.0	0.0
F	0.10971	0.911843	-2.220277
H	1.089447	0.0	0.0
H	-0.372735	-0.870334	0.535861
C	-0.405157	-1.33324	-1.967899
N	-0.306739	-2.43195	-2.367582
C	-2.050935	0.397855	-1.46275
H	-2.409451	0.323327	-2.491672
H	-2.632525	-0.273719	-0.827345
H	-2.170083	1.425993	-1.121372
N	-0.476302	1.181492	0.752412
O	-1.123528	0.976639	1.78359
O	-0.217723	2.290346	0.290669
Cl	3.282662	0.0	0.0
