15

C	-0.488485	-0.059334	-1.426498
C	0.0	0.0	0.0
F	-1.887557	-0.182333	-1.428313
H	1.090889	0.0	0.0
H	-0.355383	-0.88416	0.528307
C	-0.174206	1.123983	-2.247679
N	0.026315	1.976731	-3.028939
C	0.111096	-1.290796	-2.085706
H	-0.204428	-2.179349	-1.534486
H	-0.237931	-1.365058	-3.116798
H	1.200934	-1.220052	-2.058007
N	-0.514123	1.158642	0.767053
O	-0.609673	2.241558	0.194344
O	-0.789932	0.957843	1.949057
Cl	3.270869	0.0	0.0
