15

C	-0.463269	0.015232	-1.455653
C	0.0	0.0	0.0
F	-0.278569	-1.303172	-1.891567
H	1.088509	0.0	0.0
H	-0.380768	-0.884149	0.508206
C	-1.911708	0.281341	-1.575137
N	-3.067868	0.451304	-1.689668
C	0.360041	0.915793	-2.351405
H	0.101514	0.714401	-3.393109
H	0.168648	1.960807	-2.116967
H	1.414821	0.694786	-2.170577
N	-0.453724	1.176306	0.775668
O	-0.702645	2.219488	0.166641
O	-0.522755	1.040943	1.994403
Cl	3.303417	0.0	0.0
