15

C	-0.573075	0.01268	-1.413052
C	0.0	0.0	0.0
F	0.113741	0.891744	-2.22656
H	1.089506	0.0	0.0
H	-0.359662	-0.875355	0.540363
C	-0.398089	-1.347456	-1.967729
N	-0.299216	-2.441177	-2.382482
C	-2.049881	0.382116	-1.47391
H	-2.402409	0.304307	-2.503302
H	-2.640305	-0.283026	-0.840696
H	-2.171093	1.411514	-1.137426
N	-0.467565	1.175277	0.77396
O	-0.970468	0.964727	1.879614
O	-0.324379	2.286398	0.265754
Cl	3.282253	0.0	0.0
