15

C	0.0	0.0	0.0
C	-0.354222	-0.05966	-1.502008
Br	1.928156	0.0	0.0
H	0.456081	-0.592019	-2.010494
H	-0.386033	0.870391	0.513165
N	-0.406201	-1.207313	0.774065
O	-0.580551	-1.057174	1.975223
O	-0.396337	-2.276873	0.175403
C	-0.369387	1.383936	-2.0184
H	0.584011	1.878243	-1.77061
H	-1.218243	1.914375	-1.571775
H	-0.473463	1.386945	-3.105705
C	-1.566988	-0.791716	-1.914559
N	-2.279126	-1.571861	-2.447019
F	-2.294228	0.0	0.0
