15

C	0.0	0.0	0.0
C	-0.239326	-0.166891	-1.55312
Br	1.920159	0.0	0.0
H	0.356602	0.663107	-1.957289
H	-0.40479	0.919482	0.394688
N	-0.484471	-1.110308	0.866238
O	-0.646345	-2.210682	0.356339
O	-0.55161	-0.8532	2.063155
C	-1.597773	-0.079474	-2.256767
H	-1.388651	-0.094722	-3.337572
H	-2.237373	-0.904173	-1.967912
H	-2.111287	0.830203	-1.970035
C	0.426082	-1.377462	-2.06791
N	0.879305	-2.322643	-2.598834
F	-2.363084	0.0	0.0
