15

C	0.0	0.0	0.0
C	-0.242117	-0.109019	-1.557783
Br	1.920007	0.0	0.0
H	0.366475	0.724003	-1.933706
H	-0.401137	0.904989	0.430693
N	-0.482291	-1.140941	0.827235
O	-0.645337	-2.222447	0.279803
O	-0.544503	-0.926892	2.032479
C	-1.599423	0.027495	-2.258497
H	-2.254598	-0.794499	-2.000002
H	-2.095636	0.937062	-1.940571
H	-1.3842	0.043879	-3.337573
C	0.406487	-1.309454	-2.115393
N	0.858644	-2.233994	-2.68233
F	-2.36277	0.0	0.0
