16

C	-0.547494	-0.048522	-1.415485
C	0.0	0.0	0.0
F	0.204105	-0.812517	-2.249597
H	1.093054	0.0	0.0
C	-1.955698	-0.467918	-1.507818
N	-3.094788	-0.756075	-1.533783
N	-0.462763	1.384104	-1.966254
O	0.643352	1.733984	-2.343159
O	-1.487712	2.050227	-1.963718
N	-0.373166	-1.209152	0.701603
O	-0.376641	-1.172396	1.943534
O	-0.511832	-2.245458	0.026519
N	-0.303387	1.214362	0.679662
H	0.526526	1.468105	1.209179
H	-1.073515	1.096319	1.323279
H	2.384466	0.0	0.0
