16

C	-0.562046	0.035561	-1.39791
C	0.0	0.0	0.0
F	-1.911437	0.29552	-1.403368
H	1.088496	0.0	0.0
C	0.100483	1.105774	-2.1615
N	0.599302	1.958534	-2.79715
N	-0.35265	-1.238184	-2.233558
O	-1.32673	-1.700483	-2.802549
O	0.803959	-1.621183	-2.294706
N	-0.462415	-1.181904	0.735373
O	-0.281523	-1.193427	1.951928
O	-0.893333	-2.146135	0.080905
N	-0.272098	1.20688	0.705829
H	-1.055422	1.738361	0.358267
H	0.580506	1.75642	0.762727
H	2.451355	0.0	0.0
