16

C	-0.635402	0.028818	-1.366115
C	0.0	0.0	0.0
F	-1.999017	0.10867	-1.284324
H	1.089806	0.0	0.0
C	-0.148094	1.191263	-2.123295
N	0.191078	2.104393	-2.777745
N	-0.313515	-1.189038	-2.246544
O	0.876533	-1.357871	-2.462953
O	-1.251156	-1.834414	-2.684795
N	-0.400611	-1.181188	0.740045
O	-0.526523	-2.246579	0.112753
O	-0.459597	-1.089373	1.977708
N	-0.280015	1.239039	0.66069
H	0.570256	1.501815	1.157654
H	-1.02609	1.129355	1.334152
H	2.408506	0.0	0.0
