16

C	-0.401826	-0.085565	-1.468919
C	0.0	0.0	0.0
F	-0.075758	1.103931	-2.049521
H	1.091422	0.0	0.0
C	0.180207	-1.157209	-2.280344
N	0.629267	-1.885794	-3.084103
N	-1.930982	-0.182438	-1.576149
O	-2.42727	-1.289278	-1.750119
O	-2.541042	0.871975	-1.408745
N	-0.421803	-1.218786	0.706132
O	-0.316519	-2.273541	0.058604
O	-0.713158	-1.158422	1.900887
N	-0.372803	1.194239	0.648614
H	0.426509	1.814218	0.671612
H	-1.190308	1.647669	0.265866
H	2.45482	0.0	0.0
