11

C	0.0	0.0	0.0
C	-0.465991	0.115845	-1.437578
Cl	1.79934	0.0	0.0
H	-1.558509	0.169645	-1.366467
H	-0.253456	0.92658	0.52678
H	-0.149007	-0.774572	-1.986263
H	-0.046399	1.005026	-1.915952
N	-0.575657	-1.16799	0.589895
H	-0.412472	-1.130003	1.592856
H	-1.60129	-0.938746	0.437824
F	-2.872932	0.0	0.0
