11

C	0.0	0.0	0.0
C	-0.560908	0.020926	-1.393122
Cl	1.852568	0.0	0.0
H	-0.217429	0.902335	-1.940692
H	-0.273131	0.894703	0.555288
H	-1.663043	0.032683	-1.189076
H	-0.248252	-0.877657	-1.937731
N	-0.410522	-1.145646	0.717651
H	-0.089017	-1.130624	1.673479
H	-0.084851	-1.984946	0.258355
F	-2.990304	0.0	0.0
