18
Coordinates from ORCA-job run
  C   0.71587424502239     -0.12937601328304      0.51421758388433
  C   -0.68309183818674     -0.54911517321131      0.04455969418978
  H   0.94784068600273     -0.67780244565876      1.43100357155104
  H   -0.61008417302882     -1.64450090949497     -0.07911914078266
  N   0.67882053387726      1.30126564995916      0.96198800246071
  O   0.66304394591616      1.50945178482222      2.17260066808641
  O   0.65801563121663      2.16734903661769      0.08943610824444
  C   1.81254687306586     -0.31813614712290     -0.51510967982181
  H   1.80949793778292     -1.35074669839601     -0.87233825486516
  H   2.79013356735759     -0.11173066892425     -0.07441060526456
  H   1.66841233841730      0.35166114632836     -1.36119656347531
  C   -1.11383298837333      0.04759250761103     -1.28711330707912
  H   -1.15076618348197      1.13466215806813     -1.22447268274150
  H   -2.11262956921779     -0.31950423053084     -1.54069987140263
  H   -0.44406666847374     -0.24344367280623     -2.09780745157653
  N   -1.64089428342752     -0.14791815120957      1.06950973796055
  H   -1.41743443383103     -0.57297593859929      1.96249322330988
  H   -2.57238562063791     -0.44673223416942      0.80745896732215
