18
Coordinates from ORCA-job run
  C   0.54225180647230      0.24416763339995      0.41241147019966
  C   -0.61929012713417     -0.35696591535840     -0.40443073113939
  H   0.16781165699068      0.59288988986461      1.37868918611821
  H   -0.20438167751426     -0.65989194113400     -1.37223941393567
  N   1.00009786442132      1.48370062465242     -0.28645648446898
  O   1.53413589072645      1.33168898965346     -1.38482227230127
  O   0.78196588668743      2.56589826125480      0.25646287604821
  C   1.72876457870211     -0.68723553352800      0.57946415317964
  H   2.07531801474116     -1.04081601112585     -0.39271196581661
  H   2.55548770947952     -0.17738860768003      1.07896489944918
  H   1.44742696177225     -1.54276909580866      1.19516542171164
  C   -1.72357805691868      0.66508584560348     -0.63468767531857
  H   -2.11200615965551      1.03684910124030      0.31916359809183
  H   -1.37579855434158      1.52255537916652     -1.21297892676361
  H   -2.54089525105653      0.18740747497221     -1.17577479396370
  N   -1.19470719075653     -1.54392954371737      0.21332437352145
  H   -0.51636133599024     -2.29025787033412      0.29246475624201
  H   -1.54624201662570     -1.32998868112132      1.13999152914598
