18
Coordinates from ORCA-job run
  C   0.80257130803941     -0.24291310672956      0.30312850935525
  C   -0.72376934376826     -0.37864769764168      0.23756618096392
  H   1.25046443157216     -1.24147529400512      0.27335148785819
  H   -1.00359511314996     -1.00618472385766      1.08777425989712
  N   1.12790404025700      0.25859713756411      1.68812230001975
  O   1.69592332946546      1.33851019605300      1.80995084062399
  O   0.78410879291628     -0.47042329721597      2.61663641582108
  C   1.40793099362743      0.66362693394513     -0.74535531905449
  H   0.97240108914963      1.66079317416380     -0.68916994125945
  H   1.23986074885179      0.24382018292748     -1.73910903576763
  H   2.48308560681035      0.76324608711575     -0.59699929739497
  C   -1.16740144361345     -1.06885465813387     -1.05017066499157
  H   -0.65773561256517     -2.02559203669484     -1.19776616933419
  H   -0.97146834303496     -0.43978434434565     -1.92280150930198
  H   -2.24266105922201     -1.25975913637106     -1.01390349372610
  N   -1.31885056928581      0.93690170556283      0.45649322140999
  H   -1.46005772557378      1.41966939569819     -0.42263322211429
  H   -2.22071113047609      0.84746948196511      0.90488543699540
