18
Coordinates from ORCA-job run
  C   0.73229167189679     -0.24194874772160      0.34864899992244
  C   -0.78178916757072     -0.32794415988975      0.13502483596337
  H   1.16977609488869     -1.24443550751030      0.30803003887171
  H   -1.18168577820910     -0.88784872729234      0.99411627262917
  N   1.03914112278687      0.20446144224474      1.75721053654206
  O   0.14689032588921      0.72817666866563      2.42411353672110
  O   2.19651232723456      0.03988347703860      2.13603227897941
  C   1.46685080476750      0.69814935258634     -0.59113379149046
  H   1.09582926167030      1.71366805460118     -0.46292572643467
  H   1.30049961997395      0.39942524385015     -1.62677562657811
  H   2.53832719933855      0.66475077647725     -0.38944492400871
  C   -1.08201577334940     -1.12462296689134     -1.12778609449119
  H   -0.60007074898657     -2.10455020525260     -1.10929147273860
  H   -2.16008181682217     -1.28530149078657     -1.21665179674008
  H   -0.74952021801699     -0.58605096609999     -2.01823291115912
  N   -1.35574789416617      1.00595617412312      0.01550523377219
  H   -1.55447598645632      1.38087660949255      0.93371739983252
  H   -2.21973104486899      0.96635497236491     -0.51115678959305
