18
Coordinates from ORCA-job run
  C   0.72944748391760     -0.26071083428304      0.30215370483207
  C   -0.79211046226899     -0.30082117331714      0.11794706105023
  H   1.13407261218393     -1.26590876846325      0.16814325419894
  H   -1.19808844397451     -0.83534079282417      0.99380314484518
  N   1.06468739782015      0.06297492100077      1.72969810073574
  O   1.91598386527449     -0.62938220177547      2.28318316525578
  O   0.48739784109272      1.02032258994158      2.24718681967936
  C   1.45979796428106      0.73729360776144     -0.58105172246114
  H   1.11212612308935      1.74941765933734     -0.38394848040961
  H   2.53602269254899      0.67254448205891     -0.40521073894114
  H   1.26676497756181      0.51263332354933     -1.63070135234157
  C   -1.13769191266259     -1.11026272397285     -1.12608582529938
  H   -0.75557377946712     -0.61809451518556     -2.02225712284797
  H   -0.73224347622171     -2.12311103186013     -1.06931074406941
  H   -2.22316939606157     -1.19230191586896     -1.22914341144208
  N   -1.33499370596624      1.04501626811476     -0.02786339872781
  H   -2.33106007716545      0.98445012046091     -0.20394602466336
  H   -1.20336970398190      1.55328098532551      0.83840357060617
