13

C	-0.228142	0.085051	-1.510569
C	0.0	0.0	0.0
Br	-0.012571	-1.914738	-2.190996
H	1.094161	0.0	0.0
H	-0.404758	-0.910576	0.438956
C	-1.590273	0.366089	-1.954403
N	-2.695143	0.61271	-2.268376
N	0.72138	0.946214	-2.030783
H	0.747616	1.003655	-3.039138
H	1.647842	0.771516	-1.597939
C	-0.502085	1.182861	0.678155
N	-0.904514	2.125544	1.254385
H	2.719488	0.0	0.0
