13

C	-0.259256	0.132253	-1.502591
C	0.0	0.0	0.0
Br	-0.008863	-1.74211	-2.347834
H	1.092394	0.0	0.0
H	-0.309571	0.941267	0.466252
C	-1.641034	0.447571	-1.871376
N	-2.750575	0.732822	-2.138496
N	0.65608	1.081325	-1.975592
H	0.687572	1.136424	-2.983645
H	1.586442	0.881298	-1.572293
C	-0.621649	-1.116369	0.674238
N	-1.113906	-1.992998	1.283251
H	2.718415	0.0	0.0
