13

C	-0.206979	-0.081968	-1.511232
C	0.0	0.0	0.0
Br	-2.111665	-0.474025	-2.00707
H	1.096002	0.0	0.0
H	-0.401912	0.90949	0.450361
C	0.063294	1.238157	-2.094639
N	0.267324	2.303758	-2.545743
N	0.644515	-1.062331	-2.138059
H	0.388007	-1.974208	-1.769014
H	1.588056	-0.854569	-1.765752
C	-0.471092	-1.186662	0.682159
N	-0.841824	-2.158795	1.229659
H	2.67531	0.0	0.0
