13

C	-0.213477	0.083157	-1.51661
C	0.0	0.0	0.0
Br	-0.077184	-1.939589	-2.175677
H	1.094275	0.0	0.0
H	-0.412346	-0.907128	0.436827
C	-1.556059	0.418981	-1.985337
N	-2.628719	0.737168	-2.348202
N	0.769035	0.904143	-2.032926
H	0.802269	0.957472	-3.040998
H	1.684939	0.71517	-1.580365
C	-0.500125	1.187503	0.668389
N	-0.899588	2.13552	1.237475
H	2.72734	0.0	0.0
