13

C	-0.505632	0.00264	-1.430923
C	0.0	0.0	0.0
Br	0.116652	1.620186	-2.371389
H	1.092578	0.0	0.0
H	-0.286996	-0.95513	0.459808
C	0.069097	-1.140385	-2.165842
N	0.366004	-2.096389	-2.78369
N	-1.953362	0.01628	-1.497969
H	-2.260381	-0.089125	-2.459634
H	-2.307611	-0.763289	-0.952582
C	-0.548505	1.092416	0.781927
N	-0.95381	1.959485	1.464367
H	2.677796	0.0	0.0
