15

C	-0.487592	-0.042562	-1.454636
C	0.0	0.0	0.0
Cl	-0.066646	1.48952	-2.273076
H	1.09517	0.0	0.0
H	-1.580558	-0.094204	-1.477443
C	0.146737	-1.20064	-2.203583
H	1.233496	-1.114837	-2.13458
H	-0.158282	-2.151887	-1.760109
H	-0.15518	-1.192141	-3.253088
C	-0.440006	-1.242383	0.654153
N	-0.848269	-2.198021	1.2044
N	-0.468005	1.174797	0.731749
H	-1.24403	0.942322	1.339256
H	0.298595	1.517342	1.298697
Cl	3.342386	0.0	0.0
