15

C	-0.386345	0.000538	-1.474019
C	0.0	0.0	0.0
Cl	-2.18845	0.075587	-1.651719
H	1.100094	0.0	0.0
H	-0.095777	-0.95703	-1.910854
C	0.263354	1.15207	-2.208251
H	0.024323	1.116384	-3.273247
H	-0.077475	2.096747	-1.7865
H	1.345478	1.073831	-2.067946
C	-0.467959	-1.225633	0.666628
N	-0.836917	-2.193662	1.221695
N	-0.429336	1.222486	0.667763
H	-1.369555	1.122934	1.029252
H	0.202208	1.405472	1.437324
Cl	3.328033	0.0	0.0
