15

C	-0.386623	-0.01003	-1.474119
C	0.0	0.0	0.0
Cl	-2.188529	0.06649	-1.652109
H	1.099851	0.0	0.0
H	-0.097625	-0.971484	-1.903874
C	0.265256	1.134271	-2.218015
H	1.347031	1.054348	-2.077592
H	-0.073352	2.083227	-1.803605
H	0.026398	1.090695	-3.282827
C	-0.469812	-1.220259	0.674737
N	-0.854878	-2.180187	1.232808
N	-0.42935	1.227121	0.65953
H	0.199785	1.412882	1.42988
H	-1.37082	1.131413	1.018577
Cl	3.328207	0.0	0.0
