15

C	-0.483177	-0.038511	-1.457197
C	0.0	0.0	0.0
Cl	-0.055325	1.498269	-2.266991
H	1.095099	0.0	0.0
H	-1.576729	-0.087465	-1.482662
C	0.153837	-1.193488	-2.209421
H	1.240374	-1.107322	-2.137665
H	-0.152725	-2.146622	-1.771424
H	-0.144415	-1.181402	-3.259779
C	-0.442922	-1.24575	0.646133
N	-0.864505	-2.213648	1.164046
N	-0.470606	1.173098	0.732283
H	0.285636	1.504127	1.317759
H	-1.258743	0.944717	1.322591
Cl	3.344881	0.0	0.0
