14

C	-0.403826	-0.039627	-1.476746
C	0.0	0.0	0.0
F	0.21927	-1.106772	-2.082904
H	1.095062	0.0	0.0
C	-1.861144	-0.231551	-1.634687
N	-3.023007	-0.386855	-1.715076
C	-0.006342	1.196728	-2.177636
N	0.252333	2.185607	-2.754675
N	-0.424769	-1.238759	0.634829
H	-1.205785	-1.104651	1.264165
H	0.371909	-1.595415	1.149009
C	-0.528789	1.200276	0.625351
N	-0.982254	2.144276	1.163417
F	2.493862	0.0	0.0
