14

C	-0.421742	-0.10347	-1.466356
C	0.0	0.0	0.0
F	-0.130812	1.070481	-2.137845
H	1.094738	0.0	0.0
C	0.304223	-1.21228	-2.110266
N	0.866769	-2.090321	-2.648356
C	-1.875199	-0.347224	-1.597229
N	-3.03535	-0.527382	-1.648459
N	-0.385891	-1.245653	0.652953
H	0.415877	-1.565034	1.181483
H	-1.183123	-1.142867	1.265679
C	-0.561535	1.198207	0.599813
N	-1.027368	2.142145	1.125896
F	2.4985	0.0	0.0
