14

C	-0.278435	-0.037203	-1.511149
C	0.0	0.0	0.0
F	0.082486	1.156154	-2.099609
H	1.096111	0.0	0.0
C	0.4989	-1.132872	-2.125723
N	1.072251	-1.998194	-2.674806
C	-1.712157	-0.271953	-1.80152
N	-2.859318	-0.476803	-1.956551
N	-0.38547	-1.213484	0.683861
H	-1.257446	-1.623107	0.371884
H	0.377006	-1.874408	0.622253
C	-0.615806	1.184086	0.574128
N	-1.113225	2.143592	1.038303
F	2.494735	0.0	0.0
