14

C	-0.413902	-0.023382	-1.455545
C	0.0	0.0	0.0
F	-1.80141	-0.125374	-1.609621
H	1.095204	0.0	0.0
C	0.010498	1.203651	-2.155981
N	0.311801	2.176821	-2.739321
C	0.18564	-1.195019	-2.118828
N	0.658533	-2.120475	-2.663782
N	-0.383807	-1.258641	0.6234
H	0.389434	-1.549881	1.207794
H	-1.224598	-1.179248	1.177158
C	-0.531476	1.18091	0.66222
N	-0.972033	2.101748	1.247977
F	2.485768	0.0	0.0
