14

C	-0.406706	-0.072002	-1.454166
C	0.0	0.0	0.0
F	-1.792787	-0.201689	-1.613405
H	1.107855	0.0	0.0
C	-0.001354	1.141208	-2.188934
N	0.271698	2.113258	-2.788237
C	0.212519	-1.253201	-2.083648
N	0.652933	-2.179945	-2.653362
N	-0.379112	-1.241193	0.65946
H	0.381958	-1.500452	1.274379
H	-1.236674	-1.158468	1.188193
C	-0.53661	1.199086	0.624562
N	-0.982814	2.136036	1.180025
F	2.484562	0.0	0.0
