14

C	-0.553211	0.256636	-1.380758
C	0.0	0.0	0.0
F	-1.956469	0.215218	-1.379502
H	1.105613	0.0	0.0
C	-0.171355	1.584091	-1.896536
N	0.077336	2.648603	-2.324915
C	-0.104445	-0.787234	-2.319467
N	0.186795	-1.585792	-3.128907
N	-0.384021	-1.344402	0.410335
H	-1.216306	-1.353196	0.984731
H	0.394357	-1.731705	0.928957
C	-0.45079	1.044526	0.914445
N	-0.795416	1.847315	1.703034
F	2.485638	0.0	0.0
