15
Coordinates from ORCA-job run
  C   0.78406391763139      0.26531438610447     -0.26561592905188
  C   -0.56841864626838     -0.21497884090698      0.26769360336121
  Br  0.95721922397696      2.16250160429470     -0.40266706988340
  H   -0.66175110298818     -1.28653353479810      0.08723469360948
  C   1.84081472028366     -0.28209062296827      0.57115892634955
  N   2.68896711795542     -0.73398471909310      1.25056631971005
  N   0.98110938714939     -0.41835584081294     -1.68385794723308
  O   1.35515395394852      0.27172370965586     -2.60472190855708
  O   0.76435273462679     -1.61949180553637     -1.66667303952470
  N   -1.71784654569471      0.45097381888324     -0.44017364615536
  O   -2.69167732772526      0.76045800409916      0.22830016311995
  O   -1.57338612969237      0.54536160594411     -1.65247104887335
  N   -0.69131799666493     -0.00855866385971      1.74733600338490
  O   -0.62085065616852      1.14224280824629      2.15741303725901
  O   -0.84543265036981     -1.03358190925235      2.40547784248468
