15
Coordinates from ORCA-job run
  C   0.81262985728955      0.30898363078117     -0.12213782878370
  C   -0.51427561225173     -0.34404859940856      0.28039615743997
  Br  0.93613520443143      2.16530853755963      0.32593978091636
  H   -0.45406672678326     -1.42700949025448      0.18746517416119
  C   1.92534892889733     -0.41267614193891      0.47661651062516
  N   2.84389158438622     -0.99890211948267      0.92134997539329
  N   0.95953250189895      0.08198178562479     -1.67072081414188
  O   0.60958832322071     -1.03699977035350     -2.01810015188101
  O   1.43594420950249      0.97017072189911     -2.34145070134712
  N   -1.67973739323964      0.09776525946973     -0.55418699640510
  O   -2.69679890012250     -0.55787352523288     -0.36994804003379
  O   -1.52350373508260      1.04334003983967     -1.31659532437308
  N   -0.82639744965166     -0.03429992529165      1.72368628465992
  O   -1.67147367404979      0.81783716279630      1.95207408555496
  O   -0.15781711844550     -0.67357756600775      2.52661188821486
