15
Coordinates from ORCA-job run
  C   0.90707775727847      0.19069748265659     -0.10059284387328
  C   -0.53300876025404      0.46256187665863      0.34263992941433
  Br  2.08958857014431      1.56677820830349      0.58021476771716
  H   -0.77560786720364      1.52343647639594      0.30262809733380
  C   1.40530065818370     -1.12260269487589      0.25672321441597
  N   1.82818757458526     -2.18298367987804      0.54070393290853
  N   0.94469247258095      0.35515980446021     -1.64158256951891
  O   1.73833561109527     -0.33922432326314     -2.24923273394699
  O   0.19997809457916      1.21977927418672     -2.08086692536520
  N   -0.79225469375621     -0.02708276684417      1.75924311200748
  O   0.15351982538770      0.02962681127655      2.53145100933875
  O   -1.93689919115124     -0.37908028423343      2.00129973165819
  N   -1.50982606304160     -0.25664098196503     -0.54158047818742
  O   -2.55874375592274      0.32632345810876     -0.77372025271601
  O   -1.16134023250536     -1.36874866098720     -0.92732799118641
