16

C	-0.520338	0.086964	-1.417016
C	0.0	0.0	0.0
F	-1.946807	0.331008	-1.330157
H	1.092247	0.0	0.0
H	-0.344408	-0.952504	0.438683
C	0.070239	1.249859	-2.172338
H	-0.170033	2.16846	-1.639341
H	-0.339028	1.296534	-3.187504
H	1.154181	1.123397	-2.203226
N	-0.308858	-1.1378	-2.108029
H	-0.751981	-1.099959	-3.018054
H	-0.70653	-1.90479	-1.580094
N	-0.421303	1.173907	0.766777
H	0.282474	1.344323	1.474536
H	-1.31023	1.009674	1.218531
H	3.090769	0.0	0.0
