16

C	-0.369964	-0.052914	-1.467773
C	0.0	0.0	0.0
F	-1.784093	-0.074481	-1.576323
H	1.095722	0.0	0.0
H	-0.36556	0.933175	0.453383
C	0.135393	1.167035	-2.202347
H	-0.352182	2.064041	-1.813371
H	1.214528	1.256428	-2.049066
H	-0.088959	1.067958	-3.266612
N	0.108808	-1.257873	-2.101306
H	-0.090752	-1.998237	-1.430825
H	1.124771	-1.177039	-2.113263
N	-0.456161	-1.21021	0.689736
H	-1.351382	-1.054249	1.132955
H	0.223899	-1.437149	1.405166
H	3.034864	0.0	0.0
