16

C	-0.416928	-0.132736	-1.453837
C	0.0	0.0	0.0
F	-0.233091	-1.487711	-1.799787
H	1.100933	0.0	0.0
H	-0.329246	0.985484	0.350942
C	-1.876671	0.170781	-1.718895
H	-2.08513	1.228579	-1.527831
H	-2.113897	-0.058953	-2.760393
H	-2.493067	-0.4322	-1.050716
N	0.447446	0.618196	-2.330667
H	0.204749	1.600307	-2.267448
H	1.401941	0.520868	-1.976028
N	-0.622502	-1.033766	0.840665
H	-0.216656	-0.930496	1.765504
H	-0.260078	-1.914591	0.491066
H	3.103685	0.0	0.0
