16

C	-0.435656	-0.107362	-1.454315
C	0.0	0.0	0.0
F	-0.185972	-1.429721	-1.851087
H	1.092097	0.0	0.0
H	-0.383033	-0.851166	0.57846
C	-1.912443	0.146403	-1.679552
H	-2.1719	1.154546	-1.352888
H	-2.133463	0.036725	-2.74312
H	-2.50347	-0.57748	-1.110737
N	0.358479	0.738588	-2.320278
H	1.333309	0.542025	-2.081011
H	0.197311	1.688626	-1.996846
N	-0.403044	1.314042	0.535256
H	-1.175995	1.217983	1.180779
H	0.387484	1.678875	1.05503
H	3.047757	0.0	0.0
