16

C	-0.541789	-0.030098	-1.424379
C	0.0	0.0	0.0
F	-0.432775	1.270083	-1.933278
H	1.093263	0.0	0.0
H	-0.369053	0.91264	0.486381
C	0.267843	-0.95119	-2.30188
H	1.318205	-0.661372	-2.244321
H	-0.105816	-0.899669	-3.326584
H	0.178875	-1.975402	-1.932071
N	-1.95946	-0.36294	-1.515225
H	-2.457085	0.339826	-0.97271
H	-2.053279	-1.233874	-1.001129
N	-0.427588	-1.230649	0.69999
H	-1.073542	-1.003134	1.444936
H	0.402285	-1.622513	1.132154
H	3.072786	0.0	0.0
