17

C	0.0	0.0	0.0
C	-0.341836	-0.026937	-1.563346
Cl	1.810839	0.0	0.0
H	0.144095	-0.926641	-1.963593
H	-1.396843	-0.18652	-1.754368
N	-0.213369	1.339695	0.676712
H	-1.224749	1.4821	0.709496
H	0.04017	1.186658	1.65156
C	-0.29086	-1.344174	0.783877
H	0.153557	-1.269436	1.778786
H	0.125557	-2.175623	0.210548
H	-1.345892	-1.547902	0.920908
C	-0.00673	1.249552	-2.293643
H	-0.45574	1.198151	-3.293137
H	1.062998	1.433545	-2.380583
H	-0.469833	2.093832	-1.77347
Cl	-2.536437	0.0	0.0
