17

C	0.0	0.0	0.0
C	-0.421768	0.191314	-1.46376
Cl	1.810096	0.0	0.0
H	0.148827	-0.525806	-2.061949
H	-1.480246	-0.060986	-1.556648
N	-0.407887	1.007187	0.948942
H	-1.420585	0.977145	1.059056
H	-0.151477	1.924472	0.602219
C	-0.413932	-1.377946	0.508522
H	-1.496613	-1.497573	0.489533
H	0.038797	-2.15109	-0.120498
H	-0.046735	-1.495985	1.528659
C	-0.190415	1.588038	-2.03232
H	-0.439036	1.589861	-3.098942
H	-0.829577	2.329402	-1.547818
H	0.856481	1.886552	-1.931888
Cl	-3.693812	0.0	0.0
