17

C	0.0	0.0	0.0
C	-0.457733	-0.110446	-1.449217
Cl	1.870964	0.0	0.0
H	-1.539744	-0.281823	-1.387297
H	0.019068	-0.993505	-1.888188
N	-0.473558	1.190628	0.587697
H	-0.320246	1.223762	1.585544
H	-0.114002	2.023033	0.143423
C	-0.452273	-1.193491	0.813546
H	-0.076544	-1.123548	1.838495
H	-0.081158	-2.120776	0.37464
H	-1.547139	-1.184611	0.818236
C	-0.190895	1.121012	-2.304684
H	-0.808422	1.957265	-1.971094
H	0.862047	1.412313	-2.282685
H	-0.463918	0.918867	-3.343179
Cl	-4.056772	0.0	0.0
