17

C	0.0	0.0	0.0
C	-0.453893	0.020733	-1.453386
Cl	1.866426	0.0	0.0
H	0.00461	0.891745	-1.93651
H	-1.53772	0.178629	-1.404118
N	-0.47287	1.155991	0.653117
H	-0.195815	1.20733	1.622132
H	-0.256343	2.009774	0.160609
C	-0.447056	-1.235727	0.751482
H	-1.539813	-1.270437	0.691422
H	-0.003916	-2.137461	0.328419
H	-0.142809	-1.168654	1.799664
C	-0.132992	-1.24048	-2.24529
H	-0.364659	-1.088698	-3.302561
H	0.923373	-1.509604	-2.165195
H	-0.737857	-2.080036	-1.898774
Cl	-4.06796	0.0	0.0
