17

C	0.0	0.0	0.0
C	-0.448343	0.061974	-1.46371
Cl	1.811694	0.0	0.0
H	-0.013037	0.969431	-1.900908
H	-1.534121	0.195384	-1.421289
N	-0.461304	1.133605	0.769126
H	-0.308923	1.97683	0.223336
H	-1.474866	1.011127	0.839899
C	-0.454525	-1.266822	0.701679
H	-0.013572	-2.15399	0.246407
H	-0.150712	-1.216488	1.748918
H	-1.544849	-1.316356	0.639541
C	-0.114447	-1.14693	-2.328629
H	0.954951	-1.372893	-2.315739
H	-0.663903	-2.028271	-1.992546
H	-0.409454	-0.957692	-3.365129
Cl	-3.772997	0.0	0.0
