14

C	0.0	0.0	0.0
C	-0.581476	0.619435	-1.247644
Br	1.931681	0.0	0.0
H	-0.120925	0.141397	-2.115561
H	-0.332142	0.47532	0.920344
H	-0.277015	1.671236	-1.248757
N	-0.417305	-1.445008	0.122253
O	-0.842888	-1.799119	1.216503
O	-0.286596	-2.149811	-0.871306
C	-2.103087	0.482263	-1.280638
H	-2.418042	-0.545903	-1.453143
H	-2.519969	1.086704	-2.088086
H	-2.601187	0.79652	-0.363257
Cl	-5.286752	0.0	0.0
