14

C	0.0	0.0	0.0
C	-0.550727	-0.187184	-1.390423
Br	1.934891	0.0	0.0
H	-1.593389	-0.484674	-1.250402
H	-0.35052	0.900884	0.496782
H	-0.004769	-0.99026	-1.889443
N	-0.376292	-1.140254	0.916188
O	-0.423884	-2.260723	0.423008
O	-0.542072	-0.859069	2.09753
C	-0.513675	1.11476	-2.178889
H	0.492172	1.540242	-2.238455
H	-0.870152	0.944676	-3.197462
H	-1.186525	1.838095	-1.713889
Cl	-3.569856	0.0	0.0
