15

C	0.0	0.0	0.0
C	-0.527972	-0.152004	-1.448562
Br	1.962094	0.0	0.0
H	-1.61498	0.031356	-1.325215
C	-0.38953	1.287142	0.580787
N	-0.568024	2.348743	1.053468
C	-0.413052	-1.118558	0.848424
N	-0.574164	-2.068716	1.522502
C	-0.324922	-1.554524	-2.012819
H	-0.693365	-1.582282	-3.040018
H	-0.909169	-2.264003	-1.423773
H	0.726801	-1.849533	-2.009547
C	0.049636	0.872385	-2.310146
N	0.495098	1.669858	-3.05015
Cl	-3.296127	0.0	0.0
