17

C	0.0	0.0	0.0
C	-0.431734	0.134767	-1.496226
F	1.392654	0.0	0.0
H	-1.519498	0.303285	-1.485089
N	-0.476395	1.041817	0.837878
H	-0.365689	1.944042	0.389156
H	-1.479563	0.888424	0.962239
C	-0.445267	-1.346903	0.531611
H	-0.208174	-1.364419	1.59683
H	-1.520497	-1.474611	0.400644
H	0.101699	-2.145424	0.028566
C	-0.089447	-1.032626	-2.296549
N	0.137863	-1.997982	-2.925616
N	0.234154	1.339949	-2.093486
O	1.17473	1.171622	-2.864445
O	-0.196253	2.433142	-1.727115
Br	-3.726916	0.0	0.0
