17

C	0.0	0.0	0.0
C	-0.28917	-0.153168	-1.537702
F	1.409485	0.0	0.0
H	-0.267385	0.853512	-1.960887
N	-0.481172	1.278366	0.407803
H	-1.489572	1.279247	0.210148
H	-0.411046	1.331366	1.420373
C	-0.432923	-1.189399	0.824218
H	-0.022543	-2.112841	0.413563
H	-1.524235	-1.22866	0.836264
H	-0.061034	-1.054859	1.84538
C	-1.440218	-0.900456	-2.037599
N	-2.154655	-1.561226	-2.700188
N	0.903932	-0.860355	-2.162223
O	1.030965	-2.056382	-1.92763
O	1.647541	-0.179538	-2.859759
Br	-3.731918	0.0	0.0
