17

C	0.0	0.0	0.0
C	-0.432709	0.138584	-1.495204
F	1.392524	0.0	0.0
H	-1.519419	0.311738	-1.482547
N	-0.464886	1.046245	0.841347
H	-0.318465	1.948734	0.40452
H	-1.472219	0.918962	0.950268
C	-0.453926	-1.342713	0.531107
H	-1.53278	-1.446491	0.411246
H	0.070064	-2.14598	0.012466
H	-0.201738	-1.372209	1.592012
C	-0.093172	-1.030819	-2.295069
N	0.145856	-2.000898	-2.912512
N	0.238643	1.340721	-2.094308
O	-0.180761	2.435824	-1.722012
O	1.172639	1.167061	-2.872365
Br	-3.72282	0.0	0.0
