17

C	0.0	0.0	0.0
C	-0.326604	0.084336	-1.538721
F	1.379398	0.0	0.0
H	0.622346	0.413464	-1.968927
N	-0.458063	1.228462	0.577791
H	-0.19679	1.227864	1.559232
H	-1.483247	1.207537	0.538075
C	-0.449769	-1.270396	0.689435
H	-1.537622	-1.342615	0.631121
H	0.028584	-2.147946	0.253901
H	-0.152738	-1.197013	1.739826
C	-1.330538	1.033281	-2.005862
N	-1.931704	1.877382	-2.559444
N	-0.538692	-1.273122	-2.158075
O	0.445679	-2.012167	-2.121805
O	-1.623881	-1.546077	-2.652451
Br	-3.708619	0.0	0.0
