15
Coordinates from ORCA-job run
  C   -0.29314282915482      0.33623740438409     -0.04967232411464
  C   1.02639040086981      0.09479387654978     -0.15582670688618
  H   1.65900650125579      0.93218164631770     -0.45247810393830
  C   -0.84747335501195      1.70713728607362     -0.33418238074500
  H   -0.06136551339151      2.41111614673718     -0.61449562826126
  H   -1.58044300532369      1.67013940874244     -1.14746925632919
  H   -1.36809308323247      2.10713086580482      0.54275506967360
  C   -1.32974554517221     -0.68072335608749      0.34445386882619
  H   -0.91434711452536     -1.66792031478186      0.54239444915883
  H   -2.08089491559657     -0.78280992154162     -0.44617194590435
  H   -1.86319808760815     -0.35193670839463      1.24278194514951
  C   1.75655212451975     -1.19310557773845      0.08645244698128
  H   2.50887480428587     -1.06687580481705      0.87132617408363
  H   1.09796246035774     -2.00788585458748      0.38532849607315
  H   2.29091715772777     -1.50847909666107     -0.81519610376726
