15
Coordinates from ORCA-job run
  C   -0.28641074582108      0.34384475547827      0.02902482751113
  C   1.00961105904610      0.10293862393944     -0.24115284211976
  H   1.63515040328038      0.96542857129814     -0.47388147353555
  C   -1.30948456658480     -0.70478664714968      0.37186610225508
  H   -0.90626116818165     -1.71650613647004      0.38543970720926
  H   -2.13497285873839     -0.67964009314931     -0.34761222415608
  H   -1.74519577811677     -0.50150769968264      1.35606550500688
  C   -0.82579098710746      1.74976510386677      0.00591371806273
  H   -0.05102160816569      2.47592187613139     -0.24826339722682
  H   -1.24461729980213      2.02284363064879      0.98068947199243
  H   -1.63700930687842      1.84489148445391     -0.72413748088173
  C   1.72098802249846     -1.21773960230746     -0.26567627742418
  H   1.06895783348332     -2.05802479984845     -0.02947833150802
  H   2.15874976558205     -1.40151007920501     -1.25190542568984
  H   2.54730723550609     -1.22391898800412      0.45210812050447
