14

C	-0.204675	0.10332	-1.521939
C	0.0	0.0	0.0
F	-0.099892	-1.224299	-2.020277
H	1.092283	0.0	0.0
H	-1.205419	0.424913	-1.826038
N	0.814211	0.955462	-1.974339
H	0.880545	0.971714	-2.981651
H	1.701622	0.693796	-1.512923
N	-0.633157	-1.251135	0.50036
O	-1.867204	-1.280136	0.519598
O	0.10001	-2.177341	0.829575
C	-0.568001	1.140663	0.686416
N	-1.013258	2.0722	1.247663
F	2.580203	0.0	0.0
