14

C	-0.514145	0.017105	-1.429519
C	0.0	0.0	0.0
F	-1.877959	-0.419757	-1.423233
H	1.092254	0.0	0.0
H	-0.578051	1.05327	-1.769072
N	0.279663	-0.736002	-2.320319
H	0.566133	-1.601586	-1.886499
H	-0.234633	-0.918076	-3.171974
N	-0.352887	-1.265719	0.684825
O	-0.735122	-1.225119	1.852968
O	-0.16683	-2.308078	0.055271
C	-0.524502	1.124519	0.746516
N	-0.907913	2.093846	1.289797
F	2.452921	0.0	0.0
