14

C	-0.208752	0.096336	-1.516858
C	0.0	0.0	0.0
F	-0.04361	-1.224474	-2.012625
H	1.092333	0.0	0.0
H	-1.220805	0.376655	-1.823266
N	0.777339	0.992446	-1.966579
H	0.849297	1.007204	-2.973627
H	1.671481	0.746536	-1.512566
N	-0.64071	-1.241038	0.517929
O	-1.865863	-1.320887	0.399345
O	0.076457	-2.102556	1.014299
C	-0.557767	1.146258	0.68575
N	-0.994747	2.077794	1.253718
F	2.573749	0.0	0.0
