14

C	-0.318377	-0.087143	-1.492821
C	0.0	0.0	0.0
F	-1.664733	-0.448661	-1.650402
H	1.091664	0.0	0.0
H	-0.235538	0.925559	-1.897538
N	0.522596	-0.976876	-2.222685
H	1.201903	-0.432277	-2.732467
H	1.032289	-1.561207	-1.577973
N	-0.441099	-1.222512	0.706189
O	-1.084381	-1.116444	1.750316
O	-0.091219	-2.292415	0.21218
C	-0.571501	1.177916	0.614699
N	-0.970235	2.188147	1.063759
F	2.490128	0.0	0.0
