18

C	-0.070147	0.068918	-1.541353
C	0.0	0.0	0.0
Cl	-1.753566	0.464511	-2.146041
H	1.093406	0.0	0.0
N	0.807343	1.178987	-1.850204
H	0.977279	1.19349	-2.850114
H	1.693924	0.949972	-1.360297
C	0.369532	-1.230098	-2.194878
H	0.456529	-1.078401	-3.274737
H	-0.315637	-2.057782	-2.009819
H	1.350433	-1.456931	-1.769156
N	-0.609647	-1.257876	0.494959
O	0.067865	-2.286734	0.473798
O	-1.783131	-1.209608	0.870681
N	-0.529212	1.109657	0.72672
H	0.136469	1.863897	0.626099
H	-1.413117	1.404609	0.327797
F	2.657923	0.0	0.0
