18

C	-0.231072	-0.068075	-1.537745
C	0.0	0.0	0.0
Cl	-0.109988	1.665193	-2.117785
H	1.096412	0.0	0.0
N	0.843309	-0.775572	-2.183634
H	0.677723	-1.761312	-2.004495
H	1.698445	-0.535426	-1.65573
C	-1.601227	-0.55611	-1.956624
H	-2.367045	0.027972	-1.44406
H	-1.714464	-0.444173	-3.036152
H	-1.711665	-1.611072	-1.696415
N	-0.402905	-1.280235	0.629337
O	-0.169687	-2.336625	0.033056
O	-0.884214	-1.246624	1.767236
N	-0.693949	1.076521	0.682363
H	-0.172636	1.918926	0.466455
H	-0.585181	0.910801	1.67584
F	2.617212	0.0	0.0
