18

C	-0.427833	-0.041344	-1.459386
C	0.0	0.0	0.0
Cl	0.265968	-1.590825	-2.208463
H	1.092673	0.0	0.0
N	-1.842261	0.03712	-1.645311
H	-2.051347	0.117944	-2.633418
H	-2.260155	-0.814583	-1.291144
C	0.316549	1.08709	-2.151569
H	1.362745	1.016737	-1.843262
H	0.228745	0.991706	-3.237353
H	-0.099426	2.036972	-1.817925
N	-0.51401	-1.156688	0.817071
O	-1.336229	-1.952739	0.34396
O	-0.118024	-1.208559	1.980774
N	-0.42222	1.23647	0.598582
H	-1.410382	1.235631	0.820298
H	0.132009	1.391256	1.429673
F	2.593291	0.0	0.0
