18

C	-0.44839	-0.051437	-1.479357
C	0.0	0.0	0.0
Cl	-0.299744	-1.750602	-2.076443
H	1.098454	0.0	0.0
N	-1.809279	0.366933	-1.753009
H	-2.433761	-0.171469	-1.159192
H	-1.86512	1.33452	-1.450011
C	0.554476	0.801939	-2.237934
H	0.399412	1.847769	-1.960483
H	1.558449	0.516342	-1.911155
H	0.412221	0.682539	-3.313253
N	-0.585616	-1.158108	0.754902
O	0.128219	-2.101795	1.073362
O	-1.801984	-1.097024	1.007828
N	-0.452384	1.24896	0.566356
H	0.213263	1.518138	1.279643
H	-1.369771	1.141021	0.981127
F	2.628502	0.0	0.0
