18

C	-0.415091	0.057649	-1.471605
C	0.0	0.0	0.0
Cl	-0.015698	-1.615433	-2.197258
H	1.089995	0.0	0.0
N	-1.787479	0.375109	-1.673388
H	-2.371878	-0.326476	-1.234891
H	-1.991109	0.413635	-2.664482
C	0.527271	1.035383	-2.148436
H	0.265214	2.038986	-1.809288
H	1.542297	0.797135	-1.813936
H	0.438401	0.973636	-3.23686
N	-0.582628	-1.236889	0.651126
O	0.164001	-2.081274	1.130015
O	-1.82246	-1.304234	0.704901
N	-0.448334	1.183929	0.667654
H	-1.444312	1.171792	0.842233
H	0.077861	1.300695	1.523151
F	2.632279	0.0	0.0
