18

C	-0.078778	-0.066872	-1.540053
C	0.0	0.0	0.0
Cl	-1.767584	0.287092	-2.16535
H	1.096456	0.0	0.0
N	0.803466	1.003286	-1.956553
H	0.981892	0.912417	-2.950745
H	1.68606	0.824399	-1.441671
C	0.34311	-1.422832	-2.079229
H	0.411574	-1.370607	-3.169911
H	-0.343411	-2.225454	-1.808403
H	1.330141	-1.6184	-1.651686
N	-0.612798	-1.20752	0.606331
O	-1.786698	-1.124288	0.974865
O	0.064219	-2.234814	0.67901
N	-0.520211	1.172229	0.62798
H	-1.385051	1.460779	0.185396
H	0.16866	1.900938	0.499273
F	2.652509	0.0	0.0
