18

C	-0.374616	-0.06684	-1.476235
C	0.0	0.0	0.0
Cl	-2.241838	-0.623713	-1.583262
H	1.09158	0.0	0.0
N	-0.238787	1.220091	-2.004553
H	-0.588771	1.287512	-2.948913
H	-0.634401	1.907758	-1.376171
C	0.434295	-1.06595	-2.272786
H	0.318582	-0.869026	-3.343021
H	0.146054	-2.089505	-2.056608
H	1.468969	-0.900393	-1.95347
N	-0.402332	-1.25142	0.723156
O	-0.014284	-2.326525	0.274788
O	-1.062344	-1.141518	1.761122
N	-0.520617	1.172799	0.633554
H	0.143873	1.464244	1.338577
H	-1.399864	0.962512	1.089926
F	2.570897	0.0	0.0
