15

C	-0.193701	0.159076	-1.508937
C	0.0	0.0	0.0
F	-0.092097	1.501207	-1.836028
H	1.091777	0.0	0.0
H	-0.314826	-1.027146	0.261828
N	0.907351	-0.489833	-2.209829
H	1.758761	-0.276558	-1.656334
H	0.775264	-1.490769	-2.103199
N	-1.492191	-0.270287	-1.992413
H	-1.667303	-1.206901	-1.645805
H	-1.428544	-0.322704	-3.004778
N	-0.59702	1.035947	0.827578
H	-1.484162	0.731785	1.207889
H	0.034014	1.217402	1.596379
F	2.768542	0.0	0.0
