15

C	-0.223364	-0.080616	-1.502448
C	0.0	0.0	0.0
F	-1.462654	-0.766962	-1.782921
H	1.092333	0.0	0.0
H	-0.354511	-0.941667	0.437536
N	-0.239436	1.210856	-2.068572
H	-0.489947	1.144623	-3.045462
H	-0.874825	1.790218	-1.536331
N	0.808163	-0.872128	-2.139351
H	1.680078	-0.579554	-1.669529
H	0.656278	-1.832377	-1.846265
N	-0.594243	1.187246	0.627447
H	-1.307002	0.916838	1.291853
H	0.14172	1.656408	1.140456
F	2.75458	0.0	0.0
