15

C	-0.63374	0.05709	-1.377414
C	0.0	0.0	0.0
F	-0.171683	1.234462	-2.001973
H	1.093364	0.0	0.0
H	-0.342669	0.895734	0.548996
N	-0.301509	-1.057507	-2.209626
H	-1.152474	-1.56216	-2.433643
H	0.253243	-1.677095	-1.636082
N	-2.084688	0.184665	-1.286414
H	-2.266062	1.023905	-0.749982
H	-2.439316	0.363061	-2.226683
N	-0.360767	-1.263932	0.652431
H	-1.257117	-1.215163	1.096963
H	0.360552	-1.484035	1.335835
F	2.709105	0.0	0.0
