15

C	-0.558419	-0.000501	-1.398071
C	0.0	0.0	0.0
F	-2.038527	-0.122178	-1.240388
H	1.090602	0.0	0.0
H	-0.36304	0.911554	0.500457
N	-0.33019	1.214633	-2.09773
H	-0.509362	1.08149	-3.08388
H	-0.945587	1.929242	-1.734226
N	-0.123065	-1.119721	-2.146669
H	-0.857076	-1.388183	-2.790769
H	0.015128	-1.868836	-1.474718
N	-0.417334	-1.240815	0.665865
H	0.237831	-1.412034	1.416724
H	-1.349817	-1.153246	1.046203
F	2.735138	0.0	0.0
