15
Coordinates from ORCA-job run
  C   0.91875782543010      0.35389265349502     -0.15553381779568
  C   -0.53186706553925      0.13175026087007     -0.61833999929672
  Cl  1.85992690435975      1.17734081919506     -1.39901201944495
  H   -0.90477522037597      1.11913767591319     -0.91080033197227
  C   1.56691324191058     -0.89073318881959      0.22946493306675
  N   2.05301721785218     -1.92729867023437      0.49725253540861
  N   0.83483539418869      1.28230837203313      1.07399865631295
  O   0.29393569265054      2.35846987075696      0.87316405147646
  O   1.26829197293190      0.84866740661298      2.13194498295498
  C   -1.40140239868958     -0.45731919756709      0.49681634001918
  H   -1.00207889442117     -1.41215852362588      0.84376279735653
  H   -1.47031096643904      0.23229437671858      1.33961659770136
  H   -2.40932441142408     -0.62491001690052      0.11508772202534
  C   -0.52548234244606     -0.73679532313118     -1.79420769013422
  N   -0.55143694998858     -1.45464651531636     -2.72321475767831
