15
Coordinates from ORCA-job run
  C   0.92430631680499      0.35931379125075     -0.10465942315434
  C   -0.50213118232759      0.14274126623277     -0.63961949035010
  Cl  1.91949229087384      1.21106734492098     -1.28546413813695
  H   -0.86453790452478      1.13475097469940     -0.92991212151954
  C   1.55827924608776     -0.89128593846629      0.28443403545075
  N   2.03485352330852     -1.93188039884680      0.55371564936701
  N   0.77928425555190      1.26156708403495      1.13824102339720
  O   0.24500500706405      2.34052757135521      0.93469931787665
  O   1.16251652991128      0.80621027739546      2.20638788574618
  C   -1.42156396762495     -0.47063704672892      0.42098969839723
  H   -1.53458266349186      0.20299013102461      1.27199833498502
  H   -1.03499350509487     -1.43012977298529      0.76956426475550
  H   -2.40899696763940     -0.63437908679886     -0.01250697776532
  C   -0.43763712698516     -0.70111796652453     -1.83168187558409
  N   -0.41929385191373     -1.39873823056346     -2.77618618346520
