15
Coordinates from ORCA-job run
  C   0.63627919146772      0.47434416824528      0.38852545796089
  C   -0.43245172796346     -0.45556272861588     -0.22255769374156
  Cl  -0.06757929320482      1.72997308870773      1.38599088305927
  H   0.12540242695215     -1.22169642513237     -0.77290875593974
  C   1.46246193947175      1.05950565914800     -0.66005033838475
  N   2.09211214990252      1.54364459750102     -1.52673041443531
  N   1.56851389097688     -0.43681560669835      1.24283488315602
  O   2.19820552543724     -1.24032417143197      0.56793523604285
  O   1.56546457420778     -0.30762118219869      2.45171919780007
  C   -1.37689780402911      0.27882437479148     -1.17524842572964
  H   -0.81015378234682      0.74979678581451     -1.98063202770788
  H   -2.07075040251990     -0.43863277102529     -1.61564643075669
  H   -1.95264169440782      1.03869649247670     -0.64759310458370
  C   -1.16485491286824     -1.11877452423705      0.85713238968458
  N   -1.77311008107586     -1.65435775734512      1.70722914357559
