19

C	0.0	0.0	0.0
C	-0.205573	0.245616	-1.533992
Cl	1.870644	0.0	0.0
H	0.540354	0.977456	-1.843321
C	-0.490526	1.113515	0.894026
H	-0.145716	0.922642	1.914168
H	-1.585464	1.107544	0.861442
H	-0.119585	2.080982	0.565364
N	-0.53799	-1.223034	0.397748
H	-0.073203	-2.051329	0.067433
H	-0.835809	-1.275496	1.357403
N	-1.485143	0.965038	-1.915366
O	-2.272748	0.401104	-2.662863
O	-1.567031	2.133222	-1.538282
C	-0.089554	-1.028856	-2.343736
H	-0.107079	-0.80311	-3.410329
H	-0.933471	-1.679867	-2.120756
H	0.852039	-1.5313	-2.113031
Br	-4.179698	0.0	0.0
