19

C	0.0	0.0	0.0
C	-0.540448	-0.078896	-1.437746
Cl	1.800949	0.0	0.0
H	-1.625513	-0.195265	-1.32533
C	-0.442506	1.307874	0.647973
H	-1.534529	1.353334	0.610047
H	-0.003337	2.181619	0.163498
H	-0.120882	1.301987	1.69316
N	-0.439475	-1.182926	0.698179
H	-0.223033	-1.076871	1.683858
H	-1.45753	-1.224682	0.608126
N	-0.07498	-1.342372	-2.09749
O	0.978527	-1.300713	-2.737858
O	-0.781147	-2.340279	-1.974246
C	-0.21295	1.104739	-2.322577
H	0.856268	1.316959	-2.329606
H	-0.531383	0.896568	-3.34627
H	-0.766335	1.977251	-1.973424
Br	-3.857671	0.0	0.0
