19

C	0.0	0.0	0.0
C	-0.541664	0.053213	-1.438306
Cl	1.801542	0.0	0.0
H	-1.625699	-0.084419	-1.33796
C	-0.440305	1.242969	0.767197
H	-0.00672	2.158337	0.361444
H	-0.111915	1.142085	1.805254
H	-1.532729	1.286545	0.739032
N	-0.437705	-1.241603	0.588607
H	-1.455637	-1.276416	0.495697
H	-0.220006	-1.225096	1.579621
N	-0.061455	-1.135453	-2.215755
O	0.985644	-1.016121	-2.857626
O	-0.748277	-2.15372	-2.177774
C	-0.228303	1.321432	-2.203443
H	-0.803039	2.145325	-1.778862
H	-0.532427	1.206554	-3.245977
H	0.836541	1.553682	-2.177524
Br	-3.852828	0.0	0.0
