19

C	0.0	0.0	0.0
C	-0.474021	0.097259	-1.482987
Cl	1.803803	0.0	0.0
H	-1.534389	-0.178802	-1.44595
C	-0.448142	1.233421	0.769215
H	0.026233	2.138443	0.391324
H	-1.535988	1.31229	0.699224
H	-0.162325	1.088969	1.812312
N	-0.469472	-1.160442	0.69828
H	-1.482476	-1.042536	0.790086
H	-0.31748	-1.983519	0.126341
N	0.197992	-0.968124	-2.293202
O	1.007208	-0.634092	-3.159424
O	-0.086973	-2.139416	-2.030536
C	-0.302202	1.444847	-2.147255
H	0.720984	1.811966	-2.059312
H	-0.995345	2.14718	-1.685365
H	-0.551175	1.372928	-3.206592
Br	-3.804699	0.0	0.0
