19

C	0.0	0.0	0.0
C	-0.518443	-0.02851	-1.447124
Cl	1.857691	0.0	0.0
H	-1.568297	-0.343377	-1.343262
C	-0.445105	1.260839	0.714459
H	-0.143935	1.194636	1.763136
H	0.007359	2.154251	0.28562
H	-1.538055	1.294719	0.65878
N	-0.472393	-1.121692	0.708585
H	-0.137462	-1.13969	1.660482
H	-0.305853	-1.995655	0.232772
N	0.179503	-1.116842	-2.215306
O	0.011823	-2.27596	-1.831011
O	0.881673	-0.80703	-3.175537
C	-0.424158	1.283138	-2.191155
H	0.588255	1.690388	-2.16928
H	-1.12585	1.983005	-1.738308
H	-0.716836	1.140405	-3.231323
Br	-3.955317	0.0	0.0
