19

C	0.0	0.0	0.0
C	-0.506408	-0.075922	-1.451369
Cl	1.857916	0.0	0.0
H	-1.560904	-0.375786	-1.35202
C	-0.438604	1.291363	0.663718
H	-0.143652	1.261795	1.715727
H	-1.530275	1.332065	0.601815
H	0.023468	2.163369	0.203302
N	-0.48325	-1.089481	0.743598
H	-0.163546	-1.08204	1.700268
H	-0.340905	-1.982688	0.297206
N	0.186445	-1.19991	-2.172027
O	0.002821	-2.342166	-1.74607
O	0.899556	-0.934408	-3.137813
C	-0.387649	1.205774	-2.242258
H	0.629327	1.600367	-2.225594
H	-1.083879	1.932025	-1.82357
H	-0.671332	1.027723	-3.279247
Br	-3.966699	0.0	0.0
