19

C	0.0	0.0	0.0
C	-0.399816	0.028308	-1.490914
Cl	1.845103	0.0	0.0
H	-0.117976	-0.935309	-1.92113
C	-0.490405	1.175896	0.817014
H	-0.16824	2.116244	0.375753
H	-0.086268	1.104124	1.830878
H	-1.583299	1.140495	0.862492
N	-0.521257	-1.205749	0.527061
H	-0.540372	-1.213536	1.536812
H	-0.049803	-2.026952	0.173682
N	0.421316	1.006315	-2.279585
O	1.082451	0.560669	-3.217699
O	0.352239	2.195719	-1.973779
C	-1.863923	0.34101	-1.718114
H	-2.515708	-0.27698	-1.099635
H	-2.113973	0.174315	-2.768807
H	-2.082659	1.379008	-1.472458
Br	-4.944973	0.0	0.0
