14

C	0.0	0.0	0.0
C	-0.516745	-0.191761	-1.418635
F	1.383246	0.0	0.0
H	-0.048279	-1.109776	-1.790023
H	-0.118301	0.644398	-2.003106
C	-0.43302	1.29152	0.566027
N	-0.692957	2.357826	0.983314
C	-0.415986	-1.106897	0.884374
N	-0.660572	-2.027668	1.570503
C	-2.036904	-0.260137	-1.486155
H	-2.356244	-0.364809	-2.524684
H	-2.446955	-1.103822	-0.930954
H	-2.530746	0.620011	-1.074737
Cl	-5.093541	0.0	0.0
