14

C	0.0	0.0	0.0
C	-0.473418	0.129291	-1.442001
F	1.384353	0.0	0.0
H	0.016355	1.029248	-1.829997
H	-1.552928	0.288757	-1.406545
C	-0.413424	1.155453	0.817429
N	-0.540693	2.130793	1.458942
C	-0.403363	-1.271366	0.634463
N	-0.534503	-2.329345	1.125982
C	-0.121278	-1.09662	-2.2739
H	0.941894	-1.342922	-2.20718
H	-0.363797	-0.910906	-3.32301
H	-0.704889	-1.959223	-1.945916
Cl	-3.408928	0.0	0.0
