14

C	0.0	0.0	0.0
C	-0.490156	-0.225848	-1.422679
F	1.384676	0.0	0.0
H	-0.003103	-1.147313	-1.761426
H	-1.568453	-0.388477	-1.356076
C	-0.409582	1.299451	0.565297
N	-0.560516	2.36867	1.025542
C	-0.388587	-1.101729	0.902798
N	-0.497648	-2.012857	1.634443
C	-0.167795	0.947486	-2.337076
H	0.89584	1.195305	-2.328291
H	-0.739088	1.828285	-2.036885
H	-0.45406	0.702084	-3.362584
Cl	-3.4454	0.0	0.0
