14

C	0.0	0.0	0.0
C	-0.509656	0.140808	-1.427892
F	1.383298	0.0	0.0
H	-0.037578	1.045084	-1.827345
H	-0.106917	-0.715023	-1.980255
C	-0.422499	1.136845	0.840995
N	-0.670811	2.084793	1.487699
C	-0.42912	-1.273297	0.608898
N	-0.689315	-2.323463	1.064772
C	-2.029234	0.209158	-1.507283
H	-2.527674	-0.652006	-1.062624
H	-2.439264	1.075428	-0.988783
H	-2.342755	0.268349	-2.551207
Cl	-5.077577	0.0	0.0
