16

C	-0.482658	-0.030919	-1.447003
C	0.0	0.0	0.0
Cl	-0.051785	1.513915	-2.240498
H	1.091231	0.0	0.0
H	0.090331	-0.787284	-1.986935
N	-1.926841	-0.19256	-1.53179
H	-2.124219	-1.16118	-1.303935
H	-2.214816	-0.041631	-2.491611
N	-0.361589	-1.320619	0.625936
O	-0.543197	-2.287915	-0.121882
O	-0.409066	-1.388082	1.849843
C	-0.541592	1.134008	0.842153
H	-0.174101	1.036312	1.861473
H	-0.175454	2.076584	0.437683
H	-1.633066	1.13928	0.83584
Br	3.472242	0.0	0.0
