16

C	-0.516843	0.038768	-1.439147
C	0.0	0.0	0.0
Cl	0.085551	-1.421871	-2.308591
H	1.091819	0.0	0.0
H	-1.608499	-0.052525	-1.43188
N	-0.122522	1.217605	-2.172547
H	0.871108	1.388172	-2.014926
H	-0.660307	2.011636	-1.834248
N	-0.47256	-1.277567	0.64367
O	0.335149	-1.945284	1.28214
O	-1.677273	-1.540099	0.533063
C	-0.553331	1.142404	0.826363
H	-0.13761	2.075691	0.447199
H	-0.229333	1.042925	1.86429
H	-1.64636	1.182089	0.776464
Br	3.473787	0.0	0.0
