16

C	-0.516803	-0.008903	-1.431632
C	0.0	0.0	0.0
Cl	0.129012	1.474635	-2.288817
H	1.091805	0.0	0.0
H	-0.06601	-0.842479	-1.962659
N	-1.937955	-0.109928	-1.479448
H	-2.253279	-0.239999	-2.431679
H	-2.366882	0.731434	-1.115298
N	-0.387073	-1.336163	0.577078
O	-0.90852	-1.369446	1.691455
O	-0.131045	-2.329224	-0.099056
C	-0.515401	1.124978	0.869438
H	-0.241384	2.076148	0.411349
H	-0.039851	1.071027	1.847652
H	-1.596727	1.074931	1.016736
Br	3.488105	0.0	0.0
