16

C	-0.504556	-0.001605	-1.437665
C	0.0	0.0	0.0
Cl	0.11376	1.461545	-2.266031
H	1.091169	0.0	0.0
H	-0.040959	-0.836063	-1.966672
N	-1.95549	0.029028	-1.505583
H	-2.232408	0.138196	-2.474748
H	-2.276463	-0.881153	-1.194597
N	-0.37485	-1.304922	0.644773
O	-0.838195	-2.20869	-0.05892
O	-0.171986	-1.418128	1.846792
C	-0.511534	1.139826	0.859282
H	-0.059707	1.074587	1.847618
H	-0.207203	2.08268	0.406088
H	-1.599955	1.120499	0.937446
Br	3.479097	0.0	0.0
