14
Coordinates from ORCA-job run
  C   -0.21550823889055      0.33519469830295      0.21083606387715
  C   0.80766020736614     -0.82009661991205      0.19927364966739
  F   0.09841953833733      1.07742667995448      1.34732426065062
  H   0.75636147259986     -1.36291889132123      1.14679651873005
  H   0.56502257539935     -1.51815376526421     -0.60712793112705
  C   -1.62630926764627     -0.19040751930369      0.36650917323996
  H   -1.70443586582273     -0.79340275907052      1.27223051288821
  H   -2.30468079394455      0.65905719986926      0.44503789613097
  H   -1.91825385680050     -0.80263722698304     -0.49024741697076
  N   -0.14077775811396      1.23638893029116     -0.89804053750013
  H   0.81140513968133      1.53739947829746     -1.06981921340431
  H   -0.52496867596099      0.82691172014151     -1.73834212708584
  C   2.16337851320749     -0.31561732540774      0.00163657147750
  N   3.23168701058805      0.13085540040565     -0.18806742057377
