14
Coordinates from ORCA-job run
  C   -0.23503056402454      0.34124847596294      0.17735187385998
  C   0.83259598297442     -0.76766261597443      0.28720419074604
  F   0.01463853722248      1.18392340503962      1.25842599136141
  H   0.64177042977141     -1.53797978907211     -0.46556239193179
  H   0.77431115774590     -1.23406136206802      1.27427191545047
  C   -1.62849833456726     -0.22789543887389      0.33579241263037
  H   -1.70918608266163     -0.76663137596481      1.28095375476320
  H   -1.87335394443363     -0.91106080470365     -0.48110238668296
  H   -2.34007707908606      0.59771822332899      0.33514166853369
  N   -0.16105300695457      1.15454645031606     -0.99787307819196
  H   -0.49959253885776      0.66302115526084     -1.81345507075005
  H   0.78357702729601      1.48156992995206     -1.16466475381171
  C   2.17247696974904     -0.22401443833042      0.08569873551101
  N   3.22742144582620      0.25027818512683     -0.11118286148771
