14
Coordinates from ORCA-job run
  C   -0.21662687852389      0.50048757077277      0.28810404256832
  C   1.10397191173803     -0.17268265050830      0.67774806482698
  F   -0.54615287838930      1.31031542337293      1.37648926142078
  H   0.96179821527574     -0.71817090956326      1.61333548641545
  H   1.84112958454158      0.61569282318336      0.84830650378921
  C   -1.35910151180716     -0.48567761751146      0.12734153398469
  H   -1.49950424159296     -1.07228064681758      1.03769561718602
  H   -2.28096980313076      0.06729192218921     -0.06717908833463
  H   -1.17103132703837     -1.16127405470012     -0.70898372784668
  N   0.01394142061207      1.37233763299747     -0.82767819372790
  H   0.52110898459485      0.90059189249617     -1.56579555871355
  H   -0.86347332832071      1.71000515450159     -1.20437471416291
  C   1.57580693053411     -1.07950348351317     -0.36280431611396
  N   1.92110292150679     -1.78713305689963     -1.23320491129181
