14
Coordinates from ORCA-job run
  C   -0.25207011027056      0.24703604282716      0.07237060198090
  C   0.91461212045863     -0.69110126115185      0.39317910464978
  F   -0.22082127415266      1.24530919082359      1.07796641700242
  H   0.81104466177795     -1.04720470671662      1.42064185712535
  H   0.88507606730826     -1.54979310855177     -0.28120685221252
  C   -1.58625277435130     -0.45496741094720      0.20288837326096
  H   -1.66997888521680     -1.25865757256482     -0.52912760685673
  H   -2.39201395694958      0.26282516308137      0.03418128991751
  H   -1.70162290309721     -0.85957280166918      1.20917811305705
  N   -0.09243793397100      0.80393905576651     -1.22017144757395
  H   0.76472802634413      1.34088190166583     -1.28492866089914
  H   -0.87262700020509      1.40671692100381     -1.44898483978904
  C   2.19879327975515     -0.00945079383914      0.24955476245228
  N   3.21257068257008      0.56303938027231      0.10545888788515
