16

C	0.0	0.0	0.0
C	-0.533784	-0.126418	-1.427549
F	1.378235	0.0	0.0
H	-1.629595	-0.280153	-1.24822
N	-0.54771	1.169088	0.588012
H	-1.58579	0.999247	0.48916
H	-0.341845	1.158794	1.583392
C	-0.325534	-1.25235	0.761954
N	-0.478089	-2.214739	1.419806
C	0.053051	-1.280336	-2.095714
N	0.530693	-2.186952	-2.671355
C	-0.318873	1.149621	-2.242226
H	-0.911606	1.953837	-1.810189
H	0.733174	1.443941	-2.239967
H	-0.638204	0.986251	-3.274219
H	-2.937025	0.0	0.0
