16

C	0.0	0.0	0.0
C	-0.49849	0.014448	-1.448683
F	1.377915	0.0	0.0
H	-1.603216	-0.049819	-1.316135
N	-0.53618	1.113397	0.69329
H	-1.574747	0.967787	0.587484
H	-0.320488	1.013853	1.684118
C	-0.329551	-1.328571	0.626332
N	-0.471635	-2.394322	1.10082
C	-0.006368	-1.154309	-2.167366
N	0.400964	-2.065162	-2.788389
C	-0.096924	1.28496	-2.199653
H	-0.470921	1.239322	-3.225138
H	-0.517731	2.154342	-1.697909
H	0.991284	1.386759	-2.235991
H	-2.948989	0.0	0.0
