16

C	0.0	0.0	0.0
C	-0.535422	-0.108081	-1.428249
F	1.378033	0.0	0.0
H	-1.637253	-0.222186	-1.247424
N	-0.554102	1.160624	0.599388
H	-0.34874	1.138769	1.594509
H	-1.592532	0.983337	0.49779
C	-0.327323	-1.261362	0.745833
N	-0.525443	-2.249077	1.35166
C	0.002086	-1.283172	-2.101248
N	0.445005	-2.20154	-2.686325
C	-0.26101	1.156349	-2.244647
H	-0.741863	2.005785	-1.76237
H	-0.66527	1.039959	-3.253287
H	0.813304	1.348138	-2.314073
H	-2.936047	0.0	0.0
