16

C	0.0	0.0	0.0
C	-0.527554	-0.205397	-1.416954
F	1.403796	0.0	0.0
H	-1.624062	-0.34718	-1.228652
N	-0.54416	1.196703	0.525055
H	-1.583427	1.022026	0.433453
H	-0.339962	1.237917	1.519656
C	-0.30587	-1.208549	0.831734
N	-0.44071	-2.130356	1.548682
C	0.054181	-1.39726	-2.019985
N	0.516089	-2.334891	-2.558178
C	-0.31199	1.021968	-2.301571
H	-0.651668	0.807476	-3.317326
H	-0.886747	1.856633	-1.902845
H	0.743251	1.300961	-2.332065
H	-2.926963	0.0	0.0
