16

C	0.0	0.0	0.0
C	-0.536874	-0.114012	-1.427023
F	1.377864	0.0	0.0
H	-1.636245	-0.2447	-1.243565
N	-0.546826	1.16444	0.598977
H	-1.585204	0.996924	0.500675
H	-0.338733	1.147373	1.593559
C	-0.325434	-1.260028	0.748811
N	-0.513657	-2.248487	1.355962
C	0.017798	-1.283171	-2.097639
N	0.473326	-2.200905	-2.674791
C	-0.288323	1.153314	-2.2434
H	-0.802205	1.99041	-1.772783
H	0.779341	1.380411	-2.299132
H	-0.673793	1.020065	-3.257128
H	-2.94129	0.0	0.0
