15

C	-0.570653	0.092382	-1.409446
C	0.0	0.0	0.0
Cl	0.200411	1.371258	-2.348325
H	1.094341	0.0	0.0
H	-1.643994	0.281188	-1.405891
N	-0.424508	-1.211354	-2.157232
O	-1.469994	-1.688405	-2.600018
O	0.695362	-1.689151	-2.25561
C	-0.511362	-1.21867	0.623488
N	-0.987937	-2.162599	1.135499
C	-0.430676	1.220774	0.823816
H	-0.033356	1.123712	1.835266
H	-0.003998	2.122879	0.384831
H	-1.52015	1.316427	0.874999
Cl	3.290635	0.0	0.0
