15

C	-0.417672	-0.029986	-1.461793
C	0.0	0.0	0.0
Cl	-2.180297	-0.093652	-1.696114
H	1.095788	0.0	0.0
H	0.010801	-0.892011	-1.965634
N	0.110703	1.161665	-2.222413
O	0.960003	0.920082	-3.075286
O	-0.355733	2.263334	-1.945865
C	-0.442385	-1.258427	0.595972
N	-0.812054	-2.255808	1.094376
C	-0.493689	1.188947	0.823562
H	-0.177278	1.041727	1.857331
H	-1.580828	1.28529	0.792024
H	-0.039489	2.107722	0.458127
Cl	3.247593	0.0	0.0
