15

C	-0.414798	-0.097522	-1.461209
C	0.0	0.0	0.0
Cl	-2.179966	-0.092678	-1.702084
H	1.095765	0.0	0.0
H	-0.023703	-1.006772	-1.91145
N	0.162998	1.019364	-2.295015
O	0.906961	0.676801	-3.208083
O	-0.166085	2.167662	-2.019048
C	-0.447393	-1.23174	0.647707
N	-0.833083	-2.204334	1.182049
C	-0.491596	1.220235	0.778371
H	-1.579592	1.309116	0.753198
H	-0.045504	2.12488	0.371583
H	-0.165681	1.114826	1.814397
Cl	3.247422	0.0	0.0
