15

C	-0.428205	-0.046078	-1.464392
C	0.0	0.0	0.0
Cl	-2.172129	-0.278933	-1.691869
H	1.095818	0.0	0.0
H	0.094953	-0.844115	-1.987046
N	-0.007163	1.225612	-2.166592
O	-0.703838	2.224133	-2.023771
O	1.033153	1.148815	-2.809406
C	-0.438015	-1.247284	0.623945
N	-0.829514	-2.22957	1.135973
C	-0.503606	1.205874	0.791869
H	-1.590175	1.300984	0.747189
H	-0.046777	2.118103	0.410493
H	-0.195263	1.086659	1.831467
Cl	3.233671	0.0	0.0
