15

C	-0.580495	0.057473	-1.40328
C	0.0	0.0	0.0
Cl	0.197963	1.299506	-2.391369
H	1.094326	0.0	0.0
H	-1.651823	0.258963	-1.393943
N	-0.457492	-1.268	-2.116025
O	-1.503248	-1.713426	-2.59215
O	0.646318	-1.789645	-2.162611
C	-0.510415	-1.200814	0.65788
N	-0.980671	-2.132321	1.197868
C	-0.421406	1.242775	0.795594
H	0.002053	2.132294	0.328266
H	-0.01184	1.171251	1.803768
H	-1.5094	1.341303	0.858001
Cl	3.289701	0.0	0.0
