15

C	-0.372442	0.069169	-1.471595
C	0.0	0.0	0.0
Cl	-0.093916	-1.437722	-2.333566
H	1.096196	0.0	0.0
H	0.204109	0.855448	-1.954765
N	-1.816619	0.477303	-1.627129
O	-2.011799	1.629609	-2.015109
O	-2.681148	-0.324472	-1.293664
C	-0.517621	-1.189714	0.663851
N	-0.921754	-2.122675	1.252067
C	-0.435226	1.272376	0.735222
H	-1.521905	1.349067	0.825842
H	0.00443	1.264658	1.73326
H	-0.054628	2.15022	0.208462
Cl	3.250221	0.0	0.0
