16
Coordinates from ORCA-job run
  C   0.78298756760909     -0.16247923583104     -0.02060053314611
  C   -0.53465008610218      0.49849998537725      0.43987362019717
  Cl  1.45162523110583     -1.08212781290918      1.42451505901360
  H   -0.28458553141707      1.23721851942594      1.21117500503361
  N   1.68137744205955      0.85027694727049     -0.46166420301670
  H   2.55586440562946      0.44645913581492     -0.77544075485115
  H   1.87522921758346      1.53111933279515      0.26337707502204
  N   0.51342699467360     -1.15104052114019     -1.03118913849303
  H   0.39131132387156     -0.67539204021971     -1.91945538978082
  H   1.27713653010449     -1.81057100428098     -1.10726889301949
  C   -1.57204240956939     -0.48478190518392      0.98359684332568
  H   -1.22682782616629     -0.92492872381319      1.91782795287016
  H   -2.51327221840152      0.03543679000304      1.16876939735918
  H   -1.73674318712143     -1.27871924073086      0.25635087139010
  C   -1.08956517942409      1.21748630290938     -0.71151197091354
  N   -1.57327227443506      1.75354347051291     -1.63735494099071
