14
Coordinates from ORCA-job run
  C   0.39077717158242     -0.87758528795820      0.36034792784513
  C   -0.41581262940367      0.18805811624432     -0.35774308208831
  Cl  0.05749580063788     -2.48097328156461     -0.28358540838499
  H   -0.41448823645154      0.00381021236316     -1.43670976529412
  H   0.20093912898482     -0.86729248199317      1.42952585763836
  N   1.85601987022567     -0.59208560138653      0.17291592531712
  O   2.19911473085091     -0.14114497494652     -0.91828861411138
  O   2.58917797455667     -0.86017379725631      1.11602048128051
  N   0.01398714540241      1.50158456426155      0.06460182529004
  H   0.86596289475910      1.73974235358759     -0.42915827181371
  H   -0.69124109279525      2.17939125434325     -0.20323887095289
  N   -1.86204158633335      0.07453143449085      0.06196449712031
  O   -2.64453985540342      0.71671328362711     -0.63293060507519
  O   -2.14635131661264     -0.58457579381247      1.05527810322911
