14
Coordinates from ORCA-job run
  C   0.90775836119998     -0.28309328689267     -0.13842685165419
  C   -0.55088916903307      0.14420074913395     -0.38097700319161
  Cl  1.88216413978957      1.01254911782504      0.51622495261927
  H   -1.10895598501112     -0.75545535196010     -0.64411188728025
  H   1.33201775962672     -0.59936972077637     -1.09113171948602
  N   0.94908669055675     -1.53397548552091      0.72822073632878
  O   0.44413323599754     -2.50454831999573      0.17323329795808
  O   1.44371081522708     -1.49013998795054      1.84068207215701
  N   -0.75880025801796      1.15777285681956     -1.34944501629393
  H   -0.68371816083825      0.80140692460211     -2.29099594997468
  H   -0.16502227691118      1.96350598703638     -1.21231342460271
  N   -1.10902699778150      0.59596435958411      0.95322460815772
  O   -1.27209413613695      1.79522110255069      1.12936988531560
  O   -1.30936401866761     -0.30303894445552      1.76644629994695
