14
Coordinates from ORCA-job run
  C   0.95917768434103     -0.33623882453998     -0.14404451081793
  C   -0.50494927936162     -0.00544594813169     -0.40392866824596
  Cl  1.90793833912621      1.10441282064353      0.15248050778040
  H   -1.06986907607184     -0.93893551950949     -0.38324731242083
  H   1.34653369927347     -0.83961262977848     -1.02896506306258
  N   1.09417845827635     -1.35896643970297      0.97733413166501
  O   1.78768530776237     -1.11029705111476      1.94646597732688
  O   0.48053352396517     -2.39506573852330      0.74812450902391
  N   -0.65499821437022      0.65324894561878     -1.64353701355781
  H   -0.24507528659237      1.57841119907780     -1.62130564012029
  H   -1.62990801268595      0.73987036980841     -1.89528622957781
  N   -1.03094725881975      0.78751749747282      0.80614197926835
  O   -1.52100900310311      1.88995788088929      0.59432608963095
  O   -0.92029088173974      0.23114343779004      1.89344124310771
