14
Coordinates from ORCA-job run
  C   0.94813050290602     -0.36260236597477     -0.15548252200418
  C   -0.47059269962132      0.12191206441484     -0.42647415376826
  Cl  1.94810092786244      0.90310756991492      0.52396716288192
  H   -1.08485703010020     -0.74970345992202     -0.65865234917080
  H   1.37566299309558     -0.68134913046451     -1.10524327584792
  N   0.93704443002903     -1.61770845402833      0.70841964138501
  O   0.29252477750114     -2.53106840486070      0.20543308945713
  O   1.55938723119642     -1.64104566233037      1.75447157771585
  N   -0.48555645131532      1.05289649759678     -1.48757521731322
  H   -1.43103332886818      1.26140835569501     -1.77720326167483
  H   -0.03073563936413      1.91823013986807     -1.22541902087061
  N   -1.04669481222152      0.65577005723261      0.89735337996382
  O   -1.44635978540222      1.81347583227693      0.91796093046542
  O   -1.06302111569772     -0.14232303941848      1.82844401878068
