13
Coordinates from ORCA-job run
  C   -0.90056268353924     -0.10473265762447      0.09223793573726
  C   0.56892439651234     -0.50314042642431      0.22152197996504
  F   -1.26577676475580      0.64961163395617      1.19436037279616
  H   0.64539320313854     -1.09252724888961      1.14020769215189
  H   0.81418588416730     -1.16410753735112     -0.61518405426194
  C   -1.12721523447041      0.70866143873344     -1.11697795214166
  N   -1.26381783871661      1.35653804970082     -2.08664488612386
  C   -1.76289342689136     -1.29941889443807      0.04640559633432
  N   -2.41370541452211     -2.27649989251070      0.02276057392304
  C   1.49537190217907      0.70585667209707      0.26498973250965
  H   2.52155617940864      0.37778373271542      0.43872843966450
  H   1.21471736615145      1.38201118632601      1.07315222257770
  H   1.47482243133821      1.25996394370935     -0.67555765313209
