13
Coordinates from ORCA-job run
  C   -0.72634062415848     -0.36157979327027     -0.41396223438320
  C   0.57543659569883      0.43412498630451     -0.32806878065768
  F   -0.42885968290105     -1.69845414628747     -0.61792079786479
  H   1.08647936293757      0.28555114957511     -1.28418609918498
  H   0.31873856754931      1.49505552526652     -0.25247738870217
  C   -1.50382117832073     -0.24973829100717      0.83424701067859
  N   -2.09315903358496     -0.14159207313675      1.84406490679134
  C   -1.54908330500959      0.10448826614289     -1.54469148949522
  N   -2.17110706611442      0.49919703359442     -2.45903699679023
  C   1.45108552871157     -0.01103240537455      0.83680465337422
  H   1.67104373533875     -1.07709339618140      0.77234268432661
  H   0.97218988105500      0.18822021167342      1.79745939182911
  H   2.39739721879822      0.53185293270073      0.81442514007841
