13
Coordinates from ORCA-job run
  C   -0.76094646182552     -0.32543316733899     -0.38009551193497
  C   0.48794633857650     -0.37449741224335      0.49910939106512
  F   -0.42155131157283     -0.69049386553712     -1.67194345732316
  H   0.84523644535634     -1.40813965819833      0.46270285096295
  H   0.18432372133342     -0.16641025841085      1.52949522535945
  C   -1.78223290900903     -1.26793275284717      0.11117199394373
  N   -2.56651519829032     -2.03527748287343      0.52928449740337
  C   -1.33118061808138      1.03400407386280     -0.42222858931301
  N   -1.75451186594276      2.12915341509677     -0.43587987327557
  C   1.56563787958205      0.59514018424671      0.02981245108668
  H   1.23775374872775      1.63268638163063      0.11864726900916
  H   2.46189184652556      0.47286590484438      0.64014833315064
  H   1.83514838462022      0.40333463776797     -1.00922458013440
