13
Coordinates from ORCA-job run
  C   -0.89941933632346     -0.07904355678105      0.13284503781558
  C   0.54733319340105     -0.56702516378494      0.06040200537123
  F   -1.14546565559779      0.42957346416482      1.39635168122230
  H   0.69525971757786     -1.04003262856764     -0.91498521699559
  H   0.64412056316533     -1.34578250540553      0.82287429221978
  C   -1.14921796440756      0.99262602773823     -0.84909286043638
  N   -1.29986129269108      1.86096558486676     -1.62494772147332
  C   -1.83548718786256     -1.19274717140767     -0.10472862604248
  N   -2.54529863037662     -2.11414790363374     -0.26572226872299
  C   1.55107800751472      0.55561114506197      0.29231045318400
  H   1.37067285542131      1.04715058451540      1.24881649314246
  H   2.56278268750998      0.14689071383801      0.30715664726228
  H   1.50350304266883      1.30596140939532     -0.49927991654687
