13
Coordinates from ORCA-job run
  C   -0.89936071756834     -0.13938948667713      0.03105076805449
  C   0.57299954354933     -0.49376853162179      0.23456040243275
  F   -1.35781894864457      0.55169380714128      1.13982316161600
  H   0.89251947574361     -1.10972066866152     -0.61132064782948
  H   0.61507981801290     -1.11836765902261      1.13191658300022
  C   -1.08264162417384      0.72010390408566     -1.15336636571328
  N   -1.19449905108564      1.41094428655348     -2.09617910623428
  C   -1.71344179918429     -1.35900039776596     -0.11982975988839
  N   -2.32702711385271     -2.35505799538261     -0.22057234432943
  C   1.45119638076894      0.74248529317180      0.38481642710114
  H   1.10079593843522      1.37111231948169      1.20400527674446
  H   2.47669575815616      0.44078341620864      0.60413058584440
  H   1.46450233984326      1.33818171248912     -0.53003498079859
