13
Coordinates from ORCA-job run
  C   -0.71117248508261     -0.46400858379181     -0.32912996340497
  C   0.32039478808777     -0.05681791101807      0.72201609572800
  F   -0.18175339242362     -1.47013613587931     -1.11943146402520
  H   -0.14554506719843      0.67692166170430      1.38649380185381
  H   0.52409189787558     -0.95468561163687      1.31318767856190
  C   -1.93450491316181     -0.97860775604652      0.31242340954717
  N   -2.88439084986613     -1.39518213135681      0.86283362879556
  C   -1.05869025709338      0.67151580917843     -1.20376268839653
  N   -1.30718824773161      1.59225257084210     -1.88871556219016
  C   1.59823164999551      0.49099486308567      0.09818138317956
  H   2.03359615756883     -0.23074402316321     -0.59360835788621
  H   2.33123292521410      0.69516716748217      0.88035419293719
  H   1.41369779381581      1.42233008059994     -0.44084215470011
