13
Coordinates from ORCA-job run
  C   -0.90024041708219     -0.10281041783865      0.10004356150206
  C   0.55886904166854     -0.55618015176485      0.07448409672039
  F   -1.20503890481626      0.37654240103468      1.36266443675847
  H   0.64516969280429     -1.34599638382903      0.82677301626481
  H   0.75534590647884     -1.00798190677045     -0.90236142070178
  C   -1.13949735603714      0.98063597252432     -0.87165982248818
  N   -1.28762227688527      1.85251936332626     -1.64406892631020
  C   -1.80193792650989     -1.23101795687799     -0.19508774616655
  N   -2.48514611828160     -2.15614966781899     -0.43212173570007
  C   1.52583994562191      0.58527721049012      0.36409099158582
  H   1.29812867382118      1.05412615869087      1.32187981217244
  H   1.48903849968145      1.34924239789757     -0.41498703719088
  H   2.54609123953613      0.20079298093614      0.40935077355367
