13
Coordinates from ORCA-job run
  C   -0.72281323887366     -0.37085414721636     -0.41408276923018
  C   0.57494673973962      0.43201770792630     -0.33152567470412
  F   -0.41747950151546     -1.70848235011919     -0.60172594537064
  H   0.31354155950678      1.49254458254777     -0.26947407968951
  H   1.09052962133724      0.27440762416092     -1.28367392610005
  C   -1.50584964789271     -0.24950430126590      0.82975967072649
  N   -2.09658842167843     -0.13439175744389      1.83795949244667
  C   -1.54334754339661      0.08029864732807     -1.55230046392781
  N   -2.16975757654061      0.47563684954098     -2.46338992255267
  C   1.44768748177733      0.00443909488709      0.84204649890187
  H   0.96451885737011      0.21420213219318      1.79835341088938
  H   1.67138501699740     -1.06160985231626      0.79192382652147
  H   2.39222665316899      0.55029576977728      0.81612988208910
