13
Coordinates from ORCA-job run
  C   -0.73358754522029     -0.34588256357406     -0.41225888360858
  C   0.56511029304074      0.45431571630683     -0.32178186316456
  F   -0.43300824157524     -1.66974408717930     -0.68552205182839
  H   1.05307655122630      0.35383951965090     -1.29592988838392
  H   0.30411067415388      1.50870529287160     -0.19077011671953
  C   -1.47991030909367     -0.29822507979457      0.85881586042046
  N   -2.04612801270565     -0.24947694848968      1.88628587971751
  C   -1.58781081014247      0.16553381528096     -1.49911916643189
  N   -2.23892498643935      0.58901204045426     -2.37971834409777
  C   1.47192172962410     -0.03740056898738      0.79976095192844
  H   1.01756379366695      0.11892707107703      1.78011567249966
  H   1.69260435751642     -1.09897707467216      0.68406403852287
  H   2.41598250594829      0.50937286705555      0.77605791114568
