13
Coordinates from ORCA-job run
  C   -0.78269556200278     -0.46997553479517     -0.48892731672627
  C   0.69745537471172     -0.59065083519056     -0.13569856144044
  F   -1.16160233615536     -1.57841875862984     -1.22413089660741
  H   1.23345130899922     -0.68811632548861     -1.08423474434256
  H   0.80860225059420     -1.53308606527580      0.40832174788795
  C   -1.61333814667926     -0.41637109470906      0.72858903275713
  N   -2.23846001875786     -0.39557369979106      1.72234161867760
  C   -1.03417255176141      0.73364971166289     -1.30340526074179
  N   -1.18769109829473      1.69228128289155     -1.96391925218827
  C   1.21416774645977      0.58886131764323      0.67880345080270
  H   0.68195491458258      0.68239165084897      1.62773190276128
  H   2.27243669421073      0.44729166188173      0.90290730799603
  H   1.11189142409315      1.52771668895175      0.13062097116403
