13
Coordinates from ORCA-job run
  C   -0.72326043675754     -0.12798627694782     -0.46668846418676
  C   0.30052876635203      0.19103320390816      0.60619064136814
  Br  -0.11403402616249     -1.80074205596600     -1.45669092560746
  H   0.35069863705376     -0.65026020385642      1.30594809818638
  H   -0.71485229050875      0.61738793438538     -1.26228930132384
  H   -0.10989387958675      1.04539983824770      1.15547661915062
  N   -2.02576238787890     -0.24855522509639      0.06401108668803
  H   -2.07279864881653     -0.96722704238256      0.77510987396913
  H   -2.71430084534809     -0.44492160126833     -0.64997104279862
  C   1.68951503108732      0.52765203362239      0.08002385389879
  H   2.33934915326190      0.84097999289613      0.89994178940337
  H   1.64462259991475      1.34823372877171     -0.64104742424820
  H   2.15018832738929     -0.32999432631394     -0.41001480449959
