13
Coordinates from ORCA-job run
  C   -0.80788958170427     -0.06928665430137     -0.68604187252229
  C   0.69996233221815     -0.15027418330956     -0.47780374935503
  Br  -1.23581853222771     -1.02381584623193     -2.36766991700198
  H   1.20534488607859      0.22542236739413     -1.37142822772848
  H   -1.10903305767256      0.96198587236455     -0.88257741137910
  H   0.97994747456246     -1.20436487655292     -0.37481173240133
  N   -1.62988529973980     -0.58547412075972      0.36643185529063
  H   -1.76235098664842      0.09639854039063      1.10029535147211
  H   -1.25261629311539     -1.44193307563382      0.75102378768922
  C   1.13921717459184      0.64360138437169      0.75041098825734
  H   2.22575219784667      0.61782617428274      0.85662596569259
  H   0.83924017619664      1.69241288426993      0.66946783250332
  H   0.70812950961379      0.23650153371566      1.66707712948299
