13
Coordinates from ORCA-job run
  C   -0.82151082598341     -0.20808532093659     -0.72406794633591
  C   0.33320668577184      0.72327997466216     -0.35533229915114
  Br  -0.12412635657273     -1.72414617656958     -1.76902210390041
  H   -0.12726591450424      1.62043061946191      0.08023674288596
  H   -1.49335686943128      0.30414235706570     -1.41564757075869
  H   0.83624742657723      1.03983223669750     -1.27372581005974
  N   -1.61837155944560     -0.73619334610796      0.35375392038484
  H   -2.12619861144019      0.01664598336693      0.80427319946515
  H   -1.03964568712420     -1.20234679711017      1.04054146638192
  C   1.34653983226380      0.14584189331603      0.62502194044901
  H   1.82138934313092     -0.74933889979788      0.22127074090122
  H   0.88358992608389     -0.11001361063959      1.58086656347083
  H   2.12950261067395      0.87795108659153      0.83283115626694
