13
Coordinates from ORCA-job run
  C   0.46389959533463      0.06675457158108     -0.14294740068110
  C   -0.79287888771136     -0.75399989965478     -0.35151474716062
  H   0.99643338268214      0.29902427748249     -1.06568333244261
  H   -1.27140700268807     -0.93043863518863      0.61428717170267
  H   -0.52212780411607     -1.71835196310547     -0.78393621349915
  N   1.44098945180189     -0.66057914990188      0.75535294524453
  O   1.46078811992337     -1.88071938436945      0.64886335600271
  O   2.16091919884582      0.03363338182551      1.45926025409744
  N   0.14331388675337      1.36926545342990      0.52431083061492
  O   0.61620530489833      2.37895863098966      0.01495799625061
  O   -0.56042301246372      1.29680212845060      1.52593538774203
  C   -1.70860430393546     -0.04224773264161     -1.23954187804206
  N   -2.42610792932486      0.54289832110259     -1.96034436982937
