13
Coordinates from ORCA-job run
  C   0.13348829329052     -0.14148178573822      0.45042069111328
  C   -0.51643438013115     -0.57730462436912     -0.84704895789693
  H   -0.34515205422236     -0.54860129259576      1.34155827409013
  H   0.01099010894305     -0.11711742858537     -1.68554353244167
  H   -0.43410128335096     -1.66118476820009     -0.94050088605234
  N   0.11554498566686      1.35076863148056      0.57910717714601
  O   -0.29474586859980      1.80640365255758      1.64055457451768
  O   0.52023907012970      1.97533175847320     -0.39550664523422
  N   1.58386729699789     -0.57179800143095      0.49793625829021
  O   2.35130065298605      0.15138950488920      1.11729789503621
  O   1.84359272646368     -1.64059937027180     -0.04103170178282
  C   -1.92074867780125     -0.17599615449199     -0.86199368050996
  N   -3.04784087037224      0.15018987828276     -0.85724946627557
