13
Coordinates from ORCA-job run
  C   -0.57402933204491      0.12566589904011      0.20986454503588
  C   0.67357266293828     -0.47170170842782     -0.41965433557328
  F   -0.43839372956766     -0.06043553753864      1.60755210567277
  H   0.61554070123696     -1.56118315450172     -0.26176423984517
  H   0.62597669230289     -0.28370919820226     -1.49370608312814
  N   -1.74550604109593     -0.47984888600397     -0.29777427041322
  H   -1.73052034137465     -1.47931134342145     -0.13960771566214
  H   -2.58075089655362     -0.08155364192623      0.11130236960887
  C   -0.64020709472497      1.58407739866109     -0.00017663457561
  N   -0.71494045452761      2.74492478878188     -0.15035950524270
  N   1.84932315282342      0.16820967474188      0.13759300879726
  H   1.98776690669058     -0.13158123704015      1.09303470021584
  H   2.67216777389722     -0.07255305416272     -0.39730394489037
