13
Coordinates from ORCA-job run
  C   -0.58671800713987      0.15677714027530      0.34244467865637
  C   0.90447756800101      0.24007583950391      0.02918326207278
  F   -0.72420964654526     -0.88098801801480      1.30252269800306
  H   1.05873223380528      1.08510520272440     -0.64402052859313
  H   1.43485632818062      0.43746101971415      0.96831353554920
  N   -1.32320599605047     -0.08530447162270     -0.82852816486166
  H   -0.88280636285646     -0.84379144518002     -1.33647957411655
  H   -2.29682609461918     -0.27758265491667     -0.63628012786257
  C   -1.05972967403598      1.38302323056060      1.01316984151512
  N   -1.40238477353195      2.36956754084943      1.54806421091333
  N   1.29019961797553     -0.99531618428404     -0.64066442040443
  H   2.14692331942774     -0.86429738510104     -1.16015501849646
  H   1.44169148738893     -1.72472981450852      0.04342960762501
