13

C	-0.550673	-0.008902	-1.411261
C	0.0	0.0	0.0
F	-1.941934	-0.090606	-1.373263
H	1.091818	0.0	0.0
H	-0.36837	0.878854	0.528548
C	-0.213044	1.27978	-2.050587
N	0.047945	2.29949	-2.572258
C	-0.053299	-1.095293	-2.272609
N	0.36673	-1.912339	-3.003421
N	-0.471711	-1.178443	0.765487
O	-0.669728	-2.227761	0.154979
O	-0.601922	-1.02112	1.975554
Cl	3.195429	0.0	0.0
