13

C	-0.50525	0.026733	-1.434576
C	0.0	0.0	0.0
F	0.144131	-0.886147	-2.224391
H	1.089607	0.0	0.0
H	-0.35592	0.868262	0.554831
C	-1.962383	-0.223582	-1.521732
N	-3.126528	-0.362198	-1.59031
C	-0.260114	1.378943	-1.982082
N	-0.094894	2.451824	-2.429546
N	-0.46877	-1.202099	0.728905
O	-0.475661	-1.126632	1.953487
O	-0.777689	-2.194307	0.069808
Cl	3.198339	0.0	0.0
