13

C	-0.495694	0.255423	-1.41648
C	0.0	0.0	0.0
F	0.177351	1.284087	-2.022735
H	1.105519	0.0	0.0
H	-0.357954	-0.960719	0.36913
C	-0.280746	-0.9798	-2.201054
N	-0.15977	-1.976143	-2.809298
C	-1.945881	0.554932	-1.458297
N	-3.104415	0.742856	-1.50166
N	-0.476842	1.034252	0.943814
O	-0.582597	0.697463	2.119773
O	-0.698119	2.160076	0.49816
Cl	3.194054	0.0	0.0
