13

C	-0.504218	-0.260686	-1.410639
C	0.0	0.0	0.0
F	0.12852	-1.329964	-1.990083
H	1.10478	0.0	0.0
H	-0.350075	0.965123	0.366568
C	-1.96535	-0.495573	-1.453967
N	-3.131881	-0.619344	-1.504621
C	-0.231091	0.94359	-2.22504
N	-0.053463	1.903758	-2.877437
N	-0.473923	-1.025658	0.95753
O	-0.840332	-2.112946	0.511683
O	-0.432798	-0.717501	2.144454
Cl	3.193677	0.0	0.0
