13

C	-0.526482	-0.004406	-1.430946
C	0.0	0.0	0.0
F	-0.198033	1.23123	-1.964445
H	1.091081	0.0	0.0
H	-0.367606	0.890313	0.50976
C	0.056809	-1.045068	-2.294087
N	0.472776	-1.828907	-3.062996
C	-2.000359	-0.11657	-1.472691
N	-3.173986	-0.139994	-1.507482
N	-0.475889	-1.177971	0.751922
O	-0.835767	-2.163044	0.101423
O	-0.451428	-1.103183	1.974861
Cl	3.195913	0.0	0.0
