13

C	-0.523712	0.020847	-1.431736
C	0.0	0.0	0.0
F	-0.189448	1.263606	-1.94462
H	1.088937	0.0	0.0
H	-0.367125	0.882146	0.524226
C	0.056723	-1.008087	-2.310821
N	0.469941	-1.779451	-3.09391
C	-1.998789	-0.083769	-1.476135
N	-3.173087	-0.09934	-1.50299
N	-0.478945	-1.189783	0.73111
O	-0.831058	-2.165527	0.063477
O	-0.463506	-1.133262	1.955028
Cl	3.196042	0.0	0.0
