13

C	-0.505903	0.004768	-1.434547
C	0.0	0.0	0.0
F	0.145294	-0.91809	-2.210581
H	1.089821	0.0	0.0
H	-0.355282	0.876653	0.541901
C	-1.962441	-0.249091	-1.517278
N	-3.126845	-0.387812	-1.581974
C	-0.265796	1.349944	-2.001081
N	-0.122792	2.424279	-2.45291
N	-0.467761	-1.19067	0.747774
O	-0.789123	-2.189734	0.104787
O	-0.463684	-1.098273	1.971334
Cl	3.197487	0.0	0.0
