13

C	-0.524708	0.17826	-1.410386
C	0.0	0.0	0.0
F	-1.914768	0.273994	-1.389047
H	1.10371	0.0	0.0
H	-0.378209	-0.932401	0.416327
C	-0.006272	1.356259	-2.129004
N	0.355652	2.246083	-2.803708
C	-0.182985	-1.031228	-2.184657
N	0.037378	-2.015719	-2.784818
N	-0.481741	1.087149	0.88252
O	-0.519529	2.226026	0.421191
O	-0.781444	0.772704	2.030996
Cl	3.193254	0.0	0.0
