18

C	0.0	0.0	0.0
C	-0.444331	-0.147123	-1.479804
Br	1.965575	0.0	0.0
H	0.209414	0.528067	-2.043723
C	-0.507359	1.274933	0.659443
H	-0.095508	1.375372	1.664248
H	-0.208839	2.14173	0.064996
H	-1.598343	1.232067	0.720387
C	-0.399849	-1.174671	0.772511
N	-0.72021	-2.136948	1.367491
C	-1.897605	0.25758	-1.694496
H	-2.058163	1.331166	-1.574144
H	-2.185298	-0.005373	-2.71647
H	-2.603973	-0.236388	-1.020621
N	-0.13128	-1.507887	-1.916856
H	-0.160863	-1.531394	-2.93015
H	-0.871714	-2.124307	-1.59254
Cl	-4.879376	0.0	0.0
