18

C	0.0	0.0	0.0
C	-0.568744	0.60439	-1.291851
Br	1.976337	0.0	0.0
H	-1.652708	0.56911	-1.099616
C	-0.48213	0.756889	1.229249
H	-1.575931	0.71089	1.222661
H	-0.15341	1.792373	1.155134
H	-0.09537	0.297461	2.140965
C	-0.343498	-1.420711	0.101242
N	-0.549604	-2.574434	0.191498
C	-0.260057	-0.216938	-2.538893
H	-0.76548	0.240912	-3.394118
H	0.816296	-0.234175	-2.74004
H	-0.618487	-1.24396	-2.447102
N	-0.163453	2.003994	-1.382572
H	-0.886766	2.521157	-1.868494
H	0.692576	2.077014	-1.922025
Cl	-3.796288	0.0	0.0
