18

C	0.0	0.0	0.0
C	-0.434834	0.229567	-1.507642
Br	1.970993	0.0	0.0
H	0.355082	-0.245899	-2.099315
C	-0.597368	0.96536	1.005214
H	-1.690034	0.895247	0.916522
H	-0.306701	0.693955	2.021915
H	-0.273115	1.985722	0.8017
C	-0.330288	-1.381322	0.36377
N	-0.53868	-2.51063	0.618326
C	-0.469668	1.716351	-1.831342
H	0.449396	2.22743	-1.531546
H	-1.324797	2.184987	-1.341183
H	-0.603215	1.82642	-2.90838
N	-1.679578	-0.37485	-1.896568
H	-2.480169	-0.078323	-1.329616
H	-1.632538	-1.384008	-1.816694
Cl	-4.229993	0.0	0.0
