18

C	0.0	0.0	0.0
C	-0.398327	0.167144	-1.533696
Br	1.970864	0.0	0.0
H	0.378472	-0.382024	-2.076429
C	-0.648283	0.998749	0.931435
H	-0.335071	2.014635	0.689957
H	-0.405344	0.784768	1.973427
H	-1.734123	0.89883	0.791389
C	-0.326688	-1.372187	0.395927
N	-0.542435	-2.496876	0.662017
C	-0.336351	1.632254	-1.944157
H	-1.186972	2.179165	-1.529258
H	-0.405597	1.686457	-3.030133
H	0.591757	2.112459	-1.625098
N	-1.663226	-0.390213	-1.924723
H	-1.662963	-1.395193	-1.799459
H	-2.456452	-0.039896	-1.382417
Cl	-4.193498	0.0	0.0
