18

C	0.0	0.0	0.0
C	-0.415453	0.019909	-1.4943
Br	1.974849	0.0	0.0
H	-1.508608	0.124123	-1.488853
C	-0.356186	1.277964	0.756888
H	0.120262	1.261572	1.737474
H	-1.435649	1.391036	0.870224
H	0.049455	2.107957	0.181183
C	-0.411839	-1.220742	0.681572
N	-0.616301	-2.257264	1.179301
C	-0.054212	-1.270082	-2.225812
H	-0.447787	-1.225171	-3.243914
H	-0.469179	-2.154208	-1.735812
H	1.032974	-1.387965	-2.285559
N	0.155104	1.205422	-2.131712
H	0.967895	0.953315	-2.680152
H	-0.52781	1.63253	-2.745007
Cl	-3.708975	0.0	0.0
