18

C	0.0	0.0	0.0
C	-0.407968	-0.242699	-1.492055
Br	1.976409	0.0	0.0
H	0.194206	0.472355	-2.065659
C	-0.5251	1.306038	0.56865
H	-1.614366	1.239501	0.647496
H	-0.105304	1.499388	1.556546
H	-0.259392	2.128144	-0.098761
C	-0.3909	-1.14249	0.822642
N	-0.661311	-2.108445	1.435621
C	-1.882986	0.037727	-1.719868
H	-2.548302	-0.455672	-1.007536
H	-2.116542	1.100854	-1.657446
H	-2.137893	-0.310617	-2.72286
N	-0.093344	-1.57432	-1.982487
H	0.850906	-1.839619	-1.728082
H	-0.734115	-2.239902	-1.564206
Cl	-4.805043	0.0	0.0
