18

C	0.0	0.0	0.0
C	-0.452504	0.104092	-1.469872
Br	1.980572	0.0	0.0
H	-0.035582	1.059046	-1.832959
C	-0.498854	1.145381	0.869722
H	-0.246657	2.099717	0.401904
H	-1.585279	1.06596	0.974033
H	-0.044797	1.101113	1.860883
C	-0.375636	-1.292066	0.572948
N	-0.6234	-2.298905	1.125548
C	-1.970371	0.136843	-1.574147
H	-2.432634	0.996813	-1.092428
H	-2.250511	0.171749	-2.631821
H	-2.436078	-0.741421	-1.127261
N	0.051824	-1.051288	-2.203471
H	-0.51061	-1.193369	-3.031881
H	1.014701	-0.913921	-2.482985
Cl	-4.972954	0.0	0.0
