18

C	0.0	0.0	0.0
C	-0.5552	0.294179	-1.417784
Br	1.972546	0.0	0.0
H	-1.638943	0.17992	-1.270372
C	-0.495244	0.99419	1.038791
H	-0.13804	1.996058	0.796472
H	-1.590681	0.960781	1.015216
H	-0.135974	0.723675	2.03298
C	-0.344814	-1.365241	0.404345
N	-0.562021	-2.47406	0.729425
C	-0.081604	-0.697097	-2.468311
H	-0.649982	-0.516587	-3.381925
H	0.980263	-0.559547	-2.691646
H	-0.244092	-1.729823	-2.151782
N	-0.314561	1.653008	-1.876501
H	-0.911508	2.29643	-1.372119
H	0.654233	1.91394	-1.722671
Cl	-3.760733	0.0	0.0
