18

C	0.0	0.0	0.0
C	-0.440734	0.157685	-1.510642
Br	1.972792	0.0	0.0
H	0.31964	-0.388402	-2.080482
C	-0.594128	1.014619	0.957758
H	-1.686637	0.94723	0.872511
H	-0.26269	2.021993	0.706223
H	-0.30633	0.789724	1.986176
C	-0.328902	-1.360582	0.431808
N	-0.569907	-2.46179	0.76628
C	-0.415083	1.621647	-1.928957
H	0.524238	2.112529	-1.66142
H	-0.547435	1.669528	-3.010895
H	-1.248425	2.158909	-1.469649
N	-1.716957	-0.413878	-1.84408
H	-1.725288	-1.412414	-1.672218
H	-2.502637	-0.03182	-1.310185
Cl	-4.307853	0.0	0.0
