18

C	0.0	0.0	0.0
C	-0.423353	-0.118064	-1.525442
Br	1.972561	0.0	0.0
H	0.395901	-0.67239	-1.994435
C	-0.628663	1.144601	0.763698
H	-0.322178	2.104233	0.347904
H	-1.714786	1.022807	0.663935
H	-0.359299	1.103075	1.820188
C	-0.304958	-1.275401	0.653461
N	-0.504892	-2.322568	1.149544
C	-0.49674	1.26444	-2.163418
H	-1.379104	1.800862	-1.805431
H	-0.596178	1.136619	-3.241089
H	0.398534	1.859049	-1.958405
N	-1.63322	-0.844549	-1.803666
H	-2.452355	-0.469992	-1.316952
H	-1.537795	-1.812176	-1.521888
Cl	-4.165864	0.0	0.0
