18

C	0.0	0.0	0.0
C	-0.57142	0.109891	-1.422585
Br	1.976804	0.0	0.0
H	-1.655064	0.130693	-1.231795
C	-0.484377	1.13795	0.885304
H	-1.577211	1.075512	0.917039
H	-0.073648	1.046028	1.892259
H	-0.177321	2.081298	0.435111
C	-0.341059	-1.295913	0.59407
N	-0.559237	-2.352228	1.061735
C	-0.250735	-1.087045	-2.308103
H	-0.597019	-2.022195	-1.862694
H	-0.759951	-0.962131	-3.267719
H	0.826269	-1.162062	-2.492673
N	-0.179607	1.394167	-1.996892
H	0.637549	1.274942	-2.585045
H	-0.938228	1.740452	-2.570825
Cl	-3.797463	0.0	0.0
