14

C	0.0	0.0	0.0
C	-0.540869	0.10349	-1.417573
Cl	1.837986	0.0	0.0
H	-1.651536	0.111835	-1.225481
H	-0.257503	-0.781878	-1.989275
N	-0.391664	1.18669	0.713008
H	-0.199339	1.075826	1.700623
H	0.104023	2.001149	0.370752
N	-0.538382	-1.193445	0.552298
H	-0.297862	-1.247362	1.537204
H	-1.573698	-1.012123	0.488661
C	-0.133573	1.3158	-2.1068
N	0.194697	2.303292	-2.653674
H	-3.060263	0.0	0.0
