14

C	0.0	0.0	0.0
C	-0.493409	-0.045423	-1.447374
Cl	1.848352	0.0	0.0
H	-1.6048	-0.018435	-1.298661
H	-0.149911	0.84018	-1.989438
N	-0.505663	1.115145	0.728007
H	-0.2439	1.974109	0.253861
H	-1.54305	0.980047	0.651135
N	-0.428584	-1.171437	0.669692
H	-0.011379	-2.006746	0.282921
H	-0.225837	-1.086903	1.655976
C	-0.100379	-1.248169	-2.163957
N	0.210335	-2.235026	-2.721819
H	-3.08109	0.0	0.0
