14

C	0.0	0.0	0.0
C	-0.495497	0.022383	-1.447335
Cl	1.84333	0.0	0.0
H	-1.605682	0.068457	-1.286721
H	-0.151732	0.913584	-1.980316
N	-0.41964	1.222905	0.605472
H	0.147923	1.999232	0.294098
H	-0.35458	1.120846	1.610403
N	-0.551167	-1.055793	0.774829
H	-0.353698	-1.944668	0.324216
H	-1.586296	-0.865233	0.682872
C	-0.129215	-1.170598	-2.192854
N	0.162206	-2.141898	-2.787467
H	-3.052354	0.0	0.0
