13

C	-0.378464	0.042961	-1.478539
C	0.0	0.0	0.0
Br	0.14474	1.767749	-2.250758
H	1.095856	0.0	0.0
H	0.283618	-0.670454	-1.985376
N	-1.793086	-0.137096	-1.702313
H	-1.970978	-0.276518	-2.690369
H	-2.103553	-0.959947	-1.196523
C	-0.418388	-1.278979	0.549417
N	-0.716911	-2.344953	0.950583
C	-0.538777	1.094206	0.784948
N	-0.929506	1.967551	1.469381
H	2.510214	0.0	0.0
