13

C	-0.45659	-0.070228	-1.451235
C	0.0	0.0	0.0
Br	0.363288	1.485814	-2.438527
H	1.0948	0.0	0.0
H	0.01489	-0.932414	-1.924817
N	-1.868118	-0.118226	-1.592506
H	-2.132478	-0.160922	-2.569471
H	-2.289867	0.704894	-1.176549
C	-0.424335	-1.206445	0.696459
N	-0.723708	-2.210714	1.230114
C	-0.517225	1.180231	0.67005
N	-0.938014	2.13652	1.211692
H	2.520322	0.0	0.0
