13

C	-0.259691	0.112127	-1.513124
C	0.0	0.0	0.0
Br	-0.003177	-1.763512	-2.340363
H	1.097456	0.0	0.0
H	-1.297391	0.297729	-1.788902
N	0.625068	1.075889	-1.992827
H	0.615788	1.168613	-2.998066
H	1.568304	0.895562	-1.625945
C	-0.564484	-1.157465	0.663374
N	-1.038442	-2.078733	1.220008
C	-0.450261	1.222019	0.650613
N	-0.800539	2.206222	1.191166
H	2.574644	0.0	0.0
