13

C	-0.261004	0.089115	-1.514452
C	0.0	0.0	0.0
Br	-0.010894	-1.799996	-2.312943
H	1.097352	0.0	0.0
H	-1.298968	0.273084	-1.790994
N	0.6254	1.043881	-2.009972
H	1.569451	0.868022	-1.641345
H	0.615123	1.12165	-3.016896
C	-0.562618	-1.147382	0.682397
N	-1.030422	-2.062507	1.254214
C	-0.449383	1.232175	0.631522
N	-0.799619	2.224717	1.156641
H	2.575068	0.0	0.0
