13

C	-0.466371	-0.032594	-1.449648
C	0.0	0.0	0.0
Br	0.379176	1.527468	-2.407644
H	1.094797	0.0	0.0
H	-0.017303	-0.895184	-1.944021
N	-1.879732	-0.04524	-1.581027
H	-2.153128	-0.035704	-2.556194
H	-2.279748	0.768778	-1.12704
C	-0.435619	-1.21405	0.674601
N	-0.739239	-2.225536	1.192525
C	-0.504438	1.172776	0.69396
N	-0.906981	2.123151	1.259659
H	2.518777	0.0	0.0
