12

C	0.0	0.0	0.0
C	-0.480231	-0.014789	-1.453512
F	1.387486	0.0	0.0
H	-1.586241	0.037047	-1.353408
H	-0.334695	0.944193	0.437154
H	-0.106085	0.856621	-2.000672
N	-0.513	-1.056248	0.804563
H	-0.38323	-1.93793	0.316081
H	-1.532128	-0.866768	0.811293
C	-0.079228	-1.229992	-2.148382
N	0.242154	-2.219238	-2.694581
H	-3.032281	0.0	0.0
