12

C	0.0	0.0	0.0
C	-0.468111	0.031582	-1.454011
F	1.413565	0.0	0.0
H	-0.091835	0.919736	-1.970827
H	-0.325771	0.931494	0.467758
H	-1.574623	0.079425	-1.357476
N	-0.505718	-1.081298	0.770766
H	-1.528855	-0.894643	0.782226
H	-0.373404	-1.945681	0.253188
C	-0.063971	-1.160642	-2.185761
N	0.252017	-2.128257	-2.771221
H	-3.018639	0.0	0.0
