12

C	0.0	0.0	0.0
C	-0.478957	0.154642	-1.443315
F	1.394533	0.0	0.0
H	-0.234922	-0.752133	-2.006877
H	-0.323874	0.874552	0.568727
H	-1.582474	0.228421	-1.338009
N	-0.526988	-1.155783	0.643519
H	-1.547701	-0.950028	0.67723
H	-0.420885	-1.95166	0.018538
C	0.081181	1.312177	-2.128604
N	0.52711	2.251076	-2.676054
H	-3.027174	0.0	0.0
