12

C	0.0	0.0	0.0
C	-0.622051	-0.086398	-1.372252
F	1.407421	0.0	0.0
H	-1.733443	-0.054514	-1.110346
H	-0.32998	0.926607	0.471756
H	-0.348591	0.773247	-1.992456
N	-0.424307	-1.105548	0.789017
H	0.020331	-1.95083	0.456403
H	-0.196149	-0.963494	1.761929
C	-0.269275	-1.318796	-2.056232
N	0.01959	-2.322536	-2.597055
H	-3.224959	0.0	0.0
