12

C	0.0	0.0	0.0
C	-0.480253	-0.014805	-1.453509
F	1.387391	0.0	0.0
H	-1.586249	0.03701	-1.35338
H	-0.334746	0.944175	0.437157
H	-0.106146	0.85661	-2.000661
N	-0.512984	-1.056279	0.804571
H	-0.383058	-1.93794	0.316113
H	-1.532111	-0.86691	0.811172
C	-0.079217	-1.230001	-2.148355
N	0.24214	-2.21929	-2.694469
H	-3.032162	0.0	0.0
