13

C	0.0	0.0	0.0
C	-0.581142	-0.000701	-1.399891
F	1.391741	0.0	0.0
H	-0.292015	0.903803	-1.943696
H	-0.32397	0.930236	0.476574
H	-1.688764	0.017259	-1.213764
C	-0.484975	-1.180214	0.805297
H	-1.580718	-1.124182	0.825136
H	-0.081904	-1.130334	1.820772
H	-0.158928	-2.115288	0.341457
C	-0.195818	-1.168718	-2.180257
N	0.107562	-2.108349	-2.817489
H	-3.211919	0.0	0.0
