12

C	0.0	0.0	0.0
C	-0.510914	0.076263	-1.419349
F	1.377819	0.0	0.0
H	-0.262723	1.038873	-1.863256
H	-0.367964	0.880399	0.531027
H	-1.601054	-0.067323	-1.393172
C	-0.406631	-1.198473	0.75874
N	-0.557086	-2.137503	1.445326
N	0.106274	-0.948129	-2.30076
O	0.341935	-0.609793	-3.460861
O	0.307837	-2.067433	-1.838552
Cl	-3.386329	0.0	0.0
