12

C	0.0	0.0	0.0
C	-0.52138	0.102519	-1.412991
F	1.377848	0.0	0.0
H	-1.615077	-0.012964	-1.376716
H	-0.365798	0.872718	0.545768
H	-0.258892	1.065186	-1.849422
C	-0.420129	-1.208211	0.732583
N	-0.634135	-2.170968	1.367658
N	0.052701	-0.923822	-2.320696
O	0.370159	-2.01286	-1.849839
O	0.13656	-0.616027	-3.509459
Cl	-3.398033	0.0	0.0
