15

C	-0.381339	0.00045	-1.470428
C	0.0	0.0	0.0
F	0.231016	-1.005103	-2.120479
H	1.094335	0.0	0.0
C	-1.823954	-0.025977	-1.754476
N	-2.974258	-0.038697	-1.994425
N	0.150287	1.313232	-2.09542
O	-0.435528	2.33018	-1.747506
O	1.073466	1.214302	-2.882527
N	-0.454697	-1.251094	0.661552
O	-0.224985	-1.339412	1.86293
O	-0.991316	-2.119939	-0.028485
C	-0.501088	1.123266	0.756028
N	-0.880132	2.02046	1.415637
F	2.402461	0.0	0.0
