15

C	-0.364706	0.006264	-1.475288
C	0.0	0.0	0.0
F	0.254263	-0.998016	-2.121262
H	1.093776	0.0	0.0
C	-1.803224	-0.015262	-1.778284
N	-2.951969	-0.006753	-2.025678
N	0.182812	1.320432	-2.084132
O	1.138104	1.222735	-2.83268
O	-0.41778	2.336899	-1.758234
N	-0.457834	-1.253209	0.65204
O	-0.985509	-2.120863	-0.045902
O	-0.235751	-1.34653	1.854967
C	-0.505886	1.122469	0.753092
N	-0.895357	2.017104	1.410164
F	2.40209	0.0	0.0
