17

C	0.0	0.0	0.0
C	-0.292037	0.021029	-1.586352
Cl	1.775555	0.0	0.0
H	0.584531	0.524555	-1.99659
N	-0.390254	1.27783	0.69065
O	-0.537669	1.256618	1.910356
O	-0.324838	2.304962	0.006468
C	-0.540805	-1.129597	0.72561
N	-0.61613	-2.161553	1.302952
N	-1.425702	0.719558	-2.152135
H	-1.310777	1.704183	-1.935611
H	-2.22974	0.415276	-1.601397
C	-0.300562	-1.428779	-2.053071
H	0.567102	-1.984643	-1.693077
H	-1.199322	-1.922222	-1.68113
H	-0.311969	-1.443007	-3.145944
H	-2.107066	0.0	0.0
