17

C	0.0	0.0	0.0
C	-0.359278	-0.038361	-1.529677
Cl	1.774785	0.0	0.0
H	0.256598	0.756165	-1.955212
N	-0.59371	1.192576	0.661309
O	-0.681959	2.22067	-0.039275
O	-0.54888	1.213922	1.92133
C	-0.460956	-1.178	0.699022
N	-0.456562	-2.265524	1.144449
N	-1.687184	0.260564	-2.042542
H	-2.401803	-0.455827	-1.986854
H	-1.968625	1.19902	-1.764423
C	-0.00401	-1.375279	-2.146127
H	-0.60692	-2.173497	-1.704821
H	1.046194	-1.626195	-1.996042
H	-0.211633	-1.344734	-3.217203
H	-1.93632	0.0	0.0
