17

C	0.0	0.0	0.0
C	-0.289129	0.011181	-1.585966
Cl	1.768883	0.0	0.0
H	0.580135	0.528858	-1.994233
N	-0.384035	1.287042	0.678262
O	-0.522012	1.276858	1.900235
O	-0.3275	2.305802	-0.017521
C	-0.555525	-1.11905	0.729749
N	-0.624525	-2.147048	1.315123
N	-1.434498	0.688281	-2.154283
H	-1.340607	1.669379	-1.922026
H	-2.233948	0.365329	-1.609246
C	-0.280212	-1.438212	-2.050742
H	-1.183469	-1.939425	-1.694712
H	-0.280484	-1.45255	-3.142724
H	0.588295	-1.987359	-1.679074
H	-2.129041	0.0	0.0
