17

C	0.0	0.0	0.0
C	-0.26724	0.024533	-1.592534
Cl	1.768898	0.0	0.0
H	0.554213	0.64004	-1.963472
N	-0.433512	1.258776	0.678792
O	-0.408643	2.286559	-0.014519
O	-0.535373	1.24533	1.907755
C	-0.532626	-1.146557	0.702828
N	-0.602249	-2.195294	1.249793
N	-1.462499	0.600807	-2.16911
H	-2.25053	0.122414	-1.737626
H	-1.524942	1.553406	-1.821824
C	-0.112907	-1.402588	-2.104493
H	-0.140809	-1.380476	-3.195508
H	0.818849	-1.865504	-1.775588
H	-0.944365	-2.017297	-1.746712
H	-2.067305	0.0	0.0
