17

C	0.0	0.0	0.0
C	-0.274252	-0.065837	-1.579325
Cl	1.754355	0.0	0.0
H	0.16281	-1.034655	-1.864976
N	-0.773881	1.115663	0.619682
O	-0.826534	2.180084	-0.072236
O	-0.776687	1.133769	1.875418
C	-0.44341	-1.234298	0.649202
N	-0.609541	-2.302928	1.119959
N	0.515169	0.976329	-2.252789
H	0.183023	1.854947	-1.866292
H	0.263513	0.952958	-3.231775
C	-1.72482	-0.039527	-2.079864
H	-2.200004	0.897444	-1.777709
H	-1.671714	-0.063719	-3.181821
H	-2.331351	-0.886572	-1.762752
H	-1.963768	0.0	0.0
