17

C	0.0	0.0	0.0
C	-0.247234	-0.110947	-1.574444
Cl	1.766682	0.0	0.0
H	0.278864	-1.037281	-1.836992
N	-0.841007	1.091232	0.592463
O	-0.905528	2.154836	-0.109899
O	-0.853897	1.126316	1.848057
C	-0.417119	-1.238288	0.664588
N	-0.614401	-2.292878	1.152115
N	0.452667	0.991675	-2.248431
H	0.152477	0.985512	-3.217102
H	0.092102	1.83945	-1.814151
C	-1.678763	-0.242358	-2.09114
H	-1.602415	-0.357368	-3.182634
H	-2.236542	0.669832	-1.880685
H	-2.212764	-1.109999	-1.702735
H	-1.930755	0.0	0.0
