12

C	0.0	0.0	0.0
C	-0.528788	-0.033445	-1.418978
Br	1.948155	0.0	0.0
H	-1.631352	-0.019437	-1.342279
H	-0.337328	0.905309	0.502465
H	-0.170695	-0.893291	-1.98126
C	-0.411366	-1.191999	0.735361
N	-0.60125	-2.191874	1.322001
N	-0.116058	1.178632	-2.167249
O	-0.073181	2.243157	-1.554285
O	0.108576	1.043273	-3.369596
Br	-3.559854	0.0	0.0
