18

C	0.0	0.0	0.0
C	-0.461453	0.008042	-1.515052
Cl	1.812372	0.0	0.0
H	0.448433	-0.080826	-2.115219
N	-0.303441	1.360884	0.691018
O	-0.95706	1.350287	1.722628
O	0.177015	2.364178	0.16997
N	-0.53229	-1.000584	0.829439
H	-0.473521	-1.850307	0.273864
H	-1.547924	-0.745226	0.824682
C	-1.22892	1.25284	-1.973672
H	-0.627267	2.160468	-1.959025
H	-2.109124	1.336616	-1.33487
H	-1.554889	1.070704	-3.004292
N	-1.245943	-1.216935	-1.702068
H	-1.44418	-1.295927	-2.693606
H	-2.127628	-0.991623	-1.204187
F	-2.876304	0.0	0.0
