18

C	0.0	0.0	0.0
C	-0.486696	0.14398	-1.480375
Cl	1.780149	0.0	0.0
H	-1.511735	0.495876	-1.338582
N	-0.355581	1.316531	0.754942
O	-0.479754	1.265117	1.967134
O	-0.422193	2.347052	0.087546
N	-0.561324	-1.0353	0.763032
H	-1.604474	-0.819622	0.610162
H	-0.3171	-1.916161	0.326647
C	-0.562788	-1.237267	-2.1156
H	-0.788553	-1.107782	-3.175945
H	0.382416	-1.789538	-2.032424
H	-1.368161	-1.807339	-1.654014
N	0.245818	1.0395	-2.366243
H	0.251001	1.956869	-1.940805
H	1.209634	0.732945	-2.434542
F	-2.769296	0.0	0.0
