18

C	0.0	0.0	0.0
C	-0.46908	0.016919	-1.531013
Cl	1.773002	0.0	0.0
H	0.458682	-0.114262	-2.095295
N	-0.285736	1.379703	0.745079
O	-0.902297	1.311752	1.800574
O	0.156882	2.414828	0.260117
N	-0.57906	-1.051374	0.698892
H	-1.611207	-0.829345	0.592766
H	-0.32408	-0.992583	1.678275
C	-1.13375	1.311911	-1.985703
H	-0.464942	2.167741	-1.942254
H	-1.452181	1.150109	-3.018458
H	-2.015194	1.468171	-1.362301
N	-1.356703	-1.076413	-1.878019
H	-0.968459	-1.931577	-1.494513
H	-2.210943	-0.874784	-1.337634
F	-2.879777	0.0	0.0
