18

C	0.0	0.0	0.0
C	-0.495357	0.014997	-1.460603
Cl	1.77701	0.0	0.0
H	-1.532309	0.343429	-1.328436
N	-0.352951	1.388338	0.622826
O	-0.131304	1.515633	1.820051
O	-0.783412	2.268568	-0.11176
N	-0.577285	-0.94976	0.865229
H	-0.319272	-1.875251	0.543935
H	-1.615774	-0.761255	0.68353
C	-0.536998	-1.405299	-2.01119
H	-0.826698	-1.370113	-3.066063
H	-1.292105	-1.984343	-1.480131
H	0.437621	-1.904727	-1.939745
N	0.2823	0.931235	-2.294397
H	-0.349332	1.550122	-2.783638
H	0.828489	0.41539	-2.973609
F	-2.809184	0.0	0.0
