18

C	0.0	0.0	0.0
C	-0.471193	0.027404	-1.512313
Cl	1.78619	0.0	0.0
H	0.432966	-0.100675	-2.115193
N	-0.320604	1.347625	0.719193
O	0.220154	2.358279	0.277174
O	-1.056267	1.315485	1.691912
N	-0.542013	-1.01617	0.811384
H	-1.552416	-0.746704	0.823777
H	-0.513497	-1.847399	0.22624
C	-1.166512	1.318208	-1.948592
H	-1.485075	1.187694	-2.989219
H	-0.510864	2.188152	-1.897536
H	-2.050274	1.442029	-1.320567
N	-1.308029	-1.157928	-1.712024
H	-1.505734	-1.219539	-2.705168
H	-2.180598	-0.909988	-1.202029
F	-2.907257	0.0	0.0
