18

C	0.0	0.0	0.0
C	-0.262585	-0.145127	-1.580815
Cl	1.778194	0.0	0.0
H	0.302485	-1.073666	-1.734254
N	-0.369963	1.394282	0.59895
O	-0.538884	1.423769	1.813293
O	-0.448745	2.365247	-0.143286
N	-0.606138	-1.027279	0.716048
H	-0.384435	-0.92128	1.699963
H	-1.637524	-0.811661	0.576203
C	0.366633	0.931491	-2.472298
H	0.367471	0.532463	-3.490439
H	-0.253692	1.827343	-2.459832
H	1.381846	1.217831	-2.207811
N	-1.599335	-0.365362	-2.089242
H	-1.970194	0.546945	-2.334391
H	-2.227435	-0.600544	-1.30392
F	-2.935861	0.0	0.0
