15
Coordinates from ORCA-job run
  C   -0.60348047686553     -0.00551605751769     -0.48334844406731
  C   0.84298049815688      0.38880292406972     -0.29124227224221
  Br  -0.85889609643037     -1.32744722054930     -1.84146193378242
  H   0.84516753410792      1.27105754100273      0.35358519037532
  H   1.23273537337015      0.69261763780609     -1.26379727139505
  N   -1.48247330875036      1.18861478046613     -0.85802018988441
  O   -2.68289716904330      1.04677421118714     -0.67726319763803
  O   -0.91047118747951      2.16070181471915     -1.33169664799732
  N   -1.15348321845205     -0.46812322060937      0.86686389437131
  O   -1.17606675017681      0.43090958692565      1.70026989847660
  O   -1.44714699642270     -1.63953757209235      1.03037788985037
  C   1.68046938001041     -0.72803405360276      0.32335085122164
  H   1.64166142628821     -1.63980913362546     -0.27388553212360
  H   1.35158620245022     -0.96335716617178      1.33748691909940
  H   2.72131478923687     -0.40565407200790      0.38178084573570
