15
Coordinates from ORCA-job run
  C   -0.70888414103311     -0.27233432983554     -0.46896584571846
  C   0.77092011170100     -0.57076163360320     -0.48359143472213
  Br  -1.70084929652893     -1.41319198112014     -1.64976197047333
  H   0.87058106675934     -1.64000893784505     -0.28935491906704
  H   1.11253030474061     -0.40016177432653     -1.50725868319207
  N   -1.00961925643388      1.18341690352946     -0.91097751379044
  O   -2.17535692275635      1.54303178609125     -0.92650059278288
  O   -0.03435631208113      1.83297556038562     -1.27315324537735
  N   -1.30545360463011     -0.49957345047931      0.95623660344031
  O   -0.74463535907546     -1.37337801076900      1.60360130494275
  O   -2.32233670477868      0.09590590196915      1.26533215019098
  C   1.63254723944210      0.23410434532678      0.49026567676887
  H   2.67246343640118     -0.07201886593191      0.35847617499515
  H   1.57535229704508      1.30060312401164      0.28043131176023
  H   1.36609714122835      0.05039136259679      1.52922098302542
