15
Coordinates from ORCA-job run
  C   -0.63302652258724     -0.13240581103045     -0.35264418201101
  C   0.78269373874848      0.39999350670133     -0.27163434020728
  Br  -0.79963952844420     -1.73475650288398     -1.37562430278047
  H   0.74775310767883      1.25297128433719      0.41068727288384
  H   1.01623265920202      0.78277035726083     -1.27100844276560
  N   -1.50746384311117      0.99018342255436     -0.93966080489667
  O   -1.70201670073357      1.90944724864411     -0.15261296142161
  O   -1.85772530048383      0.92160796602565     -2.10442680001746
  N   -1.26648121537824     -0.37449549206378      1.02191442691690
  O   -2.44000738726303     -0.71483470090734      1.01132982253976
  O   -0.56058234977194     -0.18057274399878      2.00321718668176
  C   1.84566980041526     -0.60082209623227      0.16605630804756
  H   1.60076282433391     -1.04430460334549      1.12967785937954
  H   2.79943503341061     -0.07912996741316      0.26790738891850
  H   1.97439568398410     -1.39465186764822     -0.56917843126773
