15
Coordinates from ORCA-job run
  C   -0.64420144774421     -0.06589061964803     -0.35078159782738
  C   0.68756002688591     -0.50814144682088      0.21939202331801
  Br  -0.74370764558963     -0.16924105313443     -2.25372942726126
  H   0.72630947045796     -1.59413610100885      0.08183978708781
  H   0.63858516464684     -0.31113415368573      1.29323861929294
  N   -1.04086790925154      1.35282482712479      0.07252792885770
  O   -0.23501318291689      1.97877163947074      0.74903123477743
  O   -2.14994818018975      1.72105461533479     -0.28449814887165
  N   -1.73091202177191     -0.93569743338799      0.30642513465393
  O   -2.22982146382490     -1.84494565705220     -0.33266230020537
  O   -1.93039817732752     -0.64949969884405      1.48143494738022
  C   1.92247363787596      0.14065344115356     -0.39475588091339
  H   2.04836382985162     -0.14717690515044     -1.43812117001873
  H   1.87542014712691      1.22626954617152     -0.32807693130566
  H   2.80515775177114     -0.19271100052280      0.15473578103540
