15
Coordinates from ORCA-job run
  C   -0.73726125342925     -0.19297267734848     -0.53109959507084
  C   0.72296056625211     -0.59553164843461     -0.56820987978021
  Br  -1.78992962756667     -1.21698505156309     -1.76417949902369
  H   0.73827387750348     -1.68704312695428     -0.50931202982184
  H   1.10271351892300     -0.31341501178873     -1.55204715510799
  N   -0.97462161370544      1.27906651844674     -0.86559345375742
  O   -2.11814737645456      1.68379400165808     -0.72527292130097
  O   -0.00639433749312      1.91581655624358     -1.26393795736562
  N   -1.23907662907516     -0.38575547497685      0.89945381782834
  O   -1.52868453963353     -1.52555495178330      1.22712476935576
  O   -1.17808596389428      0.60302540696719      1.61929780742864
  C   1.57818606737263      0.00349618799845      0.54586997670295
  H   1.51531522196608      1.09010992712398      0.56757003890077
  H   2.61983873128314     -0.27302544620335      0.37213440938004
  H   1.29391335795158     -0.38502520938530      1.52520167163207
