15
Coordinates from ORCA-job run
  C   -0.65761338822386     -0.21533480680858     -0.30757991148903
  C   0.73288385780857     -0.56178039262236      0.17293978881702
  Br  -0.95252115068392     -0.63222065711822     -2.15062585773559
  H   0.72242839325322     -0.46600092584707      1.26149341763145
  H   0.90930711198069     -1.61236306510450     -0.06200141030455
  N   -0.90650842407582      1.26564947281567     -0.01591604242101
  O   -0.91078779813070      1.51576297467583      1.18443968218153
  O   -1.00936879346625      2.05456429332887     -0.93910302345050
  N   -1.74177669840493     -0.94284608993733      0.48903403522211
  O   -2.86381926955144     -0.46204721391113      0.42821405624885
  O   -1.39549149410101     -1.95378797109747      1.08454710403704
  C   1.80613481208721      0.33580245993195     -0.43437156463970
  H   1.79580340198305      0.30032942347079     -1.52438422951526
  H   1.68460455052644      1.37416821938037     -0.11966682552955
  H   2.78772488899873      0.00210427884320     -0.09401921905282
