11

C	0.0	0.0	0.0
C	-0.511889	0.184534	-1.44049
F	1.375332	0.0	0.0
H	0.375462	0.233103	-2.093851
H	-0.357188	0.806391	0.629494
H	-0.356224	-0.941354	0.401979
C	-1.235753	1.448402	-1.609939
N	-1.625934	2.526521	-1.865224
C	-1.324574	-0.947874	-1.89843
N	-1.768957	-1.890539	-2.441845
F	-2.388119	0.0	0.0
