11

C	0.0	0.0	0.0
C	-0.433068	-0.114174	-1.461801
F	1.375188	0.0	0.0
H	0.11802	0.666871	-2.002388
H	-0.369355	-0.833365	0.586148
H	-0.367763	0.931232	0.417154
C	-1.882619	0.070759	-1.782113
N	-2.624367	0.226447	-2.697152
C	0.030698	-1.383953	-2.036235
N	0.419977	-2.385824	-2.508449
F	-2.443508	0.0	0.0
