14

C	0.0	0.0	0.0
C	-0.578145	0.854984	-1.098768
Cl	1.76582	0.0	0.0
H	-0.270164	0.399317	-2.045737
H	-0.34514	-1.032149	-0.021551
H	-0.108292	1.840487	-1.042953
N	-0.412876	0.514534	1.360976
O	-0.286483	1.716412	1.564812
O	-0.813451	-0.324617	2.160746
C	-2.097314	0.95837	-0.998844
H	-2.502078	1.447564	-1.887047
H	-2.607122	-0.001182	-0.907527
H	-2.408668	1.54408	-0.135249
Cl	-5.263484	0.0	0.0
