14

C	0.0	0.0	0.0
C	-0.563035	0.081683	-1.393241
Cl	1.767401	0.0	0.0
H	-1.622726	0.322651	-1.267962
H	-0.359673	-0.858049	0.562536
H	-0.06558	0.89492	-1.92522
N	-0.380694	1.205159	0.832539
O	-0.509991	1.014978	2.036242
O	-0.454265	2.284492	0.257007
C	-0.430727	-1.247907	-2.1235
H	-0.832632	-1.157882	-3.13523
H	0.607627	-1.582952	-2.19864
H	-1.017016	-2.011724	-1.608014
Cl	-3.615476	0.0	0.0
