14

C	0.0	0.0	0.0
C	-0.537713	0.029605	-1.40755
Cl	1.767416	0.0	0.0
H	0.03727	0.757283	-1.985252
H	-0.366307	-0.834239	0.592828
H	-1.575694	0.359888	-1.336223
N	-0.376859	1.240493	0.782196
O	-0.490761	2.28734	0.157293
O	-0.46051	1.109218	1.997814
C	-0.498464	-1.360875	-2.030562
H	-1.221846	-1.999894	-1.520841
H	0.493355	-1.817947	-1.974186
H	-0.788964	-1.309922	-3.082846
Cl	-3.547462	0.0	0.0
