14

C	0.0	0.0	0.0
C	-0.576874	0.683761	-1.213464
Cl	1.765655	0.0	0.0
H	-0.265719	0.091001	-2.080471
H	-0.342801	-1.024787	0.128103
H	-0.109258	1.667527	-1.304073
N	-0.410066	0.709681	1.27038
O	-0.333578	1.933009	1.27629
O	-0.752516	-0.004907	2.206906
C	-2.097082	0.791381	-1.137328
H	-2.421576	1.483535	-0.362162
H	-2.498825	1.156435	-2.083815
H	-2.599453	-0.152106	-0.923359
Cl	-5.256961	0.0	0.0
