16
Coordinates from ORCA-job run
  C   -0.76534129219932     -0.05401179070013      0.34190547707699
  C   0.60706934286586     -0.29383927510378     -0.31737538886030
  F   -0.59588974550010     -0.00300051260577      1.68109200729839
  H   0.44031677992745     -0.27368579902554     -1.39952330579180
  N   -1.22018742954415      1.32475565023176     -0.13181655898417
  O   -1.26668671716007      2.23176327794182      0.68301087921121
  O   -1.47889252865582      1.38625131090895     -1.33109622642148
  N   -1.82768690249105     -0.94317804325102      0.05033074847584
  H   -1.61118889047803     -1.87571592122560      0.38070126448304
  H   -2.03548028003390     -0.95308364282345     -0.93926497457780
  C   1.03518228237703     -1.64232699634115      0.05386829755294
  N   1.35592278654544     -2.72759267556504      0.36700273646464
  C   1.64662499501312      0.75974856445025      0.07205373457738
  H   1.77190901104221      0.79402330729235      1.15400015067974
  H   1.33786290293241      1.74599215196122     -0.27830834868217
  H   2.60746568535894      0.52390039385513     -0.38658049250245
