16
Coordinates from ORCA-job run
  C   -0.76175628113300     -0.20316040171936      0.05310917098159
  C   0.71605274715679     -0.12891746729374      0.42392268266026
  F   -1.23266917981484     -1.45744840909800      0.33280497344921
  H   0.77886088862553     -0.35509483537358      1.49082792926505
  N   -1.58007652099515      0.67530051467832      1.05997819279377
  O   -2.59644102417844      1.19962601982506      0.61672785072810
  O   -1.17894070912157      0.72472681504770      2.21680799837119
  N   -1.02514262691098      0.10792340819430     -1.27886846803254
  H   -0.58485418378009      0.97396459960270     -1.56157211237221
  H   -2.02150457731440      0.15790852554023     -1.45161433176656
  C   1.18050661694848      1.24303768717618      0.21967951218670
  N   1.53725161443879      2.34040569212345      0.00075514395166
  C   1.54119972654868     -1.13249731285929     -0.38627532496239
  H   1.49343649382941     -0.90702670918501     -1.45093462474824
  H   1.15134705871934     -2.13722826953725     -0.22323441003690
  H   2.58172995698145     -1.10151985712172     -0.06011418246868
