16
Coordinates from ORCA-job run
  C   -0.73796575654064      0.01608319499218      0.33081368031495
  C   0.68433565589168     -0.42703637839267     -0.01459281763909
  F   -0.73408240339726      0.85820260379306      1.38613587520267
  H   0.61181087147860     -1.10991416041700     -0.86766893824198
  N   -1.21541730414723      0.86152991968345     -0.88154224307250
  O   -1.33631704365086      0.21326309669337     -1.91908959728402
  O   -1.42290499239696      2.05653990825483     -0.73294620580225
  N   -1.60113449848814     -1.05952773027639      0.60045958625626
  H   -2.50351330867412     -0.73554132576953      0.92706887319946
  H   -1.70898661064068     -1.66134215608407     -0.20457181784508
  C   1.22395329743455     -1.16503161365098      1.12807249808096
  N   1.70927438577108     -1.73636071236183      2.03116957501426
  C   1.58711635709975      0.75660080086621     -0.37764318563616
  H   1.26144552167547      1.21767757340515     -1.31124206617495
  H   1.57203306606399      1.50561761888793      0.41454814808694
  H   2.61235276252075      0.41023936037627     -0.50997136445949
