16
Coordinates from ORCA-job run
  C   -0.79811688665378     -0.13389680262339      0.31875175917709
  C   0.70126436949309     -0.42065333127971      0.34591792638684
  F   -1.29763529837168     -0.35764796134821      1.59473271177735
  H   0.75726432516607     -1.50091402780760      0.53850899917704
  N   -1.12274860748341      1.33929748887313      0.07569384681979
  O   -2.30221057948981      1.58310930367313     -0.15424514577339
  O   -0.21441947606080      2.15559807225088      0.17328334010630
  N   -1.45831623929112     -0.85926838607295     -0.67888274542339
  H   -2.44003903232769     -0.61257613430809     -0.71080879068516
  H   -1.34341989333464     -1.85542653766415     -0.54669991001098
  C   1.35244541634447      0.22586730427450      1.48735988579752
  N   1.93155352762873      0.69989786688616      2.39116765260412
  C   1.42291323847860     -0.11778311835043     -0.97033475174614
  H   2.44322946233593     -0.50099721890171     -0.92020104322633
  H   1.46568819584721      0.95504262422527     -1.14775837763812
  H   0.90254747771883     -0.59964914182684     -1.79748535734254
