16
Coordinates from ORCA-job run
  C   -0.69837983750923      0.14983008440508      0.24528356092002
  C   0.60278741386909     -0.46665656384826     -0.27034618779808
  F   -0.42296662017753      0.87741007317559      1.38824843994940
  H   0.40480280954132     -0.82262470704711     -1.28426867714954
  N   -1.22980967025525      1.19163824054409     -0.74490374953231
  O   -2.13634622039667      1.89375181261467     -0.31413115006366
  O   -0.75777769027146      1.21772049404626     -1.87574281518090
  N   -1.73936851489214     -0.77222347355154      0.39672051735172
  H   -1.47768332707589     -1.54805222026406      0.99155742369604
  H   -2.57251524732420     -0.31734851233352      0.75103850405156
  C   0.90724381616085     -1.62653650956137      0.57046267812277
  N   1.13639963170953     -2.54948793561717      1.25916751572706
  C   1.77682906290529      0.51675008795278     -0.27270574439283
  H   1.55338452418129      1.36654166611902     -0.91623342805343
  H   1.98428052808630      0.87009868076740      0.73626566808788
  H   2.66711934144869      0.01918878259814     -0.65941255573571
