16
Coordinates from ORCA-job run
  C   -0.78235155159371     -0.05617992335993      0.06640353818688
  C   0.68393766689095     -0.14756815137937      0.47172290800051
  F   -1.36532133634893     -1.28651111913745      0.37979665925249
  H   0.69670820994781     -0.46843496479513      1.51589322951871
  N   -1.53714898010582      0.90869547904658      0.98716149570396
  O   -2.55771294867855      1.41365907587248      0.53434079999349
  O   -1.10488738549433      1.03179831177940      2.12688541397174
  N   -0.98478761313254      0.35853679308227     -1.24491670196363
  H   -0.58980558837305     -0.28540580167598     -1.91511765815430
  H   -1.96118236321422      0.54083229747097     -1.43579829732267
  C   1.30601243359298      1.17388062191641      0.39171843072597
  N   1.84338908775559      2.21428861214629      0.31243390464954
  C   1.44047730939211     -1.16171911432846     -0.39339546588776
  H   2.43999257632501     -1.31542399224639      0.01468425138545
  H   1.55522355118111     -0.80136022233493     -1.41709214298659
  H   0.91645693185558     -2.11808790205676     -0.39472036507379
