16
Coordinates from ORCA-job run
  C   -0.88321691629926     -0.19821752579960      0.38553562270346
  C   0.63860908359765     -0.45244093852560      0.39903484987123
  F   -1.35291124197106     -0.56024471361624      1.60493270281164
  H   0.72586780102930     -1.52700345245625      0.60726268518653
  N   -1.12463523011753      1.30435823716254      0.23552354515341
  O   -1.09461394699751      1.73503914248311     -0.91558625282176
  O   -1.28446762500493      1.95038973009546      1.25890691684120
  N   -1.64542142161487     -0.83335292718651     -0.61840919844074
  H   -1.42197207569690     -1.81623966959789     -0.69630291334404
  H   -1.55969767737648     -0.36226856965032     -1.50753431485440
  C   1.27244237008481      0.25345015666377      1.51476289979693
  N   1.81941581076790      0.80566724327082      2.39478319332182
  C   1.34190599047382     -0.12980203330145     -0.92089107993805
  H   1.30469889774975      0.93692731324804     -1.13909692809893
  H   2.38759765677442     -0.43393897598387     -0.85932542439505
  H   0.87539852460090     -0.67332301680599     -1.74359630379327
