16
Coordinates from ORCA-job run
  C   -0.70149748062813      0.15663006738550      0.37064979249437
  C   0.64264855628533     -0.48638281934078      0.02706472282793
  F   -0.53361648044010      1.19381150653908      1.21850027097508
  H   0.43817318320121     -1.31814145716582     -0.65538680958620
  N   -1.21670942893184      0.77680738697773     -0.95731154737953
  O   -1.31233609136253      1.99128750430891     -1.05269828280434
  O   -1.48384050927236     -0.05623904228637     -1.82100774991329
  N   -1.62159405073878     -0.74977408861021      0.92442047212153
  H   -2.46128429027613     -0.27770800817132      1.23714615695418
  H   -1.85069663111608     -1.49024896839082      0.27541816719026
  C   1.22003224663460     -1.02613100097175      1.25884314246282
  N   1.73614360847253     -1.44578804039595      2.22570430736685
  C   1.60397128643821      0.50317380049120     -0.63943456804850
  H   1.23318224369983      0.80003572242476     -1.62154794890033
  H   2.57963793848152      0.03523372874083     -0.77280930369536
  H   1.72578589955273      1.39243370846501     -0.02055082206548
