16
Coordinates from ORCA-job run
  C   -0.74889647577590     -0.15365216663869      0.26081266280409
  C   0.72339040990915     -0.34098851500741     -0.10764144074558
  F   -0.87245910895583      0.26271359542082      1.53946965685551
  H   0.75630958513075     -0.68452461568734     -1.14704091311000
  N   -1.25000377261886      1.02522051641544     -0.61711002579402
  O   -1.57741185961783      2.07331305506113     -0.08108101482639
  O   -1.26159925338664      0.77432856873719     -1.82051623474323
  N   -1.51711124194840     -1.31593931328545      0.07695567086902
  H   -1.53078450816112     -1.60363843453755     -0.89208431454146
  H   -2.46015234458338     -1.19284602080357      0.42526784586600
  C   1.27870316855503     -1.39384178990897      0.74357912444851
  N   1.75708336454370     -2.23971805765333      1.40158779479653
  C   1.52329178017384      0.95872084262994      0.03080317418385
  H   1.19744272896188      1.69259404986096     -0.70778492965740
  H   1.40001121084839      1.37863399407542      1.02944265598422
  H   2.58218631692523      0.75862429132141     -0.13465971238966
