16
Coordinates from ORCA-job run
  C   -0.67742719504224      0.25744385820404      0.35930173359076
  C   0.59866973338180     -0.53464044939189      0.07301492931828
  F   -0.40284241192356      1.36157655837754      1.08611527738076
  H   0.30935192400277     -1.41445416845308     -0.51145298169475
  N   -1.16620528527280      0.77304204312312     -1.02206125593153
  O   -1.51877998789446     -0.12249327113144     -1.78698095272509
  O   -1.16345076689455      1.97398925867760     -1.24745707716616
  N   -1.65993375435791     -0.49930453084353      1.02020427201774
  H   -1.96192750087898     -1.28616815543362      0.46198799688636
  H   -2.45159246916282      0.07414563308240      1.28512118403802
  C   1.15354583709257     -0.98636504191049      1.34970195114210
  N   1.65348417234804     -1.34116843990638      2.35056498961330
  C   1.62762273202127      0.28820804504833     -0.70943451713477
  H   1.83717195347285      1.22621739893355     -0.19463049663616
  H   2.55685948759189     -0.27484989807216     -0.79941607521677
  H   1.26345353151614      0.50582115969601     -1.71457897748208
