16
Coordinates from ORCA-job run
  C   -0.70610758572621      0.24387064862732      0.38556308450209
  C   0.55432183874320     -0.48264082152368     -0.12246370688818
  F   -0.33992042359682      1.11662788250709      1.34966376460809
  H   0.22869332986270     -1.14322556538912     -0.93298172230166
  N   -1.23377954260819      1.04466496563502     -0.80251327527010
  O   -1.66975773671879      0.35616275883442     -1.72179513368186
  O   -1.15935444823945      2.26185643884107     -0.76045249762112
  N   -1.79445466933134     -0.52828530153726      0.85853068803043
  H   -2.14896652132157     -1.14140162847656      0.13668044936246
  H   -1.52430801472219     -1.05879031896982      1.67784408058832
  C   1.04505065251005     -1.31473664680653      0.97607436609375
  N   1.41917533401298     -1.97394035051289      1.87271077662673
  C   1.63181776518386      0.47852678287932     -0.63130830337598
  H   2.52059939306644     -0.07977878543845     -0.92783148620874
  H   1.90695287364317      1.19146069520586      0.14576942491741
  H   1.27003775524216      1.02762924612420     -1.50249050938165
