16
Coordinates from ORCA-job run
  C   -0.76041899933030      0.05635059904654      0.26988451959547
  C   0.65303749979457     -0.47244122635737      0.02416082463060
  F   -0.78918580001119      0.86127488267579      1.35338612273559
  H   0.60781450887346     -1.11848447288801     -0.85900491720059
  N   -1.07836407746627      0.97208741665992     -0.94394552785060
  O   -1.22022721941943      2.17274029819992     -0.76649511278228
  O   -1.15360935747618      0.36829669318109     -2.01213393000642
  N   -1.71265782984851     -0.96521549163924      0.42671239151970
  H   -2.61668012473601     -0.58986754447510      0.68683604278800
  H   -1.78993446232216     -1.53257181646198     -0.40644165565735
  C   1.04461002847006     -1.28591346506059      1.17597537433196
  N   1.41336596517745     -1.91938495481167      2.09259869787508
  C   1.66008124680988      0.65747718498540     -0.21491481038051
  H   2.66726173403118      0.24512928057563     -0.27945644715870
  H   1.62954506917979      1.37575810873286      0.60481566852769
  H   1.44436181827367      1.17476450763679     -1.15097724096765
