16
Coordinates from ORCA-job run
  C   -0.83209126545278     -0.26919815655389      0.32536953506981
  C   0.68374198538567     -0.45423014588737      0.43997139960535
  F   -1.41604493274742     -0.65911441173848      1.48142004561192
  H   0.78785894315121     -1.50789816591827      0.72314852562621
  N   -1.13343335911777      1.24947979798957      0.19883876183958
  O   -1.45758514666819      1.86563824849842      1.20276209146970
  O   -0.98919223004086      1.70548031339577     -0.93496700716345
  N   -1.38511212963084     -1.01091762601152     -0.74070083948272
  H   -1.18683889398690     -0.56251520148212     -1.62585005093355
  H   -2.38928773107483     -1.07988201975852     -0.61922926142810
  C   1.21459662333734      0.35968446720506      1.53585834685735
  N   1.68270926644871      1.01539619337366      2.38977902762603
  C   1.45573012808071     -0.20181251740807     -0.85762767424309
  H   1.10327113655303     -0.87659849531085     -1.63862656028612
  H   1.34721502575643      0.82975062123943     -1.19060870618998
  H   2.51446258000649     -0.40326290163282     -0.69053763397893
