16
Coordinates from ORCA-job run
  C   -0.77853491973131     -0.04628375393453      0.10107754587311
  C   0.70321340103478     -0.11886704711336      0.45003110752344
  F   -1.34781111150470     -1.25702919979756      0.50502110979225
  H   0.75832838710082     -0.37184487847426      1.51134045009135
  N   -1.49841279313058      0.96829892001353      0.99494235328588
  O   -0.99462581655777      1.20239532487246      2.08677587607374
  O   -2.56477072292220      1.40194189177781      0.57444600187823
  N   -1.03610898019530      0.29668374443254     -1.22126250536157
  H   -0.65647758784642     -0.37488662717329     -1.87253646594227
  H   -2.02180022298965      0.45442040046942     -1.38305722763982
  C   1.32689547490531      1.19025676893714      0.25929136527531
  N   1.86851272977917      2.21751766491161      0.08939291147213
  C   1.41988475451926     -1.19268076338101     -0.37652189391164
  H   0.89598429551588     -2.14499347664980     -0.28792766371430
  H   1.48898671275987     -0.90552431811044     -1.42728080532718
  H   2.43673639926287     -1.32040465078026     -0.00373215936867
