16
Coordinates from ORCA-job run
  C   -0.77833139014393     -0.04966468118429      0.09967185105313
  C   0.70325502249360     -0.12595406863927      0.44807124466561
  F   -1.34696461377063     -1.26510967874720      0.48915213360239
  H   0.75765347166606     -0.39901714237346      1.50450470043348
  N   -1.49803246260695      0.95406616541919      1.00630076535309
  O   -2.55916321838168      1.40230115751524      0.58781876432072
  O   -1.00026454422591      1.16316289973473      2.10594917201016
  N   -1.03606806251513      0.30900350629880     -1.21844842003701
  H   -2.02156159323467      0.47311882666145     -1.37686838768290
  H   -0.66120017458049     -0.35806624051174     -1.87724710423167
  C   1.32530425455553      1.18757171592176      0.28495792467333
  N   1.86291597607391      2.22092229533041      0.14090494009269
  C   1.42246139553433     -1.18282396698354     -0.39762716243332
  H   2.43967067891374     -1.31488277643017     -0.02739713561867
  H   1.49053106698219     -0.87678665670333     -1.44304205308898
  H   0.90079419324005     -2.13784135530857     -0.32570123311205
