16
Coordinates from ORCA-job run
  C   -0.76718929392931      0.07694773846639      0.33455876279397
  C   0.58937340743127     -0.39582631696573     -0.22287404676741
  F   -0.59376733254128      0.46442871005784      1.61693686684585
  H   0.42372057969613     -0.64767601046852     -1.27575294090704
  N   -1.14956729081584      1.30711312801208     -0.48504307313543
  O   -1.14627832662660      2.39547255902267      0.06637082608592
  O   -1.40612696587341      1.06927964957610     -1.66255569047202
  N   -1.87525882849948     -0.80227604926496      0.26976513543543
  H   -2.08277512698762     -1.05831195655511     -0.68632483524702
  H   -1.70567244827990     -1.62801252104847      0.83118114285795
  C   0.94540635821523     -1.62338626770792      0.48880551904097
  N   1.20864721896623     -2.60689393896284      1.07379880239384
  C   1.68527136296086      0.66651839586896     -0.10522010638875
  H   1.43086313020816      1.54288237757138     -0.70386052419856
  H   2.63187335803760      0.26833577016543     -0.47260629316591
  H   1.81148019803797      0.97340473223272      0.93282045482822
