15

C	-0.251109	-0.075851	-1.501228
C	0.0	0.0	0.0
Br	-2.169979	-0.50349	-1.925634
H	1.095525	0.0	0.0
H	-0.432038	0.916099	0.418746
C	-0.026319	1.231704	-2.113479
N	0.1502	2.287213	-2.600266
C	0.660745	-1.131987	-2.105889
H	0.606868	-1.15032	-3.196326
H	0.373568	-2.100538	-1.69519
H	1.665031	-0.877326	-1.735815
N	-0.41405	-1.233241	0.658932
H	0.326452	-1.494619	1.297213
H	-1.271112	-1.108343	1.180194
F	2.681739	0.0	0.0
