15

C	-0.288774	0.045512	-1.504782
C	0.0	0.0	0.0
Br	0.078579	-1.741864	-2.281422
H	1.100203	0.0	0.0
H	-0.359226	0.959219	0.396996
C	-1.679308	0.341292	-1.83719
N	-2.783551	0.650481	-2.099802
C	0.704798	1.02643	-2.124375
H	1.688668	0.762909	-1.707773
H	0.686135	0.99334	-3.215372
H	0.444638	2.038297	-1.79263
N	-0.686605	-1.09435	0.689361
H	-0.771386	-0.83636	1.665166
H	-0.060452	-1.891425	0.667844
F	2.734345	0.0	0.0
