15

C	-0.286806	0.019275	-1.508983
C	0.0	0.0	0.0
Br	0.097753	-1.772673	-2.252789
H	1.093069	0.0	0.0
H	-0.359661	0.965051	0.381169
C	-1.679814	0.299847	-1.845195
N	-2.788979	0.597353	-2.100882
C	0.698208	1.003762	-2.139056
H	0.682793	0.959075	-3.229437
H	0.428763	2.016806	-1.817954
H	1.684296	0.753561	-1.719533
N	-0.656628	-1.100436	0.705128
H	-0.953565	-0.771914	1.616831
H	0.051261	-1.809394	0.867846
F	2.727941	0.0	0.0
