15

C	-0.178569	-0.021209	-1.519965
C	0.0	0.0	0.0
Br	-2.07935	-0.449016	-2.052942
H	1.096346	0.0	0.0
H	-0.363991	-0.956677	0.390458
C	0.055422	1.311272	-2.073481
N	0.240158	2.38924	-2.505041
C	0.782823	-1.037832	-2.118078
H	1.761564	-0.778029	-1.677137
H	0.787882	-1.011801	-3.209417
H	0.500723	-2.038647	-1.780146
N	-0.569724	1.112797	0.725752
H	-1.504403	1.325714	0.396656
H	0.014971	1.926699	0.581608
F	2.695421	0.0	0.0
