14

C	-0.308731	-0.012838	-1.485579
C	0.0	0.0	0.0
Br	-2.28135	0.064174	-1.807963
H	1.098469	0.0	0.0
H	0.053618	0.910338	-1.941912
H	-0.346771	0.941683	0.436686
N	0.227232	-1.121223	-2.242161
H	-0.033377	-1.991304	-1.790476
H	1.244221	-1.043362	-2.178171
C	-0.516006	-1.185439	0.801032
H	-0.11423	-2.128298	0.421837
H	-1.607629	-1.242412	0.791521
H	-0.181669	-1.100466	1.83741
Cl	3.524562	0.0	0.0
