17

C	-0.591094	-0.004815	-1.406073
C	0.0	0.0	0.0
Br	0.14271	-1.456563	-2.49106
H	1.092981	0.0	0.0
N	-2.002986	-0.113829	-1.364671
H	-2.304957	0.617572	-0.723407
H	-2.389355	0.049043	-2.286811
N	-0.172841	1.278851	-2.172335
O	-0.870797	1.575852	-3.143972
O	0.799859	1.904897	-1.776834
N	-0.418546	-1.17637	0.738848
H	-1.215389	-1.622552	0.298876
H	0.366661	-1.819655	0.75315
N	-0.549972	1.214731	0.639343
H	0.203043	1.896874	0.652117
H	-0.723104	0.940395	1.59936
H	2.88454	0.0	0.0
