17

C	-0.308564	0.026476	-1.485117
C	0.0	0.0	0.0
Br	-2.274288	0.129617	-1.853903
H	1.102179	0.0	0.0
N	0.332671	1.102836	-2.155934
H	0.071997	1.916634	-1.602826
H	1.335395	0.959449	-1.988284
N	0.175655	-1.277553	-2.124497
O	-0.425388	-2.313849	-1.844656
O	1.17317	-1.214934	-2.829178
N	-0.557342	-1.100469	0.771758
H	-0.840567	-1.849182	0.157022
H	0.202423	-1.464913	1.339385
N	-0.368721	1.302558	0.544743
H	-1.180166	1.159479	1.134283
H	0.406973	1.605513	1.127091
H	2.755429	0.0	0.0
