14

C	0.0	0.0	0.0
C	-0.447227	0.007972	-1.463323
Cl	1.842422	0.0	0.0
H	-0.014202	0.869953	-1.987774
H	-1.539439	0.123083	-1.364001
C	-0.339928	1.296876	0.614591
N	-0.497798	2.370544	1.064859
N	-0.539665	-1.070902	0.762974
H	-0.440182	-1.88988	0.16488
H	-1.565238	-0.840017	0.755972
N	-0.142956	-1.28055	-2.074317
H	0.732072	-1.243202	-2.579721
H	-0.883731	-1.533438	-2.713976
H	-3.032695	0.0	0.0
