14

C	0.0	0.0	0.0
C	-0.477784	0.096324	-1.451478
Cl	1.796823	0.0	0.0
H	-1.575538	0.134881	-1.341769
H	-0.115334	1.055768	-1.857713
C	-0.32052	1.300038	0.656518
N	-0.409079	2.35714	1.16813
N	-0.564068	-1.134834	0.646383
H	-0.405626	-1.057176	1.648253
H	-1.596008	-0.986701	0.490906
N	-0.090596	-1.069578	-2.230917
H	0.871701	-0.980049	-2.542401
H	-0.686517	-1.122797	-3.047553
H	-3.025243	0.0	0.0
