14

C	0.0	0.0	0.0
C	-0.487609	0.052864	-1.447237
Cl	1.783921	0.0	0.0
H	0.011566	0.884353	-1.954797
H	-1.565876	0.247792	-1.340654
C	-0.332702	1.29238	0.655685
N	-0.495896	2.316661	1.209392
N	-0.595612	-1.131874	0.637814
H	-1.632965	-0.919396	0.52657
H	-0.381485	-1.114226	1.631021
N	-0.188595	-1.213425	-2.129648
H	-0.316813	-1.938748	-1.428427
H	-0.927531	-1.357786	-2.810242
H	-3.01622	0.0	0.0
