17

C	0.0	0.0	0.0
C	-0.522997	0.163327	-1.44372
Br	1.963997	0.0	0.0
H	-1.604512	0.303433	-1.307885
C	-0.485332	1.146292	0.87412
H	-1.579642	1.137088	0.862549
H	-0.111553	2.078855	0.44906
H	-0.123144	1.029439	1.896858
C	-0.394891	-1.29651	0.544032
N	-0.682019	-2.357655	0.961424
N	-0.194153	-1.016019	-2.247078
H	-0.675115	-0.909268	-3.135306
H	-0.599185	-1.838561	-1.808757
N	0.02898	1.368603	-2.025484
H	0.900808	1.133708	-2.486649
H	-0.61703	1.745465	-2.706077
Br	-3.959729	0.0	0.0
