17

C	0.0	0.0	0.0
C	-0.512665	0.77644	-1.298522
Br	1.960443	0.0	0.0
H	0.384364	0.981413	-1.890101
C	-0.51104	0.534302	1.329497
H	-1.603669	0.456049	1.328668
H	-0.2201	1.577747	1.436194
H	-0.109744	-0.058753	2.153954
C	-0.325075	-1.422925	-0.12151
N	-0.514174	-2.576526	-0.25023
N	-1.066745	2.048542	-0.872598
H	-1.275185	2.55985	-1.723708
H	-1.973856	1.850458	-0.448579
N	-1.424312	0.043983	-2.152888
H	-2.296343	-0.142467	-1.653803
H	-1.017135	-0.838759	-2.440673
Br	-4.076956	0.0	0.0
