17

C	0.0	0.0	0.0
C	-0.556529	-0.164001	-1.416604
Br	1.980673	0.0	0.0
H	-1.643569	-0.173982	-1.246394
C	-0.494716	1.27205	0.666604
H	-1.589193	1.218503	0.676104
H	-0.173212	2.132401	0.082366
H	-0.118978	1.338747	1.689443
C	-0.338417	-1.172522	0.810275
N	-0.562124	-2.08377	1.517342
N	-0.176724	-1.459678	-1.950698
H	-0.808342	-1.716464	-2.698699
H	0.769209	-1.430308	-2.314144
N	-0.239107	1.021175	-2.203526
H	-0.916937	1.110751	-2.94983
H	0.682884	0.924074	-2.614156
Br	-3.956852	0.0	0.0
