17

C	0.0	0.0	0.0
C	-0.41505	0.148543	-1.491723
Br	1.963452	0.0	0.0
H	-1.503486	0.29883	-1.446766
C	-0.391859	1.18617	0.876794
H	0.013628	2.088129	0.4202
H	0.05115	1.047285	1.866021
H	-1.482635	1.234769	0.962469
C	-0.393069	-1.280061	0.568593
N	-0.633179	-2.334185	1.036024
N	-0.022759	-1.048304	-2.24003
H	-0.487032	-0.999842	-3.13995
H	-0.389242	-1.873478	-1.77422
N	0.196462	1.333487	-2.051734
H	1.095891	1.076183	-2.445003
H	-0.384477	1.709355	-2.786975
Br	-3.716062	0.0	0.0
