17

C	0.0	0.0	0.0
C	-0.600186	-0.315522	-1.38135
Br	1.965786	0.0	0.0
H	-1.6422	-0.576365	-1.144285
C	-0.50654	1.317291	0.564325
H	-0.156655	1.45542	1.588432
H	-0.142169	2.137087	-0.055701
H	-1.601897	1.277594	0.553225
C	-0.330788	-1.10953	0.903233
N	-0.553609	-1.984849	1.655024
N	0.038985	-1.469762	-1.95919
H	0.916809	-1.199907	-2.389375
H	-0.566691	-1.88527	-2.654919
N	-0.528979	0.879791	-2.232876
H	-1.296349	1.489791	-1.959148
H	-0.75156	0.572733	-3.174149
Br	-3.945601	0.0	0.0
