17

C	0.0	0.0	0.0
C	-0.483788	-0.027051	-1.516516
Br	1.96374	0.0	0.0
H	0.396565	-0.317278	-2.097353
C	-0.546528	1.142201	0.839363
H	-1.640319	1.062073	0.84455
H	-0.180902	1.068795	1.865028
H	-0.243118	2.091231	0.400495
C	-0.325319	-1.282647	0.627485
N	-0.552114	-2.31442	1.143206
N	-0.843052	1.330984	-1.891274
H	-1.039161	1.296613	-2.886037
H	-1.741236	1.530706	-1.451243
N	-1.53274	-0.966577	-1.834017
H	-2.396542	-0.736379	-1.333245
H	-1.27061	-1.91361	-1.582138
Br	-4.206147	0.0	0.0
