16

C	0.0	0.0	0.0
C	-0.493113	0.005516	-1.494453
Br	1.964113	0.0	0.0
H	-0.048809	-0.857911	-2.007292
C	-0.508445	1.263141	0.729061
N	-1.754361	1.239644	0.893803
N	-0.423569	-1.208938	0.764121
O	0.018308	-2.290265	0.146018
O	-0.059665	-1.105521	2.0293
N	-0.150611	1.262871	-2.152819
H	0.865205	1.393292	-2.0796
H	-0.349887	1.156625	-3.156092
N	-1.973691	-0.239892	-1.601202
O	-2.447521	0.106001	-2.776205
O	-2.317345	-1.450494	-1.205123
H	-1.598829	0.0	0.0
