16

C	0.0	0.0	0.0
C	-0.379876	0.011075	-1.514971
Br	1.923494	0.0	0.0
H	-1.487979	0.025604	-1.444227
C	-0.540415	1.063014	0.834074
N	-0.596491	1.946188	1.62
N	-0.449621	-1.323776	0.644661
O	-0.382324	-1.346838	1.868749
O	-0.667973	-2.293334	-0.072477
N	0.212119	-1.058249	-2.262593
H	-0.471122	-1.789355	-2.388866
H	0.515976	-0.691912	-3.154429
N	0.010131	1.324523	-2.120295
O	0.490466	1.325389	-3.259524
O	-0.260811	2.340096	-1.484621
H	-2.31162	0.0	0.0
