16

C	0.0	0.0	0.0
C	-0.370844	0.075137	-1.545187
Br	1.921842	0.0	0.0
H	-1.429673	0.298117	-1.629798
C	-0.474068	1.040424	0.857664
N	-0.809131	1.951698	1.536892
N	-0.306947	-1.612377	0.652649
O	-1.46751	-1.989191	0.576594
O	0.608491	-2.25599	1.148439
N	-0.124321	-1.111499	-2.298228
H	-0.810507	-1.807534	-2.029762
H	0.807936	-1.471196	-2.129422
N	0.245416	1.288479	-2.233041
O	0.9784	1.164152	-3.206837
O	-0.161127	2.356083	-1.77321
H	-1.620547	0.0	0.0
