15

C	-0.521071	-0.02562	-1.427556
C	0.0	0.0	0.0
F	0.036769	0.98799	-2.148443
H	1.094211	0.0	0.0
N	0.009	-1.296701	-2.148115
O	0.853968	-1.990238	-1.59759
O	-0.474106	-1.48487	-3.267153
N	-1.921442	0.063616	-1.539166
H	-2.21026	-0.149454	-2.487011
H	-2.380219	-0.546827	-0.877278
C	-0.492082	-1.14868	0.737007
N	-0.885257	-2.083453	1.334798
C	-0.429174	1.230048	0.646996
N	-0.702476	2.231542	1.199581
H	2.474718	0.0	0.0
