15

C	-0.496558	-0.133866	-1.425168
C	0.0	0.0	0.0
F	-1.886832	-0.24042	-1.459575
H	1.101631	0.0	0.0
N	-0.230235	1.141125	-2.237792
O	-0.804694	1.1959	-3.321172
O	0.587655	1.940717	-1.803601
N	0.130132	-1.175444	-2.111577
H	0.500096	-1.899931	-1.51375
H	-0.437112	-1.525519	-2.869545
C	-0.420161	-1.188771	0.721237
N	-0.705914	-2.200775	1.245968
C	-0.482886	1.197592	0.658646
N	-0.782687	2.172691	1.243906
H	2.45928	0.0	0.0
