15

C	-0.24221	-0.117218	-1.507003
C	0.0	0.0	0.0
F	-1.51228	-0.544225	-1.830247
H	1.096304	0.0	0.0
N	-0.229169	1.315583	-2.146538
O	-1.190613	2.038239	-1.907841
O	0.726205	1.597416	-2.864037
N	0.728433	-0.957108	-2.024186
H	1.632999	-0.765311	-1.55755
H	0.806923	-0.881763	-3.029567
C	-0.438264	-1.218282	0.657979
N	-0.746432	-2.19942	1.227527
C	-0.516457	1.170938	0.677443
N	-0.870917	2.117641	1.278357
H	2.515653	0.0	0.0
