12
Coordinates from ORCA-job run
  C   0.75296506893959      0.19458696143960      0.04627139929394
  C   -0.73702750740009     -0.27510677571232     -0.03817722082606
  Br  0.84637017867479      2.13922028374580     -0.10816721857125
  H   -0.72794128318959     -1.37036772111242      0.05255321427443
  C   1.50440583740794     -0.41002075760947     -1.05115191005610
  N   2.08125007461622     -0.92193186939375     -1.93917270268429
  C   1.30884034488279     -0.20944029466193      1.33555258611517
  N   1.73123128364545     -0.55548885828397      2.37733473982582
  C   -1.31752325473829      0.08150877356415     -1.33442726731514
  N   -1.78259359142560      0.34489254621738     -2.38032313298899
  C   -1.51728785833350      0.27925127370022      1.07010548453067
  N   -2.14268929307972      0.70289643810672      1.96960202840180
