12
Coordinates from ORCA-job run
  C   0.76387242026162      0.15458266882662      0.01969954542960
  C   -0.75071140553133     -0.23449416263598     -0.00835189847232
  Br  0.95793037642798      2.08620326745099     -0.19259695695597
  H   -0.79839010757717     -1.32542254513760      0.11723886374901
  C   1.45013338812228     -0.51830452277159     -1.08069394666744
  N   1.97857826240244     -1.07695033361875     -1.97083151399437
  C   1.33432798760447     -0.24604573784966      1.30364552208176
  N   1.76403950398473     -0.59168280613210      2.34262299914050
  C   -1.35106652474833      0.11316643281022     -1.29810613207312
  N   -1.83441478049117      0.36792783276734     -2.33794930894011
  C   -1.46779683393976      0.39438078178496      1.10287331722700
  N   -2.04750228651576      0.87663912450556      2.00344950947547
