12
Coordinates from ORCA-job run
  C   0.77740262035248      0.17528844846159      0.25096636836008
  C   -0.78464131288237      0.15751585481554      0.31809628961379
  Br  1.40908204660029      1.84054420614619      1.06014630345028
  H   -1.06309617343888      0.24637025002682      1.37544669903619
  C   1.22485227991177      0.11411276574962     -1.13751512880435
  N   1.56080923518654      0.06130413289826     -2.26357389707519
  C   1.30366690010711     -0.94906340547635      1.02114903513174
  N   1.69552351160084     -1.85694298035556      1.65818298993871
  C   -1.28421542642986     -1.11648567341104     -0.20911227160607
  N   -1.67160716000025     -2.14386994662310     -0.62743923982753
  C   -1.35023109202021      1.28560929764832     -0.42543549808238
  N   -1.81654542898746      2.18561705011971     -1.01891165013526
