13

C	-0.504641	-0.10423	-1.406775
C	0.0	0.0	0.0
Br	-0.165177	2.089981	-2.24499
H	1.089449	0.0	0.0
H	-0.35055	-0.894472	0.524833
H	-0.374619	0.891316	0.498844
N	0.253774	-0.924843	-2.190723
H	1.246438	-0.81349	-2.01048
H	0.03464	-0.905733	-3.175085
N	-1.882398	-0.222298	-1.554694
H	-2.170722	-0.138495	-2.522742
H	-2.336591	0.512954	-1.031181
Cl	3.518444	0.0	0.0
