13

C	-0.351188	-0.05964	-1.467355
C	0.0	0.0	0.0
Br	-2.413039	-0.720148	-1.539199
H	1.094117	0.0	0.0
H	-0.352465	-0.89232	0.516021
H	-0.402699	0.886584	0.49413
N	-0.214022	1.156086	-2.110721
H	-0.425625	1.096615	-3.095679
H	-0.672255	1.926732	-1.651494
N	0.335905	-1.059252	-2.235725
H	1.330349	-0.854744	-2.114087
H	0.162527	-1.968163	-1.824614
Cl	3.517452	0.0	0.0
