13

C	-0.418313	-0.200987	-1.448103
C	0.0	0.0	0.0
Br	-0.457545	1.73782	-2.290245
H	1.090374	0.0	0.0
H	-0.408171	0.907066	0.439477
H	-0.337317	-0.875249	0.566939
N	0.490349	-1.040965	-2.078565
H	1.457871	-0.831975	-1.844372
H	0.329145	-1.117661	-3.072462
N	-1.757359	-0.664768	-1.738477
H	-1.843308	-1.580545	-1.306591
H	-2.430464	-0.037032	-1.316919
Cl	3.525437	0.0	0.0
