13

C	-0.440961	-0.112558	-1.450763
C	0.0	0.0	0.0
Br	-0.320123	1.696341	-2.283749
H	1.089857	0.0	0.0
H	-0.416424	0.868193	0.508338
H	-0.322192	-0.911437	0.522664
N	0.437404	-0.95052	-2.254642
H	1.392895	-0.612347	-2.139615
H	0.422914	-1.871004	-1.819884
N	-1.817284	-0.521838	-1.562615
H	-1.986168	-0.80189	-2.523104
H	-1.966606	-1.321219	-0.956844
Cl	3.548789	0.0	0.0
