13

C	-0.485332	0.073431	-1.44233
C	0.0	0.0	0.0
Br	-0.438664	-1.800973	-2.176795
H	1.091953	0.0	0.0
H	-0.316551	0.93138	0.489861
H	-0.403833	-0.85068	0.551045
N	-1.870194	0.499457	-1.60873
H	-2.465579	-0.190173	-1.164805
H	-1.974178	1.360827	-1.077432
N	0.344304	0.894856	-2.260668
H	1.305877	0.852211	-1.938649
H	0.007871	1.850639	-2.244087
Cl	3.545561	0.0	0.0
