16

C	-0.42907	-0.011224	-1.444138
C	0.0	0.0	0.0
Br	-2.532413	-0.284738	-1.520224
H	1.093847	0.0	0.0
H	-0.304337	0.984904	0.376119
N	-0.027622	1.100914	-2.138891
H	-0.151695	1.972963	-1.651902
H	-0.280014	1.11156	-3.115048
N	0.014691	-1.223812	-2.259094
O	-0.032874	-1.098354	-3.47907
O	0.372967	-2.223426	-1.654509
C	-0.524345	-1.069141	0.9479
H	-0.030888	-0.926933	1.912293
H	-0.278081	-2.067102	0.59422
H	-1.60371	-0.996243	1.091417
Br	3.592444	0.0	0.0
