16

C	-0.591337	-0.011655	-1.392533
C	0.0	0.0	0.0
Br	0.194011	-1.39938	-2.5227
H	1.089767	0.0	0.0
H	-0.31553	0.948439	0.459731
N	-1.996522	-0.184156	-1.383932
H	-2.403691	0.49232	-0.746506
H	-2.372956	-0.018952	-2.309251
N	-0.194035	1.315491	-2.115285
O	0.946983	1.7197	-1.97352
O	-1.079506	1.860083	-2.77874
C	-0.474814	-1.178791	0.844775
H	0.015393	-1.128429	1.818662
H	-1.556362	-1.192906	0.987813
H	-0.179661	-2.119733	0.377466
Br	3.692973	0.0	0.0
