16

C	-0.563584	0.032337	-1.402637
C	0.0	0.0	0.0
Br	0.285789	-1.442493	-2.478725
H	1.089285	0.0	0.0
H	-0.303714	-0.966965	0.420161
N	-1.973782	-0.01249	-1.438996
H	-2.309479	0.006747	-2.393429
H	-2.300178	-0.845202	-0.966835
N	-0.159865	1.285086	-2.178063
O	0.822732	1.900738	-1.794777
O	-0.859197	1.567949	-3.149964
C	-0.524513	1.14036	0.871716
H	-0.115522	1.025106	1.878108
H	-0.178814	2.102638	0.492886
H	-1.614785	1.152882	0.92915
Br	3.701189	0.0	0.0
