16

C	-0.485854	0.003135	-1.4383
C	0.0	0.0	0.0
Br	0.145529	1.52942	-2.456914
H	1.092272	0.0	0.0
H	-0.329269	-0.957444	0.423999
N	-0.115469	-1.167045	-2.118154
H	-0.476526	-1.215648	-3.061284
H	-0.347448	-1.993881	-1.585393
N	-2.058196	0.142342	-1.336892
O	-2.6247	-0.914671	-1.057891
O	-2.608238	1.231307	-1.433916
C	-0.518656	1.147275	0.857251
H	-1.597605	1.094472	1.028331
H	-0.015004	1.111263	1.825428
H	-0.287439	2.110902	0.400708
Br	3.653664	0.0	0.0
