16

C	-0.581957	-0.039784	-1.408061
C	0.0	0.0	0.0
Br	0.213498	-1.519908	-2.385481
H	1.091817	0.0	0.0
H	-0.312043	-0.939274	0.472235
N	-2.013113	-0.16199	-1.533985
H	-2.30275	-0.985163	-1.019923
H	-2.443844	0.660864	-1.129978
N	-0.209272	1.273597	-2.104448
O	-1.04919	2.16948	-2.000401
O	0.889074	1.38342	-2.619036
C	-0.48362	1.190157	0.826353
H	-0.095896	2.130514	0.431355
H	-1.573792	1.2609	0.886906
H	-0.093294	1.082004	1.840346
Br	3.641318	0.0	0.0
