14

C	0.0	0.0	0.0
C	-0.362926	-0.586815	-1.415596
F	1.381879	0.0	0.0
H	0.620554	-0.874164	-1.800198
H	-0.36018	-0.696801	0.75664
C	-0.425005	1.359478	0.347591
N	-0.571187	2.466643	0.709779
N	-0.759816	0.52672	-2.373784
O	-1.68593	0.346737	-3.14792
O	-0.029422	1.518347	-2.33518
N	-1.24619	-1.687629	-1.538382
H	-0.827212	-2.507087	-1.120665
H	-2.120114	-1.444007	-1.062742
Cl	-3.250688	0.0	0.0
