14

C	0.0	0.0	0.0
C	-0.585084	-0.017	-1.392848
Br	1.945368	0.0	0.0
H	-1.709287	-0.193057	-1.05108
H	-0.308248	0.962924	0.406614
C	-0.44764	-1.072266	0.896415
N	-0.557571	-1.916341	1.713779
N	-0.046942	-1.116939	-2.190345
O	0.206567	-0.927389	-3.394851
O	0.099002	-2.210233	-1.622898
N	-0.448612	1.256976	-2.039363
H	-1.388609	1.604976	-2.228081
H	0.021426	1.104001	-2.930382
H	-2.672718	0.0	0.0
