17

C	0.0	0.0	0.0
C	-0.410688	0.079473	-1.530004
Br	1.934898	0.0	0.0
H	0.529149	0.199911	-2.076592
C	-0.416269	1.1648	0.777179
N	-0.531649	2.121312	1.450783
N	-0.394125	-1.253659	0.782606
O	-0.718716	-1.101262	1.949337
O	-0.243512	-2.329058	0.218378
N	-1.155479	1.323023	-1.699287
H	-2.02222	1.11902	-1.174676
H	-1.359083	1.423984	-2.688106
C	-1.11593	-1.152627	-2.099169
H	-2.028393	-1.30491	-1.526456
H	-0.489217	-2.045228	-2.093415
H	-1.359586	-0.914052	-3.14164
F	-2.483337	0.0	0.0
