17

C	0.0	0.0	0.0
C	-0.455047	-0.080009	-1.4988
Br	1.93087	0.0	0.0
H	-1.474322	-0.448997	-1.370671
C	-0.471883	1.165041	0.731908
N	-0.61686	2.185086	1.300341
N	-0.42573	-1.258387	0.742098
O	-0.557397	-2.27319	0.072476
O	-0.496875	-1.187241	1.960862
N	0.408927	-0.953644	-2.280137
H	0.633352	-0.535224	-3.17213
H	-0.053848	-1.837813	-2.426622
C	-0.536555	1.323744	-2.071955
H	-1.319997	1.862688	-1.542452
H	0.410449	1.867445	-1.994204
H	-0.815626	1.263052	-3.128776
F	-2.454018	0.0	0.0
