17

C	0.0	0.0	0.0
C	-0.392583	0.117593	-1.568406
Br	1.945004	0.0	0.0
H	0.560917	0.305772	-2.069109
C	-0.420528	1.190348	0.727834
N	-0.559717	2.227647	1.264604
N	-0.40479	-1.225119	0.811757
O	-0.268413	-2.317842	0.280349
O	-0.729642	-1.032406	1.973125
N	-1.270883	1.222699	-1.868975
H	-0.838731	2.093705	-1.580009
H	-2.073639	1.033209	-1.245827
C	-0.985966	-1.161352	-2.138738
H	-0.30731	-2.008259	-2.051974
H	-1.914738	-1.361376	-1.609204
H	-1.187879	-0.964553	-3.194494
F	-2.442537	0.0	0.0
