17

C	0.0	0.0	0.0
C	-0.451585	-0.217156	-1.476991
Br	1.938551	0.0	0.0
H	-1.451002	-0.628938	-1.329524
C	-0.478425	1.230805	0.610083
N	-0.616935	2.295716	1.092081
N	-0.421994	-1.176695	0.868292
O	-0.557316	-0.974253	2.064527
O	-0.482074	-2.268648	0.314681
N	0.4739	-1.075678	-2.231375
H	0.433493	-1.996615	-1.806611
H	0.063401	-1.1715	-3.155021
C	-0.594436	1.125733	-2.170953
H	0.316745	1.726119	-2.109201
H	-0.822256	0.964052	-3.230046
H	-1.430746	1.651587	-1.713469
F	-2.439095	0.0	0.0
