17

C	0.0	0.0	0.0
C	-0.215758	0.103958	-1.630038
Br	1.936976	0.0	0.0
H	0.438066	0.965017	-1.817528
C	-0.466354	1.197236	0.677362
N	-0.615532	2.253008	1.174844
N	-0.476094	-1.232128	0.726
O	-0.572504	-2.26253	0.074989
O	-0.619952	-1.129891	1.935776
N	-1.508504	0.425222	-2.179744
H	-2.094139	0.661776	-1.353126
H	-1.936686	-0.460482	-2.435092
C	0.334056	-1.089228	-2.418792
H	-0.319162	-1.95011	-2.28181
H	1.351097	-1.383412	-2.171176
H	0.302247	-0.793101	-3.470995
F	-2.466753	0.0	0.0
