17

C	0.0	0.0	0.0
C	-0.452502	-0.081341	-1.493084
Br	1.926856	0.0	0.0
H	-1.460772	-0.480154	-1.376411
C	-0.486767	1.169445	0.71712
N	-0.611862	2.201516	1.2687
N	-0.426515	-1.251532	0.753583
O	-0.561372	-1.161936	1.963609
O	-0.486724	-2.287059	0.101483
N	0.455115	-0.898169	-2.309221
H	0.32532	-1.862149	-2.022896
H	0.1166	-0.8281	-3.263082
C	-0.556366	1.318891	-2.068894
H	-1.37658	1.829238	-1.568004
H	0.371766	1.886256	-1.958297
H	-0.791777	1.258132	-3.137799
F	-2.449172	0.0	0.0
