18

C	-0.468488	0.051753	-1.441901
C	0.0	0.0	0.0
F	-0.191145	-1.176849	-2.073278
H	1.098146	0.0	0.0
H	-1.56645	0.150809	-1.489484
C	0.211246	1.135995	-2.253145
H	1.290124	1.076322	-2.087079
H	-0.011387	0.995948	-3.314703
H	-0.142559	2.126674	-1.956077
C	-0.504929	-1.255036	0.698093
H	-1.602905	-1.281087	0.744982
H	-0.158316	-2.148192	0.1772
H	-0.116052	-1.292115	1.719926
C	-0.453369	1.254744	0.741664
H	-0.177265	1.175138	1.796966
H	0.038897	2.148766	0.352505
H	-1.541781	1.398105	0.684827
H	3.14816	0.0	0.0
