13

C	0.0	0.0	0.0
C	-0.419205	0.032247	-1.452246
F	1.409888	0.0	0.0
H	-1.511091	0.131558	-1.425432
H	-0.309915	0.928853	0.482333
H	-0.165414	-0.950645	-1.890927
N	-0.530591	-1.096755	0.743543
H	-1.543108	-0.872337	0.785632
H	-0.467328	-1.926939	0.161822
N	0.194677	1.163355	-2.152921
H	1.189148	0.992939	-2.229617
H	-0.18446	1.220914	-3.09005
H	-3.181297	0.0	0.0
