13

C	0.0	0.0	0.0
C	-0.541843	0.0741	-1.429632
F	1.416323	0.0	0.0
H	0.275665	-0.261314	-2.079951
H	-0.248798	0.897901	0.57353
H	-0.733998	1.133651	-1.663495
N	-0.468152	-1.152581	0.667223
H	0.1535	-1.445108	1.405838
H	-0.727696	-1.883851	0.022147
N	-1.690789	-0.808581	-1.593003
H	-2.478367	-0.498654	-0.970776
H	-2.03744	-0.71508	-2.54293
H	-3.87293	0.0	0.0
