13

C	0.0	0.0	0.0
C	-0.401347	0.083752	-1.494055
F	1.390275	0.0	0.0
H	-0.54061	1.13911	-1.746922
H	-0.285632	0.909176	0.54532
H	0.484976	-0.264047	-2.03513
N	-0.5016	-1.203447	0.597129
H	-0.275773	-1.182115	1.586245
H	-1.522473	-1.107068	0.53077
N	-1.560374	-0.65689	-1.957111
H	-1.39947	-1.635992	-1.746919
H	-2.367896	-0.381402	-1.371913
H	-3.35287	0.0	0.0
