13

C	0.0	0.0	0.0
C	-0.621955	0.089312	-1.381228
F	1.418393	0.0	0.0
H	-1.523968	0.701328	-1.260452
H	-0.258861	0.892899	0.575741
H	0.086622	0.580456	-2.0546
N	-0.457265	-1.148638	0.675271
H	-0.016757	-1.235995	1.58009
H	-0.293226	-1.96308	0.099998
N	-0.982918	-1.243847	-1.885174
H	-1.063551	-1.193681	-2.893862
H	-1.925989	-1.399201	-1.519566
H	-3.747209	0.0	0.0
