13

C	0.0	0.0	0.0
C	-0.437045	0.051395	-1.454915
F	1.390949	0.0	0.0
H	-0.016552	0.957008	-1.906914
H	-0.28637	0.933037	0.505981
H	-1.528724	0.123741	-1.454775
N	-0.52833	-1.176249	0.624065
H	-1.554276	-1.038542	0.513908
H	-0.346636	-1.120111	1.621746
N	-0.001706	-1.11019	-2.237689
H	-0.448946	-1.918048	-1.817093
H	0.989886	-1.23271	-2.054404
H	-3.156209	0.0	0.0
