14

C	-0.572578	0.064587	-1.399736
C	0.0	0.0	0.0
Br	-0.129703	-1.5655	-2.38992
H	1.088676	0.0	0.0
H	-1.661632	0.077782	-1.363819
H	-0.355899	0.88105	0.545417
C	-0.006062	1.265635	-2.131744
H	-0.320043	2.17998	-1.617517
H	1.084192	1.222813	-2.128891
H	-0.368365	1.306577	-3.160426
N	-0.555198	-1.161455	0.746709
O	0.213578	-1.906556	1.342406
O	-1.783096	-1.27892	0.734449
Cl	3.435741	0.0	0.0
