14

C	-0.524139	0.069308	-1.429374
C	0.0	0.0	0.0
Br	-0.289678	-1.698727	-2.244422
H	1.088644	0.0	0.0
H	-1.604068	0.224914	-1.428757
H	-0.416186	-0.848338	0.539899
C	0.214034	1.114681	-2.240312
H	0.023317	2.104965	-1.816467
H	1.287921	0.92705	-2.185802
H	-0.113517	1.112243	-3.281426
N	-0.514414	1.215937	0.699185
O	0.247816	2.157647	0.897749
O	-1.712555	1.203121	1.004798
Cl	3.432614	0.0	0.0
