14

C	-0.554637	-0.034575	-1.414864
C	0.0	0.0	0.0
Br	-0.115081	1.678572	-2.250945
H	1.090097	0.0	0.0
H	-0.009634	-0.779292	-1.9945
H	-0.396122	0.836233	0.57433
C	-2.0555	-0.262863	-1.481344
H	-2.297385	-1.249788	-1.075253
H	-2.585897	0.49845	-0.903502
H	-2.408499	-0.221406	-2.513172
N	-0.43775	-1.234219	0.706212
O	-0.224828	-2.307863	0.143289
O	-0.998689	-1.113729	1.797553
Cl	3.363476	0.0	0.0
