14

C	0.0	0.0	0.0
C	-0.597829	-0.172245	-1.385337
F	1.387507	0.0	0.0
H	-1.710185	-0.197032	-1.121103
H	-0.376953	0.718732	-1.981466
C	-0.482021	1.300444	0.614461
H	-0.093907	1.395408	1.631226
H	-0.10459	2.131085	0.009914
H	-1.577342	1.238444	0.592651
C	-0.390085	-1.149789	0.848306
N	-0.584798	-2.105406	1.501648
C	-0.118504	-1.352411	-2.083477
N	0.258437	-2.297054	-2.672449
F	-2.842598	0.0	0.0
