14

C	0.0	0.0	0.0
C	-0.593156	0.166133	-1.391476
F	1.387785	0.0	0.0
H	-1.707565	0.159121	-1.128783
H	-0.335688	-0.688536	-2.023929
C	-0.468088	1.096587	0.938805
H	-0.110872	2.057921	0.559098
H	-1.56158	1.03724	0.931916
H	-0.049606	0.929112	1.934164
C	-0.404878	-1.325493	0.518538
N	-0.557426	-2.397913	0.970847
C	-0.152575	1.394303	-2.028507
N	0.184918	2.388429	-2.557226
F	-2.824232	0.0	0.0
