14

C	0.0	0.0	0.0
C	-0.513815	0.02644	-1.436285
F	1.387582	0.0	0.0
H	-1.62632	0.0372	-1.25854
H	-0.197183	-0.884896	-1.95448
C	-0.424717	1.228288	0.787503
H	0.009716	2.104189	0.300386
H	-1.517271	1.238116	0.770013
H	-0.028143	1.157344	1.8048
C	-0.426823	-1.251519	0.646149
N	-0.54313	-2.284627	1.192167
C	-0.012026	1.18574	-2.156018
N	0.3971	2.120973	-2.735396
F	-2.716241	0.0	0.0
