14

C	0.0	0.0	0.0
C	-0.524769	-0.008836	-1.432081
F	1.387749	0.0	0.0
H	-1.636626	-0.00161	-1.240603
H	-0.214642	-0.93275	-1.936627
C	-0.439441	1.249262	0.752848
H	-0.045643	1.220124	1.773383
H	-1.533354	1.238559	0.733643
H	-0.028045	2.117457	0.234453
C	-0.432869	-1.232385	0.677126
N	-0.557352	-2.239455	1.263174
C	-0.056203	1.152781	-2.168168
N	0.315111	2.106089	-2.744313
F	-2.747063	0.0	0.0
