14

C	0.0	0.0	0.0
C	-0.34876	-0.263041	-1.472444
F	1.390405	0.0	0.0
H	0.000323	-1.271389	-1.718775
H	0.287639	0.421705	-2.043509
C	-0.408745	1.36611	0.527688
H	-1.497257	1.395536	0.499876
H	-0.023721	1.483664	1.545723
H	0.050763	2.130376	-0.106905
C	-0.444539	-1.098004	0.873985
N	-0.564364	-2.011144	1.601488
C	-1.726209	-0.119678	-1.974059
N	-2.509606	-0.106262	-2.857621
F	-2.54906	0.0	0.0
