14

C	0.0	0.0	0.0
C	-0.293164	-0.1291	-1.503682
F	1.390636	0.0	0.0
H	0.415057	0.548719	-1.991088
H	0.010687	-1.145775	-1.80168
C	-0.395116	1.311556	0.643294
H	0.004871	1.33296	1.663718
H	-1.497748	1.32943	0.640464
H	0.043644	2.122572	0.073159
C	-0.442261	-1.181754	0.74967
N	-0.560258	-2.180048	1.356261
C	-1.614023	0.119298	-2.097729
N	-2.481505	0.155801	-2.891656
F	-2.501952	0.0	0.0
