14
Coordinates from ORCA-job run
  C   0.14170614332576      0.34891675213885      0.34233840168450
  C   -1.02391772338501     -0.64399911433375      0.40932748804806
  Br  0.44397529410603      0.87556574408066      2.29662235864375
  H   -1.91490074332427     -0.14622377510439      0.80329017420177
  H   -0.77896144317794     -1.45665367540634      1.09636767915342
  N   -0.20576312387197      1.44866405182755     -0.46544912039368
  H   0.55251828066597      2.11154084826055     -0.56263996534336
  H   -1.03638518584017      1.92903587809950     -0.14359822142485
  C   1.43220838301638     -0.28880475715612     -0.13198091147688
  H   1.30360678939568     -0.61828259491022     -1.16617847964525
  H   2.25093079008057      0.43217115723445     -0.08920569167158
  H   1.69798024196649     -1.14143641458319      0.49300177823579
  C   -1.31899346656809     -1.19580439536307     -0.91336868775022
  N   -1.54500423638943     -1.65668970478447     -1.96852680226147
