14
Coordinates from ORCA-job run
  C   0.17944015847479      0.16679859415412      0.31695992106622
  C   -0.71466375493795     -0.92671633381020     -0.27653858977682
  Br  0.25316416473314     -0.09170590091500      2.26558859434305
  H   -0.70632620490225     -0.81886213640601     -1.36884856517046
  H   -0.29928536213637     -1.91060570423616     -0.04501840075659
  N   -0.44524657815228      1.44842984784835      0.08692461180063
  H   -0.51644773610274      1.61867612444297     -0.91177345019569
  H   0.10266974896183      2.19277483958811      0.50246693116267
  C   1.60143090903717      0.02849874533443     -0.21608343338330
  H   2.24439538306102      0.79235850258940      0.22479028656783
  H   2.02757371966251     -0.95152284028982      0.00824266097165
  H   1.59012657074574      0.17022320958201     -1.30252056506851
  C   -2.09801521067190     -0.86335906296018      0.18709558292532
  N   -3.21981580777272     -0.85298788492201      0.52971441551400
