14
Coordinates from ORCA-job run
  C   0.21351880562791      0.17767012787899      0.21985024571798
  C   -0.67161402944395     -0.96707501007202     -0.28298535592661
  Br  0.23092267383720      0.00815623189315      2.25263542246480
  H   -0.32249121595564     -1.91791078151836      0.12404569710756
  H   -0.58124364572293     -0.99843973485748     -1.37423439226742
  N   -0.29800341218097      1.41666840656275     -0.22004148819700
  H   0.29048859103538      2.18972517211752      0.06297928457531
  H   -1.24490401422627      1.58367428711668      0.09991484152811
  C   1.65024808970156     -0.00728452848689     -0.23024021337151
  H   2.28507731415813      0.77688048443650      0.18649371580754
  H   1.68658259240752      0.05315356807089     -1.32152704201002
  H   2.04208432158469     -0.96994337444447      0.09852162315497
  C   -2.07709919691949     -0.77262738708936      0.06164609963682
  N   -3.20356687390314     -0.57264746160789      0.32294156177947
