14
Coordinates from ORCA-job run
  C   0.12783800015242      0.33232664344359      0.46872823833848
  C   -1.00895410578933     -0.70063070067706      0.47566486788807
  Br  0.49634694977843      0.74953115923189      2.35971716995838
  H   -0.70366578868761     -1.59737101652936      1.01971835594376
  H   -1.87520362700571     -0.26542386933777      0.97851586439312
  N   -0.36514669655800      1.54645011286413     -0.14081325726391
  H   0.35173875535459      2.26297829315005     -0.12447785914454
  H   -0.60681507978470      1.36200646850628     -1.11059302115913
  C   1.40799654131700     -0.23040220943927     -0.13485624978104
  H   1.73843996085379     -1.13260070353440      0.38412181053353
  H   1.23159578248656     -0.47150537957402     -1.18789661687915
  H   2.20655014846607      0.51162589840757     -0.07788869588556
  C   -1.37255946724601     -1.05943344605311     -0.89547303855331
  N   -1.62816137333750     -1.30655125045853     -2.01446756838870
