14
Coordinates from ORCA-job run
  C   0.23864629970631      0.34887291861439      0.43828736466831
  C   -0.95160705821697     -0.63470805734026      0.51971032649740
  Br  0.67552502725074      0.76926841835533      2.31801066879444
  H   -1.77756869285170     -0.16714984282857      1.06284330686203
  H   -0.67035961754869     -1.54177976745691      1.06127627007022
  N   -0.05499138667835      1.59145597325344     -0.22067353849811
  H   -0.15266713472903      1.44333174670633     -1.21932631900311
  H   -0.90082643937091      2.01783778256820      0.13863160249113
  C   1.45225975642344     -0.29263083509687     -0.20806663260232
  H   1.22182474884656     -0.55004988410781     -1.24709162544654
  H   1.74389251893653     -1.20150832122234      0.31949358834574
  H   2.28366730977093      0.41175085486046     -0.19637538093697
  C   -1.39641347426285     -0.97913880044922     -0.83031677013709
  N   -1.71238185727601     -1.21355218585620     -1.93640286110513
