14
Coordinates from ORCA-job run
  C   0.04999371957480      0.37493736375259      0.33030150144273
  C   -1.19905939584615     -0.33785365417773     -0.20233921239374
  Br  0.03161852954397      0.24727967882485      2.29124959034590
  H   -1.25674406834631     -0.16224472115838     -1.28388973733933
  H   -2.08156633030844      0.11598848309628      0.25267902400447
  N   -0.10521644599143      1.78075824341890      0.00410867536778
  H   -0.01934756890101      1.89494596024783     -1.00230833803098
  H   0.63364288618125      2.32093907801548      0.44067716572042
  C   1.33746178654275     -0.26723113028144     -0.16663845132672
  H   1.35589940084160     -0.22242715509038     -1.26170322283433
  H   2.20048086820011      0.28000035807258      0.21695132304214
  H   1.42070787516086     -1.31046038647036      0.14170843216402
  C   -1.19276950078042     -1.77779591391617      0.03292314679363
  N   -1.17610175587160     -2.93783620433407      0.20828010304400
