12
Coordinates from ORCA-job run
  C   0.54046398289910     -0.33623279524456     -0.38019045443591
  C   -0.47076871684249      0.22858894642714      0.59204529908504
  F   0.46797372969293      0.45610773840138     -1.54048863629231
  H   -0.24033814891703      1.26050389424471      0.85311501128078
  H   0.25832183849804     -1.34416959903463     -0.68332361164482
  H   -0.53029536376362     -0.39815401398700      1.48136585623682
  N   1.82483243998374     -0.34474034346527      0.20820478673265
  H   2.49793497954883     -0.80826022407582     -0.38643072861762
  H   2.14704571489770      0.59547656975563      0.39907574189931
  N   -1.82555771474153      0.23516050256689     -0.03089143957376
  O   -2.44530452883050      1.29402348470965     -0.03701612514798
  O   -2.22430821242517     -0.83730416029812     -0.47746569952220
