12
Coordinates from ORCA-job run
  C   0.56802458812746     -0.43899272645962     -0.18432966921446
  C   -0.45309364192406      0.51620341863516      0.39160913293911
  F   0.18598481770026     -0.68003356334863     -1.51672901964389
  H   -0.46479630689043      1.46154661784662     -0.14906576447608
  H   0.52077266069612     -1.40206323864609      0.32329106658567
  H   -0.26652929923008      0.67341978971668      1.45353810868432
  N   1.86428094689409      0.11127352025056     -0.06855421834841
  H   2.57069520326367     -0.55156812034777     -0.35702697282024
  H   1.95579132114596      0.95181741994895     -0.62485830501904
  N   -1.81982894498842     -0.06650489363460      0.26768321056393
  O   -1.97854099370867     -1.18830877351108      0.74205761216936
  O   -2.68276035108589      0.61421054954984     -0.27761518142027
