12
Coordinates from ORCA-job run
  C   0.64692306694771     -0.67583933581530     -0.15306763436804
  C   -0.56236586464508     -0.27753545843282      0.68773852850223
  F   0.11250421522807     -1.35645049520985     -1.26024533372901
  H   -0.24528340182015      0.25854787318197      1.58174435671579
  H   1.21558924953003     -1.42494376599771      0.40538142125953
  H   -1.16351680661093     -1.14964797073103      0.93303222960047
  N   1.47798900271937      0.37754605603276     -0.54933278725186
  H   2.44630350187674      0.31315648731999     -0.29932981372479
  H   1.08678227116217      1.30287921019918     -0.53401532637684
  N   -1.45207246175599      0.64152225036136     -0.07720826102644
  O   -2.53714031975604      0.21111528252074     -0.45021847280202
  O   -1.02271245287591      1.77864986657071     -0.28347890679902
