12
Coordinates from ORCA-job run
  C   0.54265710383421     -0.52835533672703     -0.24900384977217
  C   -0.41744837003845      0.55055295222030      0.21506362989770
  F   0.04010699781229     -0.97691130624019     -1.47158601304193
  H   -0.45107681817329      1.37313565669677     -0.49874976105067
  H   0.51062070821701     -1.38154833558724      0.42929992236044
  H   -0.14706638405242      0.90248515016398      1.21115320521756
  N   1.86744863841992     -0.06163025951037     -0.39456003821050
  H   2.52367557184019     -0.42070738499899      0.27610299208903
  H   1.97263745727513      0.92762978627721     -0.55017243027485
  N   -1.80337746350356      0.00844689197938      0.31319319385417
  O   -2.68988730630449      0.58474776256509     -0.30865482529584
  O   -1.94729013532655     -0.97984557683892      1.02891397422705
