12
Coordinates from ORCA-job run
  C   0.64144679826111     -0.71755783954730      0.00656805053812
  C   -0.83528283110223     -0.40914335114422     -0.20285715898722
  F   0.83793803670437     -1.91330506132390     -0.70057291501865
  H   -1.46008364913398     -1.20950965570338      0.18786643831506
  H   0.84089195805892     -0.95353982435471      1.05367703658264
  H   -1.03359449796109     -0.23467657679892     -1.25919771359390
  N   1.48465824342102      0.30468823378132     -0.45438754675114
  H   1.06353272960294      1.02115923200928     -1.02212196940701
  H   2.14436421319576      0.66604918246855      0.21038875062014
  N   -1.16560266897525      0.83372924798364      0.53623277404531
  O   -1.25759054307936      0.73748522723323      1.75812171375587
  O   -1.26267778899221      1.87462118539640     -0.11271746009920
