12
Coordinates from ORCA-job run
  C   0.69439740225247     -0.73876460739616      0.03167302880487
  C   -0.60991911090777     -0.25741993864985      0.67507308854439
  F   0.37785426779941     -1.75371571573594     -0.85098550184677
  H   -0.41766191736153      0.24207843160202      1.62342929040722
  H   1.30022223701100     -1.17890731433758      0.83060426658268
  H   -1.29250661882725     -1.09614373017663      0.82208159439534
  N   1.48903610334231      0.22684934863671     -0.64794914501573
  H   2.00648402943110      0.81920457757483     -0.01617818060391
  H   0.95236344434489      0.77454001164578     -1.30587708061976
  N   -1.32220991621657      0.73853236550133     -0.17342727082552
  O   -1.42521076450094      0.47856994354462     -1.37036461891285
  O   -1.75484915636712      1.74617662779086      0.38092052909004
