12
Coordinates from ORCA-job run
  C   0.57695497619841     -0.11929649584937     -0.43888055831054
  C   -0.49753350064826      0.23991517005540      0.56492172699415
  F   0.55537987571285      0.82728911982643     -1.44536452858794
  H   -0.49020169681314     -0.44652619708188      1.41331640749462
  H   0.34821864605367     -1.07630901267628     -0.92062997379598
  H   -0.37150080046785      1.26958280297904      0.88975656169854
  N   1.86189957817048     -0.03182529402633      0.20317778736522
  H   2.58704730922620     -0.14842571099394     -0.49448209251526
  H   1.96517283311969     -0.77049158055801      0.88829640249186
  N   -1.84316829210919      0.12109530114940     -0.06429674883812
  O   -2.12505616224970     -0.97401873033046     -0.54634206873854
  O   -2.56921276619316      1.11001062750601     -0.04947291525802
