12
Coordinates from ORCA-job run
  C   0.79004889725836     -0.43983545899444      0.33088752073244
  C   -0.72768677308862     -0.41031809032068      0.45625705031669
  F   1.13557880752170     -1.73445093796540      0.74668524194755
  H   -1.03724141618927     -0.59492593159964      1.48272734276665
  H   1.24910983820860      0.23804197943450      1.05323826710355
  H   -1.17228532375771     -1.13302403188897     -0.22608890648347
  N   1.23671289960198     -0.17477409480949     -0.97258075879587
  H   0.54109209647997     -0.17397993908765     -1.70009174671872
  H   1.90410477278412      0.56931690255451     -1.06630431896784
  N   -1.20558352564989      0.93917750229325      0.06833645390472
  O   -1.68664371304826      1.07199338032537     -1.05647748786074
  O   -1.02720656012099      1.84077872005864      0.88441134205504
