12
Coordinates from ORCA-job run
  C   0.71217600201173     -0.57808135599184      0.06055190559533
  C   -0.65019244232798     -0.26499933309450      0.65521227420209
  F   0.46047783195233     -1.19187658564185     -1.18591732409438
  H   -0.54421504401754      0.34752585812267      1.55073612042670
  H   1.18876326010964     -1.34801865741448      0.67252372957424
  H   -1.20003087301576     -1.17853481007541      0.86687205113140
  N   1.56239097309427      0.54158359643515     -0.02202352375352
  H   2.46240678498033      0.28599378575555     -0.40397489572387
  H   1.14344126342922      1.27869761796282     -0.57260326696575
  N   -1.49826997860680      0.50423784268936     -0.30431060660302
  O   -2.61306202222776      0.06005072157662     -0.55478746596129
  O   -1.02488575538167      1.54342131967589     -0.76227899782793
