12
Coordinates from ORCA-job run
  C   0.79191357927848     -0.49153140599420      0.23962099068027
  C   -0.72180508654215     -0.46849865223177      0.40754483066237
  F   1.13168599708407     -1.83753718239341      0.44299321486012
  H   -1.00830874355132     -0.80405475497885      1.40200170086170
  H   1.27641985260113      0.06368385143910      1.04520583513776
  H   -1.19299929558527     -1.07472247328975     -0.36444010820852
  N   1.20869290347870     -0.03202828314981     -1.01799861687025
  H   1.88905416649934      0.70583495926837     -1.01849329198663
  H   0.49922512187966      0.08040028791922     -1.72272384724284
  N   -1.19201284699944      0.92853645142762      0.24183478505424
  O   -0.97659576728246      1.69522741378167      1.17803805988366
  O   -1.70426988086074      1.23368978820182     -0.83458355283189
