11
Coordinates from ORCA-job run
  C   -0.14243224751042      0.19828271732245     -0.12968086344172
  C   1.17131842767500      0.08069871110648      0.08788940291573
  H   1.83206162494056      0.85879784870823     -0.28145904889285
  N   -0.72285849955081      1.34353183787557     -0.85135215061300
  O   -1.94368010306429      1.33364055064578     -0.96975915769181
  O   0.05960861462832      2.18850906422174     -1.26110904532851
  N   -1.13742966063152     -0.77246332965427      0.31266001700950
  O   -1.60851639153509     -0.58343422277690      1.42898757812457
  O   -1.40182557332758     -1.66602762940915     -0.48446999579653
  C   1.71259551573075     -1.03357158930012      0.78636336987111
  N   2.18215829264509     -1.94796395873981      1.36092989384351
