11
Coordinates from ORCA-job run
  C   -0.14192255642664      0.19904164965799     -0.13016088101648
  C   1.17418798583878      0.06968980786777      0.06533966413636
  H   1.83732049391114      0.83842143905441     -0.31894235462007
  N   -0.72415114298119      1.34357489162369     -0.85134171975133
  O   0.05869424706767      2.17772534821090     -1.28178441090066
  O   -1.94683362947743      1.34324697334957     -0.94999094619475
  N   -1.13786895871093     -0.75955292346612      0.33655709263301
  O   -1.59969548575998     -0.54811526800337      1.45274569387179
  O   -1.41124189226609     -1.66662842281488     -0.44201054340501
  C   1.71376606957387     -1.04309222306719      0.76765733103847
  N   2.17774486923080     -1.95431127241280      1.35193107420868
