11
Coordinates from ORCA-job run
  C   -0.23990377368076     -0.11816461191745     -0.07235174777700
  C   0.94323263571918     -0.67518695695969      0.20559039723381
  H   1.03514764189369     -1.75587783693320      0.16081296029705
  N   -0.49559950168215      1.31802637736429     -0.04694739168052
  O   -0.30587388958685      1.91222166314675     -1.10265468194699
  O   -0.88138942848217      1.77254100320742      1.02470997461131
  N   -1.42134102776318     -0.91664414213086     -0.44057283046693
  O   -1.27003148714860     -2.12819277849579     -0.49610233166439
  O   -2.44665875307795     -0.27941441010091     -0.65800685266644
  C   2.07003950814063      0.11622278449021      0.56150755131105
  N   3.01237807566815      0.75446890832922      0.86401495274906
