11
Coordinates from ORCA-job run
  C   -0.23788073209589     -0.10907393736046     -0.09310798749931
  C   0.87100967699921     -0.66458936655637      0.40523798324718
  H   0.92107215052765     -1.74699903708091      0.46993514721882
  N   -0.42237017142543      1.32520870876080     -0.29789085110873
  O   -0.57051240580673      1.65831390327459     -1.46950684131402
  O   -0.39547629579861      2.04057789985123      0.69698632327624
  N   -1.39994421260604     -0.91645441001260     -0.49407220582684
  O   -1.19854266530651     -2.10052192047117     -0.72230028493590
  O   -2.47018014352175     -0.31861534306437     -0.52846672909802
  C   1.98156769294499      0.11088402895294      0.83788737968375
  N   2.92125710608912      0.72326947370634      1.19629806635682
