11
Coordinates from ORCA-job run
  C   -0.14352972813127      0.18807716093636     -0.15048613311984
  C   1.15687602129182      0.10274063870703      0.14775268924727
  H   1.83198475100128      0.85751472766125     -0.24498707706030
  N   -0.69731649736650      1.30537792770200     -0.92864981722487
  O   0.09397868547484      1.96082423422602     -1.59237577971991
  O   -1.90432340652685      1.48586943719774     -0.80985018405697
  N   -1.14344606500688     -0.79375136707036      0.25998278304249
  O   -1.33951383018478     -0.92279197363488      1.46319475243369
  O   -1.67635488105824     -1.39774972708475     -0.66523796521044
  C   1.68037655579397     -0.95779345215444      0.93733676926826
  N   2.14226839471261     -1.82831760648596      1.58131996240063
