11
Coordinates from ORCA-job run
  C   -0.14421622931010      0.18123668747183     -0.15381564337855
  C   1.15585200767290      0.07695456298322      0.14042728767038
  H   1.83805281157021      0.81250304003596     -0.27515856169837
  N   -0.67036018100075      1.29523754101026     -0.95815938696681
  O   0.13040891187766      1.89366863333869     -1.66308827328491
  O   -1.86411665637922      1.53442175319679     -0.81192731035327
  N   -1.16763656887681     -0.76595746246433      0.28013344013279
  O   -1.75375274267078     -1.33972572662386     -0.63191087417583
  O   -1.32573880318490     -0.90277147473871      1.48804320158920
  C   1.67017764449733     -0.96627358488696      0.95865730131652
  N   2.13232980580447     -1.81929396932288      1.62579881914886
