11
Coordinates from ORCA-job run
  C   -0.24847909730861     -0.10828278238211     -0.06161539640409
  C   0.88861209521716     -0.64918418857808      0.38804222583926
  H   0.91463845325252     -1.72069146199160      0.56244350873367
  N   -0.41432685946906      1.30265198820016     -0.40046410386940
  O   -0.23888659168408      2.11741051433956      0.49842450859032
  O   -0.70159285339115      1.51671641100781     -1.57358532348615
  N   -1.46648589428636     -0.91111049615395     -0.25314536407410
  O   -2.51966978309375     -0.28303698440062     -0.24591630703087
  O   -1.31869445062562     -2.12018662592909     -0.36525252311087
  C   2.05809943613625      0.12430709708817      0.62531712837578
  N   3.04678554525270      0.73140652879974      0.82575164643646
