11
Coordinates from ORCA-job run
  C   -0.15638339014304      0.19002934965134     -0.12867047851234
  C   1.16088503868280     -0.03843317028836     -0.11447501498692
  H   1.80076569148226      0.60706599281495     -0.70897799710326
  N   -1.14457389793513     -0.63146231081212      0.56558668386302
  O   -1.04939757548785     -0.70965304751979      1.78512591551651
  O   -1.96532730095580     -1.17237917376496     -0.16813901377652
  N   -0.73908635384756      1.32448393350722     -0.86238636531514
  O   -0.05950636090185      1.81249259384626     -1.75470115741237
  O   -1.84382201282664      1.69127634954301     -0.47662066430773
  C   1.74186672899975     -1.10042522281131      0.63174137366496
  N   2.25557943293304     -1.97299529416622      1.23251671836978
