11
Coordinates from ORCA-job run
  C   -0.17087651235737      0.19947273203791     -0.09158813201349
  C   1.15425051343061      0.10103962944732      0.06546681083664
  H   1.76223556418934      0.95552165189810     -0.21789095715989
  N   -0.77696723211092      1.39522048126387     -0.69549768121620
  O   -1.79642676047372      1.19049207640941     -1.34704516059231
  O   -0.19422930783091      2.45867088156181     -0.53367933102109
  N   -1.13372187124284     -0.82680056615730      0.30424549742404
  O   -2.07211456436696     -0.41972069072521      0.98260841125440
  O   -0.89783876871716     -1.97605239331905     -0.04831596012050
  C   1.79089727005017     -1.06299078476051      0.57528808820617
  N   2.33379166942975     -2.01385301765635      1.00740841440223
