11
Coordinates from ORCA-job run
  C   -0.13792522209061      0.19969876782885     -0.13327903063056
  C   1.12523767785765     -0.10630157584400     -0.16775793012198
  H   1.76672969027172      0.46305468805859     -0.82302366710202
  N   -1.12228432892106     -0.54351747699899      0.64723664527820
  O   -0.96021974820718     -0.56444389922243      1.82000655477488
  O   -1.97909676488785     -1.08011192660082      0.01167298487555
  N   -0.70999770906438      1.32088845904613     -0.90964219414819
  O   -1.76000966905798      1.78508450325607     -0.50179704143119
  O   -0.07259281347885      1.71846949964266     -1.87860561310596
  C   1.68016708349101     -1.16630933703585      0.63986275980789
  N   2.16999180408753     -2.02551170213022      1.29532653180338
