11
Coordinates from ORCA-job run
  C   -0.25087425663317     -0.10186665278319     -0.06154726491012
  C   0.96661881388179     -0.65416868904468     -0.03928907950580
  H   1.06041204326945     -1.70343060889122     -0.30295629809952
  N   -1.45537226932103     -0.89171933516564     -0.36208277730942
  O   -2.51091987417417     -0.42236855903252      0.04946676079195
  O   -1.28900136648232     -1.94737754312196     -0.95719688283836
  N   -0.52365557253513      1.30774362291285      0.20636925045174
  O   -0.22102295476942      1.73415418078635      1.31509139586511
  O   -1.02162375299510      1.92008450282168     -0.73252070138053
  C   2.13168682895882      0.08710625048959      0.30059003013215
  N   3.11375236080027      0.67184283102875      0.58307556680281
