11
Coordinates from ORCA-job run
  C   -0.26011197942284     -0.10712128034480     -0.06190516962315
  C   0.85231175711519     -0.69921827635128      0.38419823052204
  H   0.85284316405469     -1.77597886447154      0.53041948345396
  N   -0.34431830356648      1.31998321513435     -0.36370653739799
  O   -0.41737374574803      1.59356070100175     -1.55624396608921
  O   -0.31492272332314      2.08592888577131      0.59311425540099
  N   -1.50880821302224     -0.84326441601526     -0.29488491320682
  O   -2.50969797410698     -0.15577135115476     -0.47295799111802
  O   -1.44230672353695     -2.06409666431282     -0.25422244131574
  C   2.04225505210935      0.03862884873166      0.63598743821264
  N   3.04912968944744      0.60734920201139      0.86120161116130
