11
Coordinates from ORCA-job run
  C   -0.14393542246622      0.18328533969969     -0.14457958552144
  C   1.15965254638508      0.09720953079416      0.14057732075238
  H   1.82248856777670      0.85789752995358     -0.25993477374798
  N   -0.69466738219274      1.30382582199394     -0.92704058452073
  O   -1.90484436266515      1.47540982834058     -0.82607768441327
  O   0.10210778063469      1.97258968605722     -1.56963887133404
  N   -1.14961013247245     -0.78832160332900      0.27055070799705
  O   -1.66127482731065     -1.41909200116168     -0.64919897744849
  O   -1.37100853054184     -0.88406412620817      1.47242844156261
  C   1.68935679785165     -0.96058464215461      0.92919672677907
  N   2.15273496500092     -1.83715536398572      1.56371727989484
