11
Coordinates from ORCA-job run
  C   -0.23596019725448     -0.11269975640753     -0.08331470910407
  C   0.93384481261001     -0.65123028612175      0.27675676806648
  H   1.03352569293842     -1.73147971319644      0.23678804679475
  N   -0.50764695730921      1.31946159016071     -0.13834957097083
  O   -0.49680026811835      1.93052196573285      0.92429490167665
  O   -0.70839143265122      1.75851453528207     -1.26636402127317
  N   -1.38875685287575     -0.94694548437619     -0.46593620323428
  O   -1.15588107164108     -2.11344907736864     -0.74895970576421
  O   -2.48079583464309     -0.39003332015787     -0.42744658035008
  C   2.03654345598236      0.14775173182261      0.68553670189562
  N   2.96931865296240      0.78958781463018      1.00799437226313
