11
Coordinates from ORCA-job run
  C   -0.13977093390331      0.18455724891831     -0.15198927051133
  C   1.16536950444618      0.01991337952330      0.08201043142029
  H   1.86424505076878      0.71311321641056     -0.37536250989055
  N   -1.18893526636168     -0.69715949558598      0.35070662534124
  O   -1.33349822508173     -0.75584723693962      1.56657492900549
  O   -1.80955351144893     -1.30119323760986     -0.51780727436197
  N   -0.65260181482818      1.30635353578681     -0.95437608302020
  O   -1.82015560212079      1.61378918864633     -0.74178215058116
  O   0.13511521335728      1.84399405040753     -1.72002048790177
  C   1.66186330635720     -1.03107100020287      0.90219780157639
  N   2.11792227881517     -1.89544964935451      1.55884798892359
