11
Coordinates from ORCA-job run
  C   -0.23985615270719     -0.11359511409731     -0.07867631224243
  C   0.92974653204388     -0.64821245628814      0.28400617932890
  H   1.02078651470927     -1.72970999876109      0.30076919766621
  N   -1.41316269673586     -0.94451349230909     -0.39188632523959
  O   -1.19973607714672     -2.10882458847546     -0.69959423381328
  O   -2.49851363383116     -0.38686741636667     -0.27385564939607
  N   -0.49408475503192      1.31885405837505     -0.19827187191126
  O   -0.74800924371404      1.70029309523707     -1.33598013361785
  O   -0.41655686492361      1.98692984879856      0.82658369361615
  C   2.05080501182578      0.15159990952992      0.64066037548361
  N   3.00858136551157      0.77404615435717      0.92624508012562
