11
Coordinates from ORCA-job run
  C   -0.24077716889033     -0.11548799301115     -0.07692664653166
  C   0.93322650533557     -0.63422837508574      0.29783815242521
  H   1.03498727971824     -1.71531842436695      0.31534807243491
  N   -1.39889410229603     -0.96628638667735     -0.39147075999651
  O   -2.49441742674257     -0.42419433105524     -0.29215824320371
  O   -1.16543429284021     -2.13062665386222     -0.68519554633737
  N   -0.50706057947614      1.31457390494154     -0.21109009527705
  O   -0.37782103477146      2.00360769769014      0.79442587738295
  O   -0.82018319692716      1.67243465482158     -1.34173256232168
  C   2.04658479656274      0.17639364926041      0.65203812860429
  N   2.98978922032735      0.82013225734498      0.93892362282062
