11
Coordinates from ORCA-job run
  C   -0.24988533315682     -0.11402563204836     -0.04549376071668
  C   0.95733054096848     -0.64215798630135      0.18103789962131
  H   1.04913144473858     -1.72328699703214      0.21581235796244
  N   -0.53469017145094      1.31872438860559     -0.05580233312182
  O   -1.33676557285403      1.68619479290169      0.79608195192197
  O   0.05541997252957      2.00002374100317     -0.88671421617356
  N   -1.42722217960807     -0.95506087151143     -0.31095559054345
  O   -1.36723890304322     -2.12058261047980      0.05608858574233
  O   -2.34663267075252     -0.40496904262202     -0.90710045010423
  C   2.11233755444834      0.16071988304204      0.38893237450641
  N   3.08821531818064      0.79442033444262      0.56911318090527
