11
Coordinates from ORCA-job run
  C   -0.14800860597824      0.21049105608618     -0.10565013430717
  C   1.16451902794143      0.02608378270925      0.07046981980920
  H   1.84078309684641      0.82013956820291     -0.23199735389121
  N   -1.17798761653243     -0.73807123203395      0.30980905445046
  O   -1.96693804748519     -0.30407685297523      1.14279180002813
  O   -1.14370794591856     -1.85574439357519     -0.19240768698911
  N   -0.68114374365423      1.41741392938222     -0.75658619714019
  O   -1.80037600893117      1.30364796239602     -1.24454240936047
  O   0.04801185822776      2.39925344985258     -0.78089418126308
  C   1.69574544097966     -1.15762909938819      0.65260194895303
  N   2.17010254450455     -2.12050817065660      1.13640533971041
