11
Coordinates from ORCA-job run
  C   -0.15423719504592      0.18633865807130     -0.13632375750464
  C   1.14833741189039     -0.11281114416122     -0.17559622713645
  H   1.78267914455388      0.44261746620269     -0.86000632015803
  N   -0.72245407937728      1.28262776938503     -0.93654162086521
  O   -1.78268307245686      1.74183050089225     -0.52572096714125
  O   -0.07361877760474      1.65290838389400     -1.90507760020099
  N   -1.13819802734211     -0.51417835916616      0.68479075870815
  O   -0.97222202692132     -0.48929606276586      1.89899713153373
  O   -2.02880342548922     -1.07134648949416      0.05162027589768
  C   1.71874777075394     -1.13616545233725      0.63036912412430
  N   2.22245227703925     -1.98252527052061      1.27548920274270
