11
Coordinates from ORCA-job run
  C   -0.25685287506011     -0.10217631817813     -0.02649143719459
  C   0.91581483830006     -0.66817189763447      0.27694059703328
  H   0.93610453402690     -1.73544906682124      0.47636340631997
  N   -0.44907927428693      1.32733497395882     -0.25641079686538
  O   -1.21613188489682      1.87320329436081      0.52988420482633
  O   0.17324165338859      1.83273428167372     -1.18373217778703
  N   -1.48851769309878     -0.89539072780073     -0.16347861526256
  O   -2.37452726226796     -0.38300187516581     -0.83885574715920
  O   -1.49977832074476     -1.99440983755663      0.37353436036717
  C   2.12261047168224      0.07930461615087      0.36335293670495
  N   3.13911581295756      0.66702255701278      0.44989326901706
