11
Coordinates from ORCA-job run
  C   -0.23597764046390     -0.11168642396540     -0.09474969971376
  C   0.85828608850313     -0.64346898598968      0.45969868243278
  H   0.89296462543647     -1.71981712199162      0.59958288204538
  N   -0.45158259372723      1.32000884173856     -0.28772690765876
  O   0.34734483008733      1.91387850796002     -1.00299283551984
  O   -1.41905266642231      1.77706658161350      0.31200584930859
  N   -1.34599364124195     -0.94844956864936     -0.57698783586790
  O   -2.06823991888971     -0.43172932049601     -1.42263580380696
  O   -1.42270793787681     -2.08057027051630     -0.12019570850554
  C   1.95952641910583      0.15033173272281      0.88330721812444
  N   2.88643243548915      0.77643602757350      1.25069415916158
