11
Coordinates from ORCA-job run
  C   -0.25295700325779     -0.09883996838049     -0.05927339790507
  C   0.94267691436039     -0.68594117152394      0.05651137767755
  H   1.00733439100748     -1.75758180355578     -0.10713912929143
  N   -1.47474146709118     -0.87344816678134     -0.32802273853174
  O   -1.32734435631921     -1.98455029909038     -0.81794049190576
  O   -2.52540683361323     -0.33398696698923      0.00189798947456
  N   -0.48367205847940      1.33763692830226      0.07058634882445
  O   -0.93063157515600      1.87735576238046     -0.93608929361533
  O   -0.20051878189360      1.85359435560850      1.14586021264792
  C   2.12313013617054      0.04438229388054      0.36533462642899
  N   3.12113063427200      0.62037903614940      0.60727449619586
