11
Coordinates from ORCA-job run
  C   -0.41620755914777     -0.06307208840436     -0.23865747459189
  C   1.05170662000526      0.16221651846740     -0.16910981255175
  H   1.63079747290281     -0.33558849033943     -0.95154719142512
  N   -0.69845511988351      1.20029049400022     -0.54490112959985
  O   -1.55580438526378      1.96750693756294     -0.80554002763009
  O   0.83218153602896      1.55539090667461     -0.48859396517066
  N   -1.32295107051013     -1.15355465447862     -0.09204436895417
  O   -2.51808623666538     -0.91704591650263     -0.24322120158786
  O   -0.78953038586996     -2.22863497744029      0.17450315025757
  C   1.64845362371321     -0.01854994518488      1.15094049716699
  N   2.13689550469029     -0.16895878435496      2.20817152408682
