11
Coordinates from ORCA-job run
  C   -0.34575489537241      0.18356997101458     -0.28846922250714
  C   0.79423584628325     -0.72872777465183     -0.00956381295639
  H   1.46254632694129     -0.90461729032200     -0.85666760853753
  N   -0.54093619294398      1.56118827871235     -0.59928153158938
  O   0.49474324608950      2.21957743841935     -0.67236377093933
  O   -1.69593074096361      1.94437294440620     -0.76118981663756
  N   -1.26705404436738     -0.76819294722594     -0.16322320251300
  O   -2.41921017671011     -1.01700327397098     -0.22022250807490
  O   -0.14568701839992     -1.81738130963100      0.14790409196803
  C   1.53102572605416     -0.44839819969632      1.21911884691356
  N   2.13202192338922     -0.22538783705441      2.20295853487366
