11
Coordinates from ORCA-job run
  C   -0.24245513479537     -0.11427610925195     -0.07207664659830
  C   1.01175511601566     -0.57775434925820     -0.07153510155750
  H   1.18503549247391     -1.59400525414667     -0.41282376761219
  N   -1.38245282057838     -0.96358368333207     -0.45206986580287
  O   -1.13285089574293     -1.95417104741328     -1.12484457974297
  O   -2.47349939666965     -0.60697045460649     -0.02059625474352
  N   -0.62053768206343      1.24689587239622      0.29846398074457
  O   -0.35800131468685      1.60890745304048      1.43969657792603
  O   -1.15678333355019      1.89062169663123     -0.59741979658365
  C   2.11625371853618      0.21674734559413      0.34238136772106
  N   3.05453625106106      0.84758853034661      0.67082408624935
