11
Coordinates from ORCA-job run
  C   -0.14572998963368      0.17967372894603     -0.13668786948699
  C   1.16335823189827     -0.04167438327235     -0.06295009941947
  H   1.81298442629097      0.57195734187314     -0.68533171220838
  N   -1.17593646345963     -0.61476382918197      0.54857564643096
  O   -2.21195321981757     -0.76456711487612     -0.07695933176993
  O   -0.89136477000049     -1.06095841988741      1.66244081589883
  N   -0.71059605176181      1.28077458071469     -0.94308996238442
  O   -0.34238208685226      1.38829139124791     -2.02709922130408
  O   -1.54779965241580      2.01874272834636     -0.37459675893166
  C   1.75605702712479     -1.05941661658476      0.73773977337128
  N   2.29236254862721     -1.89905940732551      1.35795871980386
