11
Coordinates from ORCA-job run
  C   -0.15967695629842      0.20459049257909     -0.10480084866214
  C   1.16211735882308      0.07174607025355      0.04504547291726
  H   1.80269915036209      0.88575412931435     -0.28173853921112
  N   -0.75345804143835      1.38176542928056     -0.75406798646330
  O   -0.06653711672146      2.39332618738792     -0.80025860501715
  O   -1.87292709429185      1.21513596735452     -1.22744887289395
  N   -1.14173672862570     -0.77841932266345      0.34707142179677
  O   -1.92940594647896     -0.36048331123144      1.18899389629019
  O   -1.07187624399406     -1.90303525041076     -0.13473615277802
  C   1.75213879223537     -1.08678141861917      0.62090968788254
  N   2.27766282642825     -2.02459897324519      1.10103052613892
