11
Coordinates from ORCA-job run
  C   -0.14148136308142      0.19918923245322     -0.12877468375997
  C   1.16687590816845      0.09673905471246      0.12534583040282
  H   1.82540034108531      0.89412616674093     -0.20504269840175
  N   -0.71952505194454      1.35769799102212     -0.83133607344889
  O   -1.93940472763892      1.34748027077250     -0.95910385515922
  O   0.06350291085241      2.21494916867104     -1.21369183617964
  N   -1.13247980039452     -0.80175607032682      0.25136457725937
  O   -1.39423702684332     -1.63995481559652     -0.60469310457438
  O   -1.60324966255711     -0.69090961833035      1.37808479501371
  C   1.70499289048424     -1.02723231009170      0.81063986939870
  N   2.16960558186942     -1.95032907002689      1.37520717944927
