11
Coordinates from ORCA-job run
  C   -0.14259660018792      0.20410158183190     -0.11991567846405
  C   1.16704726402046     -0.06272964176528     -0.14222605147148
  H   1.82301058601471      0.59560305513934     -0.70345255875903
  N   -1.13032529441875     -0.59197619294011      0.60053227712946
  O   -1.59320055202478     -1.55201165731073     -0.00565140897038
  O   -1.39748089110356     -0.20547617847726      1.73329792415640
  N   -0.72565506975330      1.35147982448543     -0.83616928130885
  O   -1.94645877855030      1.45299689231559     -0.77273461558204
  O   0.05431330065616      2.08560405816030     -1.42523009332493
  C   1.71023524299455     -1.17923531743777      0.55122944281020
  N   2.17911079235273     -2.09735642400143      1.12032004378469
