11
Coordinates from ORCA-job run
  C   -0.15758325934481      0.18774623369641     -0.13086486928221
  C   1.15371372161318     -0.07211928051602     -0.15862578190893
  H   1.78433679991274      0.53237976052513     -0.80370266341364
  N   -0.74220491142532      1.30560660282652     -0.88870793674035
  O   -0.08735703459178      1.73883907684635     -1.82659604149706
  O   -1.82174643789066      1.71577358884848     -0.47637807549324
  N   -1.13549446935639     -0.57873209740639      0.63661390185374
  O   -0.99227377780861     -0.60721428157361      1.85374863205546
  O   -1.99853911308136     -1.12922663658722     -0.03914391274489
  C   1.73905086508166     -1.11648352375685      0.60897342047823
  N   2.25609761689136     -1.97656944290280      1.22468332669290
