11
Coordinates from ORCA-job run
  C   -0.23066233877964     -0.12756756229828     -0.08785241380594
  C   0.97223019359676     -0.58208691492480      0.27852476686215
  H   1.14899854641497     -1.65321803646423      0.24738570216206
  N   -1.32514969149544     -1.03920225360316     -0.45600092762830
  O   -2.45581856000602     -0.57640027049481     -0.35015929880798
  O   -1.01010919747706     -2.17175208940234     -0.79417310960182
  N   -0.59329172554385      1.28562645596009     -0.15793963694308
  O   -0.91848917636298      1.67534167382916     -1.27476873705730
  O   -0.52576594497581      1.93204618263948      0.88127151653211
  C   2.02234667359869      0.28545874710037      0.68663543917374
  N   2.91671122103039      0.97175406765851      1.02607669911435
