11
Coordinates from ORCA-job run
  C   -0.14199662842394      0.18256836388817     -0.15398332803636
  C   1.16043096255459      0.04481118170743      0.11506684809308
  H   1.85504404420314      0.75257268588594     -0.32769712330610
  N   -1.18305077635951     -0.72782585774125      0.31620191093761
  O   -1.31733708585799     -0.84454462106446      1.52894755199922
  O   -1.80857444801390     -1.29313657663827     -0.57487785061516
  N   -0.65292949511777      1.29903316509348     -0.96464021359360
  O   0.14887852666847      1.86116957212961     -1.69774048457385
  O   -1.83476614793550      1.57787619322730     -0.79391747202119
  C   1.66121315360281     -0.99959448226656      0.94001081451883
  N   2.11308789467960     -1.85292962422138      1.61362934659752
