11
Coordinates from ORCA-job run
  C   -0.13918660346173      0.16966300817405     -0.16985893564389
  C   1.13832559179074      0.13992923486178      0.22378305736971
  H   1.81321500168841      0.89787442168059     -0.16265204559368
  N   -0.62425094939045      1.14774419013675     -1.15639823699291
  O   0.05487513876845      2.15220022001646     -1.31790209787945
  O   -1.65253596235180      0.83633577753931     -1.74755955603010
  N   -1.17372906860701     -0.74133357162951      0.31238713821489
  O   -2.09614113366962     -0.19675553022594      0.91010249604994
  O   -1.01435890619203     -1.93613662659737      0.08977675900770
  C   1.62998793815055     -0.83358482884125      1.13638892340817
  N   2.06379895327448     -1.63593629511485      1.88093249808962
