11
Coordinates from ORCA-job run
  C   -0.14735879249226      0.17938835645094     -0.14841517353435
  C   1.15943855542720      0.07588526134211      0.11496620568779
  H   1.82890783261487      0.81375048244346     -0.31804316870822
  N   -0.69100480848578      1.29160782816749     -0.94571624500890
  O   0.09507105172533      1.88926538679179     -1.66726494541891
  O   -1.88212646317994      1.52971278415337     -0.77623888884051
  N   -1.16305211730702     -0.76690641518045      0.30610794298060
  O   -1.30787157993652     -0.89180921100449      1.51683402146706
  O   -1.75893104678748     -1.34861942937091     -0.59420013584601
  C   1.69354977478310     -0.96228367243994      0.92593085427554
  N   2.17437759363852     -1.80999137135339      1.58603953294592
