11
Coordinates from ORCA-job run
  C   -0.14478668328287      0.21146920478771     -0.10675212341632
  C   1.16547988803963     -0.03569769907364     -0.00741488220689
  H   1.85849503423365      0.70461038642582     -0.39602580431911
  N   -1.19303474330385     -0.65412802065569      0.42802776245385
  O   -1.23440692500741     -1.80587615812361      0.01065405300741
  O   -1.91711515308909     -0.12330891822799      1.26375622268028
  N   -0.65673854774920      1.41072568030452     -0.78817111579376
  O   0.11174139643654      2.35673774978671     -0.89316243174086
  O   -1.80200096859591      1.32497174028108     -1.21792710260208
  C   1.67572539004907     -1.21511462248529      0.60174879825516
  N   2.13564131226946     -2.17538934301961      1.10426662368232
