11
Coordinates from ORCA-job run
  C   -0.15223600281073      0.20317643422064     -0.11007195638478
  C   1.16213883959204      0.00390509668791      0.03351479671131
  H   1.83857583570667      0.77465544014530     -0.32621166470261
  N   -1.18910685993146     -0.70214066863949      0.37954538320748
  O   -2.01345552606149     -0.18110434720156      1.12312943427806
  O   -1.12326382115559     -1.87337070006053      0.02412060020496
  N   -0.67799068436828      1.39599588739707     -0.79175304278408
  O   -1.76914923421608      1.25431795389909     -1.33274468823676
  O   0.02938312700277      2.39445620165231     -0.78555623337769
  C   1.70272528068333     -1.16242283735673      0.64101961283009
  N   2.19037904555883     -2.10746846074401      1.14600775825403
