11
Coordinates from ORCA-job run
  C   -0.15441285738719      0.19158087534692     -0.12921582416414
  C   1.15080943476938     -0.09559858085895     -0.16760936857496
  H   1.78807018532894      0.49865729571405     -0.81595141945039
  N   -1.14242711846038     -0.55835046231203      0.64177288617888
  O   -0.98996453218069     -0.59727909432305      1.85741984285555
  O   -2.02159177100125     -1.08712039992616     -0.03056066214255
  N   -0.72100170876478      1.32544203097025     -0.87607010305383
  O   -1.78814968948979      1.75620406194114     -0.45202918293095
  O   -0.06656077198453      1.74883278449477     -1.81894023422641
  C   1.72123488864054     -1.15424651428441      0.59110271811785
  N   2.22399394052976     -2.02812199676253      1.19908134739095
