13

C	-0.504472	0.046676	-1.399792
C	0.0	0.0	0.0
F	-1.889195	0.067729	-1.484361
H	1.090793	0.0	0.0
H	-0.111581	0.896636	-1.952651
H	-0.384726	-0.906812	0.482569
N	-0.085611	-1.181221	-2.164464
O	-0.567318	-2.253014	-1.800119
O	0.689134	-1.030961	-3.107086
N	-0.406129	1.250706	0.659229
H	0.399549	1.563431	1.184554
H	-1.17141	1.099797	1.301593
F	2.649744	0.0	0.0
