13

C	-0.626925	0.004504	-1.363976
C	0.0	0.0	0.0
F	-0.235705	-1.082632	-2.104928
H	1.091044	0.0	0.0
H	-1.718673	0.037379	-1.357381
H	-0.345243	-0.923612	0.487065
N	-0.241469	1.235878	-2.147259
O	0.900731	1.303051	-2.578144
O	-1.119281	2.085713	-2.297355
N	-0.425416	1.219759	0.706287
H	0.417789	1.607543	1.107547
H	-1.062516	1.014617	1.459905
F	2.653798	0.0	0.0
