13

C	-0.5327	0.087413	-1.403228
C	0.0	0.0	0.0
F	-0.577838	-1.130192	-2.021385
H	1.100213	0.0	0.0
H	-1.522737	0.551871	-1.455313
H	-0.392892	-0.940386	0.401177
N	0.349894	0.987305	-2.245833
O	0.911828	0.530882	-3.229892
O	0.392947	2.154702	-1.865329
N	-0.557995	1.123275	0.794737
H	-0.005141	1.932417	0.527446
H	-0.282434	0.93657	1.753975
F	2.672943	0.0	0.0
