13

C	-0.497155	0.046244	-1.402237
C	0.0	0.0	0.0
F	-1.882884	0.075635	-1.491096
H	1.090813	0.0	0.0
H	-0.097344	0.892419	-1.956105
H	-0.386807	-0.906184	0.481718
N	-0.087491	-1.186814	-2.162626
O	-0.559681	-2.255552	-1.77894
O	0.669786	-1.043858	-3.122009
N	-0.407799	1.252919	0.651613
H	-1.214015	1.115854	1.245866
H	0.37384	1.536222	1.227993
F	2.650897	0.0	0.0
