12

C	0.0	0.0	0.0
C	-0.438268	0.10854	-1.469265
F	1.375732	0.0	0.0
H	-1.543785	0.028336	-1.388759
H	-0.143444	1.097578	-1.833109
C	-0.476528	1.154619	0.774223
N	-0.562543	2.14638	1.400226
C	-0.45415	-1.250519	0.633696
N	-0.58993	-2.273111	1.196701
C	0.185986	-0.91471	-2.291621
N	0.674086	-1.719341	-2.994799
F	-2.448199	0.0	0.0
