12

C	0.0	0.0	0.0
C	-0.433647	0.085139	-1.469384
F	1.375943	0.0	0.0
H	-0.123787	1.066667	-1.840021
H	-1.536993	0.011803	-1.396636
C	-0.479578	1.170015	0.749036
N	-0.571445	2.180082	1.342763
C	-0.449835	-1.244203	0.654933
N	-0.589555	-2.267034	1.221145
C	0.196359	-0.942811	-2.285025
N	0.691956	-1.750372	-2.977537
F	-2.445967	0.0	0.0
