12

C	0.0	0.0	0.0
C	-0.431661	0.073651	-1.477593
F	1.375553	0.0	0.0
H	-0.138213	1.053381	-1.861999
H	-1.533877	-0.007277	-1.397377
C	-0.477313	1.176826	0.735807
N	-0.581835	2.192259	1.317815
C	-0.464223	-1.23293	0.654975
N	-0.586011	-2.245994	1.236431
C	0.197831	-0.966802	-2.272793
N	0.690777	-1.795847	-2.944057
F	-2.440341	0.0	0.0
