12

C	0.0	0.0	0.0
C	-0.442069	-0.122752	-1.464856
F	1.375553	0.0	0.0
H	-1.548983	-0.06634	-1.361166
H	-0.11912	-1.10433	-1.829395
C	-0.452279	1.22646	0.654625
N	-0.670254	2.177738	1.315194
C	-0.487968	-1.14587	0.784085
N	-0.707823	-2.062046	1.490322
C	0.147966	0.924547	-2.289545
N	0.602504	1.769982	-2.962611
F	-2.464145	0.0	0.0
