12

C	0.0	0.0	0.0
C	-0.440263	-0.057772	-1.473511
F	1.37571	0.0	0.0
H	-0.147597	-1.03393	-1.8698
H	-1.545034	0.023654	-1.384818
C	-0.457356	1.229232	0.682815
N	-0.610181	2.229862	1.280499
C	-0.466943	-1.193506	0.723129
N	-0.557796	-2.207786	1.310092
C	0.183858	0.995753	-2.260931
N	0.668096	1.833415	-2.928298
F	-2.445937	0.0	0.0
