12

C	0.0	0.0	0.0
C	-0.439961	-0.095763	-1.469547
F	1.375579	0.0	0.0
H	-1.546296	-0.037108	-1.383395
H	-0.121689	-1.071002	-1.848631
C	-0.452704	1.243132	0.649534
N	-0.587211	2.25647	1.230298
C	-0.477058	-1.163233	0.764827
N	-0.570881	-2.146598	1.401711
C	0.159639	0.955945	-2.276556
N	0.622482	1.793991	-2.956973
F	-2.449386	0.0	0.0
