12

C	0.0	0.0	0.0
C	-0.472309	0.13042	-1.451613
F	1.375751	0.0	0.0
H	-0.201252	1.126538	-1.806778
H	-1.583273	0.037565	-1.317089
C	-0.473267	1.14367	0.805751
N	-0.679675	2.103951	1.450508
C	-0.42899	-1.243717	0.645324
N	-0.63761	-2.232867	1.246881
C	0.143657	-0.866861	-2.310216
N	0.624834	-1.655351	-3.034747
F	-2.487164	0.0	0.0
