12

C	0.0	0.0	0.0
C	-0.447328	0.081037	-1.466583
F	1.375607	0.0	0.0
H	-1.554644	0.023384	-1.367406
H	-0.130178	1.051605	-1.858822
C	-0.454978	1.180032	0.75619
N	-0.52858	2.174934	1.379879
C	-0.460152	-1.228187	0.670217
N	-0.622978	-2.214159	1.287912
C	0.147808	-0.981152	-2.262547
N	0.599236	-1.83386	-2.933285
F	-2.458063	0.0	0.0
