18

C	-0.425236	-0.072551	-1.48321
C	0.0	0.0	0.0
Cl	-2.182793	-0.360013	-1.61695
H	1.093313	0.0	0.0
N	-0.128863	1.291035	-2.096597
O	1.05406	1.483491	-2.35503
O	-1.029896	2.11697	-2.227272
C	0.342189	-1.130569	-2.239283
H	0.072684	-2.096741	-1.816767
H	1.409414	-0.958376	-2.09066
H	0.096115	-1.103998	-3.303124
N	-0.41171	-1.246391	0.627791
H	0.219704	-1.392518	1.409454
H	-1.34406	-1.122659	1.008907
N	-0.459771	1.192066	0.690204
H	-1.336216	1.532038	0.310624
H	0.239634	1.920278	0.613609
Br	3.604057	0.0	0.0
