18

C	-0.406889	-0.030054	-1.48823
C	0.0	0.0	0.0
Cl	-2.187958	-0.007321	-1.671159
H	1.100158	0.0	0.0
N	0.108215	1.244005	-2.151669
O	-0.461588	2.298971	-1.884038
O	1.091491	1.136996	-2.878089
C	0.166517	-1.23537	-2.18951
H	1.245141	-1.261075	-2.01966
H	-0.302599	-2.119181	-1.759627
H	-0.033476	-1.199191	-3.260995
N	-0.486137	-1.248127	0.604692
H	-0.721443	-0.997332	1.557901
H	0.301231	-1.886994	0.657343
N	-0.479475	1.133408	0.754739
H	-1.347023	1.485115	0.371525
H	0.207883	1.873396	0.713513
Br	3.523156	0.0	0.0
