18

C	-0.425938	0.034942	-1.477062
C	0.0	0.0	0.0
Cl	0.246338	-1.380543	-2.321011
H	1.09987	0.0	0.0
N	-1.951709	-0.062177	-1.532268
O	-2.551927	0.992117	-1.316306
O	-2.487121	-1.147499	-1.714831
C	0.0473	1.294302	-2.167059
H	-0.371368	2.159439	-1.658237
H	-0.247048	1.284543	-3.219262
H	1.138755	1.317445	-2.087886
N	-0.583712	-1.170648	0.661861
H	-0.359413	-2.004972	0.126373
H	-0.088375	-1.268625	1.542713
N	-0.40521	1.221418	0.663068
H	0.292151	1.45779	1.357692
H	-1.303439	1.079611	1.111815
Br	3.550566	0.0	0.0
