18

C	-0.419597	0.012984	-1.477525
C	0.0	0.0	0.0
Cl	0.370852	-1.338949	-2.304981
H	1.099377	0.0	0.0
N	-1.933541	-0.180766	-1.572491
O	-2.595062	0.689513	-1.008825
O	-2.405244	-1.132216	-2.179848
C	-0.054999	1.311008	-2.16035
H	-0.581133	2.129055	-1.674364
H	1.019995	1.452646	-2.037648
H	-0.299542	1.261747	-3.223166
N	-0.565594	-1.197294	0.638291
H	-0.080181	-2.011728	0.270857
H	-0.302923	-1.141081	1.617778
N	-0.40403	1.212546	0.67151
H	-1.349439	1.124076	1.022548
H	0.242487	1.391951	1.429407
Br	3.558787	0.0	0.0
