18

C	-0.435682	-0.004034	-1.473067
C	0.0	0.0	0.0
Cl	0.339697	-1.363446	-2.309422
H	1.099863	0.0	0.0
N	-1.950649	-0.214788	-1.515194
O	-2.420378	-1.290862	-1.85929
O	-2.610404	0.753618	-1.139368
C	-0.079166	1.284383	-2.17588
H	-0.352031	1.229367	-3.232306
H	1.000607	1.417072	-2.082019
H	-0.586641	2.110304	-1.685215
N	-0.561801	-1.184454	0.666014
H	-0.206366	-2.014784	0.199909
H	-0.151544	-1.199234	1.594927
N	-0.417668	1.218213	0.654669
H	0.232517	1.419566	1.403723
H	-1.352101	1.101441	1.028754
Br	3.537534	0.0	0.0
