18

C	-0.466273	-0.042645	-1.457096
C	0.0	0.0	0.0
Cl	-2.24432	-0.266018	-1.51918
H	1.093226	0.0	0.0
N	-0.134822	1.310943	-2.083946
O	1.064277	1.489232	-2.257867
O	-1.027254	2.104367	-2.354487
C	0.223556	-1.129329	-2.248362
H	-0.052134	-1.071783	-3.304163
H	1.302325	-1.007392	-2.127717
H	-0.077636	-2.090888	-1.835799
N	-0.385582	-1.257211	0.63227
H	0.257408	-1.438923	1.39386
H	-1.327541	-1.192828	1.002233
N	-0.431644	1.245399	0.605967
H	0.159551	1.447548	1.402482
H	-1.398884	1.192726	0.905729
Br	3.579256	0.0	0.0
