18

C	-0.422899	0.049778	-1.474594
C	0.0	0.0	0.0
Cl	-0.345876	-1.546959	-2.259136
H	1.096916	0.0	0.0
N	-1.894533	0.452179	-1.557201
O	-2.266805	1.103908	-2.526646
O	-2.634236	0.07015	-0.650026
C	0.423265	1.030167	-2.250211
H	0.286606	2.023248	-1.823111
H	1.467115	0.733699	-2.126138
H	0.148087	1.034609	-3.303309
N	-0.429632	-1.185917	0.699593
H	0.177264	-1.329572	1.495196
H	-1.391013	-1.104156	0.999894
N	-0.382075	1.307715	0.558818
H	-1.250698	1.22209	1.07176
H	0.347357	1.60309	1.196084
Br	3.558027	0.0	0.0
