18

C	-0.492164	-0.077724	-1.447707
C	0.0	0.0	0.0
Cl	-2.248635	-0.432187	-1.475131
H	1.093188	0.0	0.0
N	-0.281148	1.296407	-2.080212
O	0.893457	1.562377	-2.304615
O	-1.236615	2.028166	-2.300398
C	0.261741	-1.111435	-2.249335
H	1.329275	-0.894597	-2.169098
H	-0.056001	-1.099613	-3.294948
H	0.062392	-2.087817	-1.809465
N	-0.347875	-1.257908	0.657629
H	-1.264451	-1.199772	1.084918
H	0.343255	-1.437309	1.375705
N	-0.443965	1.242509	0.600415
H	-1.395758	1.167384	0.939648
H	0.172007	1.475789	1.368773
Br	3.545032	0.0	0.0
