18

C	-0.54861	0.005603	-1.447201
C	0.0	0.0	0.0
Cl	0.34339	1.187327	-2.417369
H	1.091701	0.0	0.0
N	-0.294167	-1.374631	-2.04508
O	0.815314	-1.636687	-2.48165
O	-1.234654	-2.173629	-1.973543
C	-2.027096	0.323451	-1.528394
H	-2.153259	1.34316	-1.172639
H	-2.613011	-0.35003	-0.902181
H	-2.377894	0.237724	-2.558026
N	-0.456593	-1.166906	0.75011
H	-1.163486	-1.698755	0.259931
H	0.336931	-1.773805	0.913442
N	-0.444806	1.247423	0.630394
H	-0.998227	0.974386	1.433342
H	0.379621	1.726048	0.975682
Br	3.553851	0.0	0.0
