18

C	-0.528115	0.004304	-1.443384
C	0.0	0.0	0.0
Cl	0.175922	1.374424	-2.352963
H	1.095501	0.0	0.0
N	-0.003348	-1.263129	-2.115814
O	1.19653	-1.471417	-2.035709
O	-0.8237	-1.979102	-2.690559
C	-2.030404	0.045185	-1.553855
H	-2.333	0.052271	-2.600146
H	-2.445985	-0.842121	-1.076852
H	-2.391446	0.939741	-1.049911
N	-0.457039	-1.232395	0.613935
H	0.280272	-1.613421	1.192013
H	-1.278194	-1.048834	1.177487
N	-0.541605	1.1712	0.703632
H	-0.097119	1.165705	1.617575
H	-0.183041	2.003337	0.24275
Br	3.636724	0.0	0.0
