16

C	-0.502366	0.002416	-1.432201
C	0.0	0.0	0.0
Br	-2.399183	-0.290684	-1.663093
H	1.089554	0.0	0.0
C	-0.139242	1.268061	-2.055881
N	0.026488	2.35649	-2.471832
N	0.289607	-1.043877	-2.314763
O	-0.346056	-1.65251	-3.178423
O	1.428661	-1.287847	-1.939065
N	-0.377377	-1.234677	0.753504
O	-0.499616	-2.262069	0.081146
O	-0.62197	-1.116714	1.952757
N	-0.447338	1.150104	0.853987
O	0.454821	1.866473	1.309045
O	-1.653947	1.442287	0.853452
F	2.486117	0.0	0.0
