16

C	-0.468737	0.000742	-1.440448
C	0.0	0.0	0.0
Br	0.27474	1.464119	-2.481986
H	1.090569	0.0	0.0
C	-0.040451	-1.232905	-2.089204
N	0.319506	-2.221141	-2.615113
N	-1.999766	0.121569	-1.603223
O	-2.51172	-0.475959	-2.537768
O	-2.560804	0.852308	-0.801823
N	-0.499946	-1.228659	0.665463
O	0.086674	-1.585591	1.6793
O	-1.462269	-1.812012	0.150882
N	-0.445841	1.16076	0.815462
O	-1.089672	0.942796	1.837917
O	-0.083335	2.262246	0.421096
F	2.41843	0.0	0.0
