16

C	-0.53263	-0.012734	-1.417378
C	0.0	0.0	0.0
Br	0.252116	-1.540326	-2.333856
H	1.08619	0.0	0.0
C	-1.978486	-0.073357	-1.593699
N	-3.136525	-0.147597	-1.78895
N	-0.031321	1.239146	-2.185755
O	0.893989	1.857907	-1.699688
O	-0.6022	1.455076	-3.247036
N	-0.470759	-1.239923	0.707908
O	-1.683607	-1.318669	0.932627
O	0.369715	-2.074391	1.020576
N	-0.574214	1.126448	0.758874
O	-0.359428	1.133562	1.967489
O	-1.199949	1.989943	0.136656
F	2.429691	0.0	0.0
