16

C	-0.296076	-0.04585	-1.482759
C	0.0	0.0	0.0
Br	-2.266526	-0.102964	-1.823583
H	1.10683	0.0	0.0
H	-0.364048	0.941598	0.419942
C	0.23707	1.201364	-2.171131
H	0.046218	1.155059	-3.246963
H	-0.229052	2.105459	-1.773389
H	1.31644	1.245376	-1.990404
N	0.249742	-1.287644	-2.00088
H	0.119355	-1.327548	-3.007
H	1.252671	-1.273814	-1.802539
N	-0.575796	-1.135031	0.724758
H	0.012498	-1.29402	1.537064
H	-0.451343	-1.944536	0.124303
Cl	3.526612	0.0	0.0
