16

C	-0.385898	0.050772	-1.475006
C	0.0	0.0	0.0
Br	-0.187089	-1.91446	-2.164428
H	1.101573	0.0	0.0
H	-0.402316	-0.890814	0.480882
C	-1.832271	0.39168	-1.764521
H	-2.030416	0.353255	-2.838835
H	-2.495768	-0.312668	-1.263103
H	-2.032142	1.393961	-1.384104
N	0.50826	0.915199	-2.124939
H	0.387377	0.94072	-3.128336
H	1.476257	0.715098	-1.876629
N	-0.536194	1.202197	0.671661
H	-0.008243	1.987238	0.30116
H	-0.262063	1.133161	1.646736
Cl	3.530206	0.0	0.0
