16

C	-0.535089	-0.060221	-1.435594
C	0.0	0.0	0.0
Br	-0.185811	1.695585	-2.263625
H	1.097452	0.0	0.0
H	-0.372742	0.904586	0.489484
C	0.201134	-1.120126	-2.230185
H	1.277588	-0.942511	-2.186239
H	-0.011593	-2.094399	-1.776826
H	-0.149661	-1.129712	-3.263131
N	-1.973241	-0.283601	-1.52362
H	-2.130228	-1.08558	-0.913713
H	-2.441455	0.505299	-1.085159
N	-0.481357	-1.211182	0.705729
H	0.32537	-1.796166	0.887996
H	-0.85251	-0.950026	1.609716
Cl	3.538667	0.0	0.0
