16

C	-0.35548	0.00838	-1.478499
C	0.0	0.0	0.0
Br	-2.592782	0.157026	-1.515943
H	1.095659	0.0	0.0
H	-0.349648	-0.943204	0.43536
C	0.05819	1.250026	-2.222883
H	-0.389566	2.133784	-1.773924
H	1.149966	1.310837	-2.151291
H	-0.246118	1.203482	-3.27088
N	0.017696	-1.145361	-2.10461
H	-0.16483	-1.210801	-3.092422
H	-0.152044	-2.00024	-1.598511
N	-0.461789	1.113186	0.801664
H	-1.416208	1.34903	0.559969
H	0.135363	1.914458	0.650685
Cl	3.474613	0.0	0.0
