16

C	-0.259269	-0.014984	-1.50604
C	0.0	0.0	0.0
Br	-2.260172	-0.161789	-1.832638
H	1.098866	0.0	0.0
H	-0.355355	-0.945545	0.417179
C	0.177371	1.276508	-2.176883
H	0.015808	1.222963	-3.256733
H	1.248102	1.393221	-1.974972
H	-0.362714	2.142664	-1.792053
N	0.356732	-1.195689	-2.035864
H	1.275169	-1.288592	-1.602502
H	0.483842	-1.112286	-3.037738
N	-0.505449	1.121149	0.764697
H	0.074242	1.933855	0.60333
H	-1.456047	1.335165	0.486195
Cl	3.468923	0.0	0.0
