16

C	-0.362733	0.033667	-1.501568
C	0.0	0.0	0.0
Br	-0.135966	-1.833493	-2.158001
H	1.094722	0.0	0.0
H	-0.399426	-0.892725	0.485924
C	-1.800426	0.418829	-1.803582
H	-1.971808	1.463303	-1.526088
H	-1.99333	0.316475	-2.871835
H	-2.498043	-0.210554	-1.247886
N	0.532087	0.856702	-2.286191
H	1.491689	0.66273	-1.994305
H	0.340681	1.828469	-2.060574
N	-0.400252	1.191169	0.744396
H	0.229347	1.956042	0.545789
H	-1.351995	1.473896	0.555083
Cl	3.515583	0.0	0.0
