17
Coordinates from ORCA-job run
  C   -0.49719077481255     -0.00452325047101      0.55797849063530
  C   0.88527912319989      0.06573441411769     -0.11609836645918
  H   -0.77598668086299      1.01923803001847      0.83580928066428
  H   1.22847676263171     -0.96655936396121     -0.27250903199080
  N   -0.34241476047473     -0.75404323587457      1.80183275159290
  H   -0.28136998676407     -1.74621610498081      1.59778917894213
  H   -1.15163891069849     -0.61830193346633      2.39583825092032
  C   -1.56000069442051     -0.57040648137389     -0.38328652033958
  H   -2.50122280310973     -0.69431498583297      0.15821744140055
  H   -1.25526888827680     -1.55431981238383     -0.75683466357293
  H   -1.75311063188365      0.07754541099572     -1.24096871285739
  C   1.83710499916990      0.70641939874270      0.79675774080768
  N   2.61031841423241      1.27290758245928      1.47440765651722
  C   0.88711110796335      0.80142605625547     -1.46047263409940
  H   0.31178837920346      0.25076632950002     -2.20550825203653
  H   0.45416884959360      1.79882204217596     -1.34959010248982
  H   1.90595649530921      0.91482590407931     -1.83436250763475
