17
Coordinates from ORCA-job run
  C   -0.55132758377400      0.05335684910507      0.50165510517592
  C   0.89170407718560      0.07364826566323     -0.03484505860336
  H   -0.87035864111396      1.09649187731512      0.61625875362386
  H   1.26298980541266     -0.96070072663308     -0.02170639088670
  N   -0.51483243621568     -0.52839437252597      1.84071680221794
  H   -1.38190686068773     -0.33888407308747      2.32898008812971
  H   -0.42093451192400     -1.53662004161228      1.77308545764912
  C   -1.50504359517045     -0.65472966754071     -0.46022397280425
  H   -1.15074297199202     -1.66975806632285     -0.67170278838364
  H   -2.49488580350434     -0.73357599495697     -0.00366318010521
  H   -1.61806491610155     -0.12589451516034     -1.40905423535554
  C   1.73665362774624      0.84948763628924      0.87847721861805
  N   2.42832594622477      1.51723533280539      1.55198537768157
  C   1.02071460718389      0.63222624250997     -1.45590911149330
  H   0.56460258491601      1.62347933338908     -1.51883214145385
  H   2.07071272551485      0.72479589674190     -1.73816985670515
  H   0.53239394629970     -0.02416397597935     -2.17705206730518
