17
Coordinates from ORCA-job run
  C   -0.34132794573575     -0.19769925822324      0.61830224153154
  C   0.67145310439110      0.56833925661642     -0.25763556896067
  H   0.14451614280236     -0.33211222428276      1.59274831236787
  H   0.78282081141027      1.57868952117381      0.15471814144440
  N   -0.53344490252242     -1.53076211327886      0.05244785706774
  H   -1.01436536293050     -2.12124683652748      0.72054870752839
  H   -1.12327762109080     -1.46751370395727     -0.77178709125017
  C   -1.62939576190535      0.60022028768879      0.81223533326313
  H   -2.13217303183180      0.75501169950184     -0.14696097015994
  H   -1.43576980800524      1.57992649086659      1.25954026102109
  H   -2.31460640487767      0.05786534284764      1.46900203614460
  C   0.11835914338172      0.70925798804441     -1.60814740726208
  N   -0.35104351376271      0.77922305514334     -2.68266881419383
  C   2.03881617931586     -0.11726242261120     -0.30290409607774
  H   1.92832643333783     -1.13448610181068     -0.67530044198581
  H   2.45727092544711     -0.15944632757112      0.70587484323363
  H   2.73284161257602      0.43199534637976     -0.94201334371215
