14
Coordinates from ORCA-job run
  C   -0.47459694971929      0.17410249658804      0.03309538285357
  C   0.84524096202067     -0.15588088953799     -0.19931582985114
  N   -1.17521247187630      1.06053139697139     -0.68569142501030
  H   -2.09560606575075      1.32536863374024     -0.38178979582846
  H   -0.69533250425669      1.61137455828340     -1.38207939937627
  C   -1.23558558913247     -0.57084469581453      1.09330984949072
  H   -1.64633105101342     -1.49125025710353      0.66973631092083
  H   -0.59574564098470     -0.84507657628910      1.93035007330328
  H   -2.06351568039333      0.03460895117574      1.46780694687526
  N   1.66519307445941      0.48512866232737     -1.19834233304175
  O   2.83731342875834      0.13014154937199     -1.28477528467129
  O   1.14501100105574      1.35417349638492     -1.91375144243688
  C   1.50274228787341     -1.14197223428817      0.58410552737425
  N   1.98742519895938     -1.96840509180976      1.26734141939818
