14
Coordinates from ORCA-job run
  C   -0.45227950203812      0.20451063565733      0.07421211988079
  C   0.84980738684688     -0.16648525528158     -0.19247791512992
  N   -1.07091314954124      1.26016297891168     -0.47221531303886
  H   -2.05489378458115      1.39012771319803     -0.31380301375770
  H   -0.60729839006842      1.77292245399711     -1.20708987212974
  C   -1.27206332348660     -0.60298140935352      1.04041037577330
  H   -0.64991894420147     -1.18334548654401      1.71787025925819
  H   -1.91222427365422      0.05670230266287      1.63004362258583
  H   -1.90922229540860     -1.29767368398460      0.48559930672999
  N   1.69345936390519      0.51327256531141     -1.14715182890607
  O   1.22718022215563      1.49103957356546     -1.74995912329330
  O   2.83190832389829      0.08220064653239     -1.30648917063414
  C   1.44379961397848     -1.29095090449986      0.44229045012871
  N   1.88065875219534     -2.23050213017271      0.99976010253292
