14
Coordinates from ORCA-job run
  C   -0.47248061836851      0.17141730054113      0.04835989885360
  C   0.85319271952417     -0.13197854576831     -0.18739264458208
  N   -1.12812712470237      1.19879912804439     -0.50662184539118
  H   -0.61336488404289      1.86378364316734     -1.06448056258301
  H   -2.06170183147121      1.41202585136325     -0.20234274150121
  C   -1.29488319453954     -0.75006191098096      0.90403390763378
  H   -2.07612992094977     -0.19028446313313      1.42296859940006
  H   -1.77356088214404     -1.50337928970326      0.27265306918764
  H   -0.68695205901058     -1.26740478536436      1.64365141806694
  N   1.72489900046394      0.67931141217409     -1.00296302634324
  O   1.24549535545120      1.67859871189039     -1.55881957631718
  O   2.89766313981531      0.32975622651636     -1.10248800116694
  C   1.46683139138430     -1.26711922132660      0.40766550929356
  N   1.91711890858998     -2.22346405742033      0.92477599544925
