14
Coordinates from ORCA-job run
  C   -0.42050047112848      0.22178814620106      0.17181261851261
  C   0.90476378499887      0.02397457160280     -0.14386048096988
  N   -0.78819599862485      1.36405168887436      0.79365150180827
  H   -0.08533252373098      1.99258434949223      1.15367565973414
  H   -1.70283992918700      1.42121732766649      1.20555179358562
  C   -1.53865340703996     -0.71562729654119     -0.17464651529575
  H   -2.47681529137310     -0.35554941509141      0.25088043439414
  H   -1.64396877653320     -0.79812415324401     -1.25594289573573
  H   -1.33252121184016     -1.71837300221675      0.19728278081994
  N   1.41336430584610     -1.12179545653014     -0.86362565147487
  O   0.61388263379478     -1.95215815027742     -1.29729616652883
  O   2.63480930526634     -1.18266184202905     -0.99612786144144
  C   1.87313930462311      0.97486543969378      0.27330988298930
  N   2.54886827492853      1.84680779239926      0.68533489960248
