14
Coordinates from ORCA-job run
  C   -0.47058435309808      0.17234045766244      0.05514197037076
  C   0.86472932916999     -0.10566078283029     -0.15832279844547
  N   -1.12008429469186      1.22404077337790     -0.45802659916193
  H   -2.10999174624855      1.31733778383459     -0.31373254539670
  H   -0.63744459681784      1.84111354409428     -1.09383414876009
  C   -1.29187212058346     -0.76410991157368      0.89591300660661
  H   -0.68516294585772     -1.27809568683565      1.63891073571911
  H   -2.08297186394862     -0.21483467756948      1.41049361502137
  H   -1.75417319188076     -1.52117790390653      0.25636628918503
  N   1.72659310119931      0.70478066238183     -0.98443293135751
  O   1.24127137136009      1.70553698779089     -1.53279003565749
  O   2.89820306607708      0.35534530120604     -1.09750826267200
  C   1.48342266238800     -1.23994442004774      0.43288603122913
  N   1.93706558293243     -2.19467212758461      0.94993567331919
