14
Coordinates from ORCA-job run
  C   -0.39422203282313      0.23971639549445      0.21399438692140
  C   0.90271169191806     -0.08039373093113     -0.11464673461302
  N   -0.62834151131313      1.27973928656455      1.04787505159503
  H   0.12331257871759      1.91171278336511      1.28236307738566
  H   -1.56023615029473      1.65169270859228      1.10552216893977
  C   -1.60963747153730     -0.52261337150902     -0.22289257421114
  H   -1.53311619027022     -1.56954072651542      0.06761840307591
  H   -2.50317459999686     -0.09176926966720      0.23239988971414
  H   -1.70343015143843     -0.51006874774318     -1.30815534154054
  N   1.28189012655617     -1.21029162459620     -0.93566990873695
  O   2.48843629469376     -1.41980865915181     -1.05147736749622
  O   0.39414784558828     -1.87915006676968     -1.46639424212102
  C   1.97275579473922      0.72659538729844      0.35572116891725
  N   2.76890377546071      1.47417963556880      0.79474202216974
