14
Coordinates from ORCA-job run
  C   -0.46831113977445      0.17758111327170      0.06489401940792
  C   0.83226853752684     -0.16381525194969     -0.24579010626597
  N   -1.17734052972837      1.12452968694936     -0.56362304369267
  H   -0.71286046982152      1.71299218843728     -1.23930841278653
  H   -2.07492493361643      1.39126219065069     -0.19887168360742
  C   -1.20708307166634     -0.61878433570310      1.10295172045187
  H   -0.53488858614195     -1.02632998605583      1.85563188580756
  H   -1.95380367028908      0.00406483538910      1.60034509734066
  H   -1.72264103904628     -1.45446241373540      0.62199695859071
  N   1.62568398867938      0.52971650132308     -1.23221971242951
  O   1.09630879281184      1.45525305770661     -1.86498254559747
  O   2.78557618086536      0.15972097509980     -1.39058849772946
  C   1.50446830173664     -1.20895004075195      0.44303699537580
  N   2.00854763846437     -2.08377852063164      1.04752732513450
