14
Coordinates from ORCA-job run
  C   -0.47609678498961      0.13811366831989      0.03366921947894
  C   0.84420878188735     -0.16420759057444     -0.22724258293135
  N   -1.22375872991374      0.98267868622284     -0.69276745591936
  H   -2.12976403326736      1.24924646950043     -0.34794681493129
  H   -0.77393344009853      1.54388573307445     -1.40040653521380
  C   -1.19690944261551     -0.54475744798344      1.16117652851617
  H   -1.55744534782930      0.20444947868996      1.87148117323570
  H   -2.06203317244487     -1.08353687336573      0.76593075760636
  H   -0.56231285984810     -1.24809508251604      1.69436336709956
  N   1.61401038767823      0.46827834288041     -1.27488865397767
  O   2.79017072477541      0.13680624280100     -1.39263497179812
  O   1.04954267684434      1.30410660773595     -1.99509832451571
  C   1.56686426932165     -1.10075410179935      0.56153475694966
  N   2.11645697050003     -1.88621413298593      1.24382953640092
