14
Coordinates from ORCA-job run
  C   -0.48093720128247      0.12585842157874     -0.01316242029755
  C   0.87610455099026     -0.10118654346654     -0.11502489351019
  N   -1.12824473775575      1.14807200996991     -0.59081147534457
  H   -0.59344763016277      1.87376404873251     -1.04347674173592
  H   -2.09542763815884      1.30482783310324     -0.36607378037603
  C   -1.35038370596836     -0.83480592925357      0.74742786916155
  H   -2.14630625175206     -1.20254273811827      0.09504430068002
  H   -0.79172999370205     -1.68526986716570      1.12975335894735
  H   -1.81366627959430     -0.31714962075515      1.59225362321748
  N   1.78310653095501      0.79108524153857     -0.80144072699335
  O   1.31315966364113      1.79810158129526     -1.35014018603079
  O   2.97498831703140      0.49663683684101     -0.80245617881967
  C   1.49439912815650     -1.22548305784462      0.49720172258469
  N   1.95538524760230     -2.17290821645539      1.02090552851697
