14
Coordinates from ORCA-job run
  C   -0.46116773331910      0.19848381114708     -0.06884046932852
  C   0.89171064691374     -0.01399864640232     -0.20599558118256
  N   -1.05297335944238      1.17816141068589     -0.78745709328327
  H   -0.49038602222904      1.83842653980812     -1.30356530675082
  H   -1.98357722775543      1.46755950149751     -0.54299910173592
  C   -1.37868560001183     -0.62277288144517      0.78721815236500
  H   -1.41571047208687     -1.65012188162965      0.42561724502204
  H   -1.01925973038372     -0.66803097744520      1.81383215213328
  H   -2.38589121998996     -0.20227135732230      0.77017679747415
  N   1.62649085532788     -1.06869693589186      0.45606218170277
  O   2.84568717523733     -1.06747369690415      0.29261401386376
  O   1.00509153353472     -1.89240455395991      1.12841837712702
  C   1.65966904353739      0.85348026792606     -1.02736798615113
  N   2.15800211066726      1.64965939993590     -1.73771338125581
