14
Coordinates from ORCA-job run
  C   -0.42941284227806      0.15762859407032      0.21744971760840
  C   0.90735259966850      0.07137296824258     -0.09850774421485
  N   -0.84278426567099      1.10425251129466      1.08911666241855
  H   -0.20910945876488      1.83170732222263      1.38587676032505
  H   -1.82555392213794      1.29740444874379      1.16849234238411
  C   -1.49545884478249     -0.76760967806431     -0.28907911265879
  H   -2.47212986329344     -0.45787966123417      0.08714072588369
  H   -1.51205925377919     -0.78359872427790     -1.37762798637359
  H   -1.29715681354737     -1.78920534773899      0.03322000922441
  N   1.48111354473192     -0.93287587133884     -0.96658146313365
  O   2.68988710625547     -0.84347653436359     -1.17667368057407
  O   0.74521804965398     -1.80142607277890     -1.43655518900093
  C   1.81700676459611      1.02648111448637      0.42823246612209
  N   2.44308719934837      1.88522493073635      0.93549649198960
