14
Coordinates from ORCA-job run
  C   -0.45606971795818      0.21191750778460      0.05897416274430
  C   0.89224766288100      0.08698848180769     -0.18684066589844
  N   -1.02335152992768      1.43784268280383      0.02682507376856
  H   -1.94949361013371      1.55848295586354      0.39697453437427
  H   -0.44468244645677      2.26239720002070     -0.03575802795459
  C   -1.39425441294956     -0.93063143233173      0.31020946875130
  H   -1.03263804512175     -1.56280569061252      1.11939426648822
  H   -2.38802622952406     -0.55334840259859      0.55868014719769
  H   -1.46360845318829     -1.56543342595448     -0.57281617074326
  N   1.60022789992396     -1.17238477063711     -0.24349314229052
  O   2.82227140935964     -1.10432874473903     -0.36656360103690
  O   0.95486229516800     -2.21890027955867     -0.17255957208761
  C   1.68339589821127      1.25103349998214     -0.37665952233191
  N   2.20211927971612      2.29917041816963     -0.51536695098112
