14
Coordinates from ORCA-job run
  C   -0.46271284306826      0.18156250560784      0.07301450197120
  C   0.86264282090096     -0.12092881299031     -0.16557506014595
  N   -1.07878912791192      1.29231425055125     -0.35100360030923
  H   -2.07046797066183      1.38916124621112     -0.22029771943606
  H   -0.58221261131076      1.93080217957740     -0.95398713702757
  C   -1.31472203691529     -0.78218648954305      0.84957126070827
  H   -2.02831853825039     -0.23619948580090      1.47028593726600
  H   -0.71802475497511     -1.42747911929262      1.49066501934641
  H   -1.87356163994700     -1.41685076210631      0.15567639512080
  N   1.74253764487242      0.71427057849514     -0.94819247230360
  O   1.28921956834242      1.77207576095711     -1.40982170243173
  O   2.89565213541613      0.32691151471663     -1.11334005839007
  C   1.45207887712946     -1.31147455805500      0.33874555681917
  N   1.88567847637917     -2.31097880832830      0.78325907881237
