14
Coordinates from ORCA-job run
  C   -0.41612257386830      0.28896569344420      0.00590159923368
  C   0.90579908388526     -0.07703772759118     -0.10820075592434
  N   -0.76527536392186      1.57790398877836     -0.20047485077273
  H   -1.73663616926635      1.80949657281717     -0.31070199388360
  H   -0.09323862941178      2.23305543665790     -0.57166142680742
  C   -1.53152121731947     -0.62913760100320      0.40819723269566
  H   -1.56421326865585     -1.50795075359636     -0.23376978739031
  H   -2.48750344251690     -0.10435867243882      0.35906392422910
  H   -1.37613308137664     -0.99266356091802      1.42367466224145
  N   1.41242069298173     -1.40706430312017      0.14658068108249
  O   0.63785974939037     -2.26500651997086      0.57160691127860
  O   2.60741517548640     -1.58718138334875     -0.08285514382410
  C   1.86673344930290      0.88118014208312     -0.52671801366241
  N   2.54141559529048      1.77879868820661     -0.88164303849608
