14
Coordinates from ORCA-job run
  C   -0.42917907227091      0.21092214127165      0.16454522794091
  C   0.90985638314725      0.04686066583266     -0.10964376423527
  N   -0.82958796929920      1.27193867373562      0.89511216687178
  H   -0.17552267546931      1.99339660229454      1.15673420359735
  H   -1.80694266340159      1.47251997767070      1.00100976759138
  C   -1.51486634174048     -0.73911064993949     -0.24866990961442
  H   -1.62708506243011     -0.74011598485778     -1.33274912451748
  H   -1.27315337314197     -1.76113238931249      0.03517408519951
  H   -2.46030879184370     -0.45069334274858      0.21400596625744
  N   1.46334947005735     -1.08635286308442     -0.81688902583825
  O   2.68821051835125     -1.19298776205232     -0.79967914909051
  O   0.69326354474283     -1.86402226332390     -1.38171536344458
  C   1.85035724189437      0.99198745469271      0.37731589100034
  N   2.51060879140423      1.84778973982109      0.84444902828182
