14
Coordinates from ORCA-job run
  C   -0.41498797649087      0.20130245230083      0.20897470574083
  C   0.89427645511756      0.05404688408259     -0.18875929196809
  N   -0.78191017390233      1.31765697645221      0.87658527679708
  H   -1.75989122274712      1.51999550000856      0.98717738208502
  H   -0.14341187462000      2.09563452705708      0.95329183051832
  C   -1.49332172826846     -0.82341997380883      0.01735566508681
  H   -2.45208972890575     -0.42792955563239      0.35779657859471
  H   -1.26048534772714     -1.72674480657676      0.58089551345808
  H   -1.57024398756725     -1.12035367065089     -1.02712105676579
  N   1.42247159623291     -1.11909728828723     -0.84894758599017
  O   2.59426281394118     -1.05429291480504     -1.21746837001306
  O   0.68831681408929     -2.09651132660402     -0.99806813367203
  C   1.81743871457157      1.11165921627705      0.02568693914120
  N   2.46057564627641      2.06705398018685      0.27160054698710
