14
Coordinates from ORCA-job run
  C   -0.41723491715532      0.25339717721541      0.13492402898577
  C   0.88873183064459      0.00350677534786     -0.22038747328064
  N   -0.80906311624269      1.52702233046611      0.36074429314290
  H   -0.19535589144455      2.29437907809616      0.12973555408882
  H   -1.79104105116105      1.73200785696928      0.41778471184030
  C   -1.46398283646624     -0.79680100931461      0.35988420542883
  H   -2.42895921230768     -0.32846978487096      0.56279739760802
  H   -1.19076576397455     -1.42951271180748      1.20401320499859
  H   -1.55209398107849     -1.45281652655590     -0.50442418376545
  N   1.44390819807339     -1.31593887830590     -0.42414822122524
  O   0.73976915326427     -2.29842203567268     -0.18846045357394
  O   2.60636868324503     -1.36094966688135     -0.82395152245938
  C   1.77900625619675      1.08914874316919     -0.43383993554103
  N   2.39271264840654      2.08444865214487     -0.57367160624753
