14
Coordinates from ORCA-job run
  C   -0.43398410301195      0.25357021543027      0.06099593580887
  C   0.90117969446217      0.00613058887546     -0.16347842515280
  N   -0.88684620570659      1.52585859038592      0.01827343241711
  H   -1.87729213567724      1.69215650116425     -0.00989275884404
  H   -0.28823395268940      2.26865609599990     -0.31100553371533
  C   -1.45436779169449     -0.78684370602501      0.41606035144962
  H   -2.44784720760529     -0.33733459442966      0.46758622338537
  H   -1.45754159831948     -1.59485576112638     -0.31396970679073
  H   -1.21704337483124     -1.23843562244519      1.37917651205490
  N   1.51512442367064     -1.30053474696767     -0.08734971977791
  O   2.70033628855303     -1.36445496620627     -0.41045360351453
  O   0.83491619891640     -2.25376542978589      0.29427318090937
  C   1.76336388434266      1.07463681449364     -0.52576957651861
  N   2.35023587959076      2.05421602063662     -0.81344631171130
