14
Coordinates from ORCA-job run
  C   -0.42239548556187      0.19863279730900      0.19704584098491
  C   0.90091083233615      0.05662723316477     -0.15381643521099
  N   -0.81849857755021      1.31611981432943      0.84546388453492
  H   -1.80071947010695      1.51213018035979      0.92497754706551
  H   -0.18646878103593      2.09687114697427      0.94361550010720
  C   -1.48836340956557     -0.83118672929365     -0.03176031841805
  H   -1.26673067492813     -1.73869527537658      0.52873150128533
  H   -1.53401486270423     -1.11807829209058     -1.08112292427232
  H   -2.45930726203893     -0.44424980401237      0.28316055027253
  N   1.45635200107753     -1.11344994654250     -0.79617156554482
  O   2.63947571181507     -1.04295089490773     -1.12569481366734
  O   0.73200022460039     -2.09402985917501     -0.97096202897736
  C   1.80984069902338      1.12069365289549      0.08758381995066
  N   2.43691905463929      2.08256597636568      0.34894944188982
