14
Coordinates from ORCA-job run
  C   -0.47314778643244      0.17824630725499      0.02906267450059
  C   0.84570200287096     -0.16408242201718     -0.19088110580539
  N   -1.15727923016455      1.07387294206712     -0.69438400601040
  H   -0.66402000253151      1.62288805720240     -1.38283095611018
  H   -2.07762296442826      1.34775101178614     -0.39839055287778
  C   -1.25369101458816     -0.56250010477613      1.07780504252283
  H   -0.62403327721021     -0.85635860920687      1.91586639152941
  H   -2.07153043633927      0.05584787961159      1.45361220964886
  H   -1.68016013488074     -1.47070410862626      0.64365050929572
  N   1.68244272847072      0.47210482998783     -1.17874457808389
  O   2.85169971429054      0.10537545659614     -1.25464722783222
  O   1.17856571012113      1.34895049090476     -1.89638897629880
  C   1.48502773580338     -1.15955668342927      0.59590988937024
  N   1.95604695501843     -1.99283504735526      1.28036068615101
