14
Coordinates from ORCA-job run
  C   -0.41741421129597      0.21099246941201      0.19496814806833
  C   0.86394948074210      0.08291435256932     -0.29085249879825
  N   -0.85716309228040      1.42692557562143      0.58831579571839
  H   -1.84010073836336      1.56175146263730      0.74730293077355
  H   -0.30912700961679      2.25149099273945      0.39175985691863
  C   -1.38080134588404     -0.92171202936658      0.39005237329876
  H   -1.50893927978589     -1.48857794363148     -0.53052619629837
  H   -0.99846005888464     -1.62015463528527      1.13404601927651
  H   -2.34789977330840     -0.53999421464050      0.72265992024735
  N   1.47066875773916     -1.17038644152161     -0.68048302074402
  O   2.59475658857377     -1.09981518578828     -1.17507727533476
  O   0.84440159394919     -2.21471640007391     -0.49672637186291
  C   1.67126424588079      1.23937943296036     -0.45727193636001
  N   2.21486484253447      2.28090256436773     -0.53816774490319
