14
Coordinates from ORCA-job run
  C   -0.47173626476509      0.17763133651198      0.02863208790261
  C   0.85808765041344     -0.14085142374840     -0.16243557765836
  N   -1.14459331175243      1.08922979448647     -0.68252243024883
  H   -0.67835438196622      1.57556850406236     -1.43360578267784
  H   -2.12297834484792      1.23831549378485     -0.50968936554660
  C   -1.26082925730262     -0.56308126997234      1.07129955738438
  H   -0.63311225670382     -0.88072848684217      1.90177131323812
  H   -1.70807069853038     -1.45664416179119      0.62720503226267
  H   -2.06207574259542      0.06858086469153      1.46029753425514
  N   1.69341239800265      0.48502949488562     -1.15810132852978
  O   1.18371785156447      1.34098774178912     -1.89666076516894
  O   2.86811420535077      0.13293533815164     -1.21800163854973
  C   1.50103446546596     -1.12293526817758      0.63794662453183
  N   1.97638368766662     -1.94503795783190      1.33286473880532
