14
Coordinates from ORCA-job run
  C   -0.47299288632826      0.17659480742288      0.02717881144910
  C   0.84914687400221     -0.15931464695617     -0.18296553853596
  N   -1.14800651708336      1.09013582782068     -0.68239441674594
  H   -0.64643286768953      1.65741221117951     -1.34963881826094
  H   -2.07254240161812      1.35545043873980     -0.39175554174487
  C   -1.26886233553245     -0.59117017344772      1.04451118071996
  H   -1.70631765284995     -1.47569806086978      0.57375194586022
  H   -2.07985809873133      0.02443177780263      1.43925480012755
  H   -0.64843008929368     -0.92562734623627      1.87403311478574
  N   1.69910754525804      0.50455037013444     -1.14124137475915
  O   2.87031376860650      0.14231946780972     -1.20862692514619
  O   1.20416582032068      1.39871958874756     -1.84336080608228
  C   1.47968185178252     -1.17357839339017      0.58671730581037
  N   1.94202698915669     -2.02422586875709      1.25553626252241
