16

C	-0.544387	-0.003221	-1.407756
C	0.0	0.0	0.0
F	-0.214876	1.16613	-2.027571
H	1.0898	0.0	0.0
H	-1.625726	-0.132872	-1.459638
N	0.025377	-1.122516	-2.256581
O	-0.214857	-1.033595	-3.457892
O	0.62633	-2.029045	-1.696386
N	-0.50919	-1.19473	0.731704
O	0.006938	-1.446959	1.813052
O	-1.462136	-1.813012	0.245289
C	-0.465475	1.233909	0.761902
H	-0.051585	1.193164	1.769307
H	-1.557835	1.292661	0.814707
H	-0.074992	2.122963	0.268526
Cl	3.287723	0.0	0.0
