16

C	-0.589554	0.010774	-1.386475
C	0.0	0.0	0.0
F	-0.160778	1.126995	-2.051959
H	1.089745	0.0	0.0
H	-1.679042	-0.003467	-1.40017
N	-0.175905	-1.166287	-2.236459
O	-0.830819	-1.302325	-3.271194
O	0.763966	-1.860038	-1.869327
N	-0.483909	-1.21497	0.712788
O	-1.330437	-1.918649	0.147911
O	-0.047309	-1.418171	1.838853
C	-0.456401	1.220147	0.78823
H	-0.101195	2.118537	0.284321
H	-1.546823	1.259734	0.883748
H	-0.003886	1.181873	1.778302
Cl	3.299032	0.0	0.0
