16

C	-0.52726	-0.071443	-1.415109
C	0.0	0.0	0.0
F	-1.879401	-0.254987	-1.41748
H	1.092254	0.0	0.0
H	-0.053305	-0.853032	-2.001759
N	-0.24141	1.229946	-2.117994
O	0.900087	1.360315	-2.544239
O	-1.152231	2.050794	-2.181722
N	-0.390281	-1.314955	0.6189
O	-0.206128	-2.323536	-0.057301
O	-0.832231	-1.314673	1.764569
C	-0.536121	1.170372	0.791968
H	-0.148397	2.096654	0.364831
H	-1.626805	1.200033	0.791496
H	-0.178875	1.103326	1.817455
Cl	3.272796	0.0	0.0
