16

C	-0.401511	-0.000604	-1.457948
C	0.0	0.0	0.0
F	0.061319	-1.112585	-2.075063
H	1.091883	0.0	0.0
H	-0.012473	0.891083	-1.953281
N	-1.902747	0.041799	-1.679274
O	-2.431181	1.123575	-1.4316
O	-2.46331	-0.962144	-2.094402
N	-0.485142	-1.277907	0.618391
O	0.339976	-2.097	1.00472
O	-1.710918	-1.407539	0.700268
C	-0.512422	1.163937	0.825312
H	-1.597718	1.159162	0.911501
H	-0.059612	1.101254	1.816743
H	-0.191134	2.103235	0.371562
Cl	3.314388	0.0	0.0
