16

C	-0.507588	0.012152	-1.431687
C	0.0	0.0	0.0
F	-0.181899	1.188084	-2.0265
H	1.09102	0.0	0.0
H	-1.583614	-0.152408	-1.506536
N	0.130048	-1.109934	-2.216889
O	1.180311	-0.87875	-2.805723
O	-0.48589	-2.178412	-2.170022
N	-0.489958	-1.282718	0.60828
O	-1.711179	-1.386222	0.763926
O	0.335128	-2.137211	0.90992
C	-0.558272	1.168883	0.785741
H	-0.211343	1.102947	1.818577
H	-0.177112	2.096843	0.360414
H	-1.65019	1.171416	0.773384
Cl	3.283376	0.0	0.0
