16

C	-0.528735	-0.048769	-1.414977
C	0.0	0.0	0.0
F	-1.891425	-0.179819	-1.422068
H	1.092049	0.0	0.0
H	-0.083143	-0.848457	-1.99969
N	-0.20152	1.236148	-2.133135
O	0.857229	1.250038	-2.750902
O	-1.011947	2.154866	-2.044997
N	-0.379907	-1.322593	0.613093
O	-0.274478	-2.320631	-0.097666
O	-0.73144	-1.339266	1.789526
C	-0.522001	1.15442	0.825819
H	-0.143434	1.062624	1.841521
H	-0.144317	2.088437	0.40933
H	-1.612404	1.184634	0.846505
Cl	3.246051	0.0	0.0
