16

C	-0.14632	0.098911	-1.514458
C	0.0	0.0	0.0
F	-1.228499	0.855858	-1.913025
H	1.092757	0.0	0.0
H	-0.329298	0.974491	0.379554
N	1.032263	0.579748	-2.157816
H	0.939633	1.584536	-2.237526
H	1.838065	0.37608	-1.522979
N	-0.434396	-1.311535	-2.060222
O	-1.59915	-1.612735	-2.315344
O	0.525858	-2.068472	-2.129172
C	-0.685555	-1.148957	0.71326
H	-0.516529	-1.064669	1.789992
H	-1.766061	-1.175036	0.536911
H	-0.260608	-2.103429	0.395055
F	2.734351	0.0	0.0
