16

C	-0.122997	0.150968	-1.508033
C	0.0	0.0	0.0
F	-1.280183	0.782237	-1.922935
H	1.093293	0.0	0.0
H	-0.453696	-0.924103	0.362011
N	1.002147	0.791261	-2.10753
H	1.825901	0.540442	-1.517329
H	0.849134	1.789765	-2.01623
N	-0.227636	-1.272109	-2.093311
O	0.798907	-1.798691	-2.499605
O	-1.334784	-1.804585	-2.051641
C	-0.515131	1.226303	0.735746
H	-0.010873	2.125228	0.370718
H	-0.279736	1.141302	1.799794
H	-1.594239	1.368297	0.626757
F	2.724417	0.0	0.0
