15

C	-0.481445	0.018032	-1.444698
C	0.0	0.0	0.0
Br	0.006903	-1.763223	-2.160764
H	1.091252	0.0	0.0
H	-0.383707	-0.873664	0.525906
C	-1.98793	0.179266	-1.628584
H	-2.506611	-0.585847	-1.04698
H	-2.283075	1.169631	-1.277865
H	-2.264968	0.074978	-2.679477
C	0.234012	0.986765	-2.277081
N	0.744928	1.728514	-3.032025
N	-0.462079	1.174602	0.737479
O	-0.607459	2.238954	0.124599
O	-0.625775	1.055456	1.952545
F	2.499337	0.0	0.0
