15

C	-0.474782	0.084499	-1.444934
C	0.0	0.0	0.0
Br	-0.006549	-1.67407	-2.228533
H	1.088699	0.0	0.0
H	-0.386599	-0.895787	0.484671
C	-1.976833	0.273841	-1.632339
H	-2.260985	1.253625	-1.245659
H	-2.510999	-0.505556	-1.084574
H	-2.24678	0.214986	-2.688486
C	0.258614	1.07643	-2.232378
N	0.752281	1.888349	-2.923714
N	-0.459504	1.141152	0.789583
O	-0.619864	0.966212	1.998998
O	-0.602236	2.233109	0.225744
F	2.498789	0.0	0.0
