15

C	-0.471564	0.055643	-1.447623
C	0.0	0.0	0.0
Br	-0.015984	-1.723575	-2.191433
H	1.08874	0.0	0.0
H	-0.387607	-0.886738	0.50009
C	-1.972458	0.251608	-1.640478
H	-2.512014	-0.51158	-1.075452
H	-2.242713	0.170329	-2.694871
H	-2.249318	1.242347	-1.276581
C	0.268595	1.026439	-2.255807
N	0.761578	1.826806	-2.960995
N	-0.467704	1.155342	0.763807
O	-0.589769	2.239271	0.181053
O	-0.66101	0.999458	1.971632
F	2.499288	0.0	0.0
