15

C	-0.277961	0.044367	-1.479021
C	0.0	0.0	0.0
Br	-2.221104	0.294508	-1.880632
H	1.093755	0.0	0.0
H	-0.359116	0.905526	0.487499
C	0.515486	1.233563	-2.023394
H	1.542978	1.071385	-1.674109
H	0.126859	2.159314	-1.593836
H	0.457568	1.283805	-3.110874
C	0.132979	-1.155094	-2.208651
N	0.486772	-2.02626	-2.913729
N	-0.566465	-1.132469	0.729308
O	-0.775214	-2.187812	0.128599
O	-0.766349	-0.969056	1.934322
F	2.545057	0.0	0.0
