15

C	-0.345826	0.373873	-1.429002
C	0.0	0.0	0.0
Br	-2.284011	0.839767	-1.649535
H	1.108101	0.0	0.0
H	-0.413633	-0.966506	0.279331
C	0.52219	1.495231	-1.987288
H	0.261879	2.432196	-1.502513
H	0.393798	1.581526	-3.068829
H	1.54942	1.224581	-1.71307
C	-0.177499	-0.837585	-2.234108
N	-0.052509	-1.797828	-2.900246
N	-0.475389	0.957065	0.998467
O	-0.932199	0.497465	2.048014
O	-0.355581	2.161003	0.76791
F	2.541105	0.0	0.0
