15

C	-0.530197	-0.361848	-1.380535
C	0.0	0.0	0.0
Br	0.514607	-1.809914	-2.231231
H	1.107383	0.0	0.0
H	-0.351836	0.998398	0.270755
C	-2.004213	-0.75906	-1.427342
H	-2.327311	-0.921326	-2.456959
H	-2.149702	-1.675302	-0.857171
H	-2.602624	0.043909	-0.985644
C	-0.327975	0.814257	-2.228805
N	-0.239095	1.776882	-2.898118
N	-0.484448	-0.893388	1.048448
O	-0.800887	-0.387182	2.130789
O	-0.496912	-2.109689	0.830942
F	2.495233	0.0	0.0
