15

C	-0.466658	0.350824	-1.407251
C	0.0	0.0	0.0
Br	-0.03798	-1.251413	-2.49297
H	1.092777	0.0	0.0
H	-0.393616	-0.965446	0.314503
C	-1.962698	0.607559	-1.558203
H	-2.225025	1.509764	-1.003529
H	-2.517851	-0.244145	-1.158908
H	-2.228437	0.744427	-2.60795
C	0.294006	1.4491	-2.007422
N	0.809765	2.338541	-2.575451
N	-0.454801	0.985339	0.977725
O	-0.550252	2.167481	0.624387
O	-0.65731	0.593799	2.12978
F	2.49634	0.0	0.0
