15

C	-0.473929	0.059894	-1.445637
C	0.0	0.0	0.0
Br	0.00294	-1.707698	-2.204364
H	1.105705	0.0	0.0
H	-0.381107	-0.889715	0.499907
C	-1.97711	0.238655	-1.637353
H	-2.506387	-0.537322	-1.080134
H	-2.26593	1.221625	-1.262666
H	-2.246212	0.164898	-2.692722
C	0.254527	1.044894	-2.24737
N	0.745635	1.829486	-2.971081
N	-0.459412	1.151482	0.769216
O	-0.610566	2.232544	0.185029
O	-0.611566	1.00089	1.983967
F	2.4927	0.0	0.0
