17

C	-0.396032	0.049378	-1.464052
C	0.0	0.0	0.0
Br	0.325602	-1.59787	-2.452028
H	1.09594	0.0	0.0
C	-1.838411	0.012489	-1.716566
N	-2.990156	0.070722	-1.947565
N	0.19217	1.226417	-1.998839
H	1.182655	1.212072	-1.744612
H	0.10123	1.242385	-3.006997
N	-0.493792	-1.18262	0.710082
O	-0.132333	-1.298103	1.886138
O	-1.20873	-2.004553	0.120441
C	-0.393242	1.245127	0.780464
H	0.022652	1.146414	1.783455
H	-1.478562	1.376889	0.840933
H	0.050097	2.118755	0.306555
H	2.589469	0.0	0.0
