17

C	-0.514636	0.011643	-1.443624
C	0.0	0.0	0.0
Br	0.035332	1.731896	-2.277863
H	1.090249	0.0	0.0
C	0.137201	-1.011374	-2.27454
N	0.611717	-1.79173	-3.013936
N	-1.951329	-0.088854	-1.640469
H	-2.393305	0.628921	-1.075279
H	-2.212736	-0.998096	-1.267346
N	-0.400842	-1.21912	0.638147
O	-0.218154	-1.321175	1.867656
O	-0.781831	-2.184288	-0.072982
C	-0.344915	1.194865	0.86607
H	-1.424338	1.331469	0.998735
H	0.108169	1.028029	1.841927
H	0.092073	2.097112	0.441262
H	2.416792	0.0	0.0
