17

C	-0.502332	-0.083492	-1.446511
C	0.0	0.0	0.0
Br	-0.008658	1.611462	-2.365277
H	1.090392	0.0	0.0
C	0.195078	-1.122411	-2.219061
N	0.679396	-1.934737	-2.916578
N	-1.931043	-0.250717	-1.650233
H	-2.409432	0.471106	-1.121291
H	-2.15851	-1.153592	-1.2417
N	-0.388377	-1.185547	0.705844
O	-0.72781	-2.202325	0.046163
O	-0.227621	-1.210979	1.942381
C	-0.362354	1.243466	0.785403
H	0.13229	2.11081	0.349044
H	0.017778	1.109552	1.796243
H	-1.443821	1.419288	0.835318
H	2.415714	0.0	0.0
