17

C	-0.288929	0.084053	-1.498987
C	0.0	0.0	0.0
Br	-0.028421	-1.801561	-2.321456
H	1.092231	0.0	0.0
C	-1.660993	0.417678	-1.884989
N	-2.739976	0.744465	-2.219868
N	0.638028	1.01235	-1.995013
H	1.577865	0.803993	-1.61254
H	0.638277	1.071189	-3.004384
N	-0.589534	-1.19592	0.640363
O	0.101988	-1.817524	1.442911
O	-1.768278	-1.448882	0.376325
C	-0.497704	1.221031	0.753375
H	-1.589115	1.290951	0.741567
H	-0.064218	2.111804	0.299307
H	-0.144264	1.156146	1.786034
H	2.764243	0.0	0.0
