17

C	-0.489437	0.041164	-1.436207
C	0.0	0.0	0.0
Br	0.389978	1.721924	-2.297983
H	1.093091	0.0	0.0
C	0.004015	-1.012143	-2.328896
N	0.332926	-1.760563	-3.173961
N	-1.897496	0.124776	-1.532419
H	-2.247135	0.887815	-0.967116
H	-2.200309	0.241392	-2.492509
N	-0.360475	-1.260422	0.618277
O	-0.506303	-1.27429	1.852219
O	-0.358753	-2.286496	-0.08043
C	-0.440077	1.162465	0.867358
H	0.211127	1.192338	1.740875
H	-1.47031	1.059801	1.220139
H	-0.31929	2.099365	0.327382
H	2.464265	0.0	0.0
