17

C	-0.273138	0.042474	-1.502791
C	0.0	0.0	0.0
Br	0.1237	-1.816082	-2.309593
H	1.094198	0.0	0.0
C	-1.655671	0.301876	-1.90939
N	-2.747943	0.588347	-2.237776
N	0.613264	1.016245	-2.002689
H	1.554949	0.837356	-1.613246
H	0.630117	1.038345	-3.013853
N	-0.586398	-1.160864	0.692273
O	-0.034491	-1.517246	1.733204
O	-1.623803	-1.654006	0.239894
C	-0.479017	1.251651	0.716675
H	-1.570574	1.337328	0.703281
H	-0.037881	2.123045	0.234451
H	-0.125606	1.208934	1.749424
H	2.717323	0.0	0.0
