17

C	-0.2968	0.023621	-1.499407
C	0.0	0.0	0.0
Br	-2.22667	-0.448731	-1.8441
H	1.095073	0.0	0.0
C	-0.174515	1.399286	-1.998649
N	-0.063225	2.496303	-2.405387
N	0.53229	-0.822097	-2.323849
H	1.488631	-0.554084	-2.061442
H	0.421251	-1.75915	-1.94729
N	-0.380982	-1.274458	0.59998
O	-0.881936	-1.275627	1.733657
O	-0.101812	-2.315648	-0.015256
C	-0.51143	1.167406	0.806981
H	-0.153988	1.071132	1.83179
H	-0.105621	2.092413	0.39546
H	-1.603322	1.217038	0.819755
H	2.54375	0.0	0.0
