17

C	-0.253603	0.020014	-1.507973
C	0.0	0.0	0.0
Br	-2.170588	-0.449491	-1.927373
H	1.096728	0.0	0.0
C	-0.11057	1.396217	-2.002252
N	0.007558	2.496861	-2.39799
N	0.609021	-0.822748	-2.299115
H	1.55447	-0.579635	-1.967798
H	0.454981	-1.76748	-1.960556
N	-0.380376	-1.273803	0.601593
O	-0.198804	-2.314208	-0.04901
O	-0.77357	-1.275702	1.775502
C	-0.521202	1.169277	0.796885
H	-0.132141	2.096167	0.37367
H	-1.614154	1.203607	0.811846
H	-0.158694	1.089258	1.821081
H	2.543217	0.0	0.0
