16

C	-0.00665	0.005582	0.013099
C	-0.432703	0.089727	-1.461005
F	1.401338	-0.062741	-0.006421
H	-0.159781	1.0473	-1.899993
H	-1.511774	-0.086455	-1.513319
C	-0.413091	1.279484	0.718693
H	0.073001	2.140484	0.254585
H	-1.498575	1.386264	0.670735
H	-0.098018	1.203464	1.760497
N	-0.485613	-1.128999	0.737116
H	-0.331089	-1.959602	0.176189
H	-1.497749	-1.018421	0.81916
N	0.265222	-0.930048	-2.283001
O	0.104436	-2.115943	-1.991587
O	0.97282	-0.535947	-3.210536
Cl	-3.651198	-0.146707	-0.124416
