16

C	-0.018847	0.018558	0.008374
C	-0.460595	0.0198	-1.460271
F	1.382165	-0.112361	-0.014587
H	-0.219837	-0.943097	-1.908278
H	-1.533549	0.219096	-1.503192
C	-0.373357	1.281444	0.754822
H	-1.458628	1.398901	0.757889
H	-0.014079	1.172103	1.779035
H	0.087019	2.151717	0.289445
N	-0.547385	-1.117315	0.702292
H	-0.366037	-1.954934	0.158146
H	-1.565284	-1.008054	0.741754
N	0.26293	1.029407	-2.275079
O	1.157045	0.628348	-3.022343
O	-0.060613	2.211076	-2.14721
Cl	-3.675059	-0.382447	-0.094647
