16

C	0.014331	0.004936	0.0255
C	-0.398073	0.0043	-1.454904
F	1.421572	-0.083224	0.022921
H	-0.110577	0.93041	-1.948682
H	-1.47861	-0.163098	-1.506549
C	-0.378545	1.3256	0.647904
H	0.129583	2.14817	0.139779
H	-1.461059	1.449833	0.578493
H	-0.078756	1.307171	1.696794
N	-0.486284	-1.076374	0.813163
H	-0.34229	-1.941288	0.303648
H	-1.496809	-0.945121	0.883072
N	0.29507	-1.071373	-2.206587
O	1.015311	-0.742805	-3.149735
O	0.11745	-2.235346	-1.844925
Cl	-3.629235	-0.112571	-0.138134
