16

C	-0.022226	0.012891	0.007497
C	-0.472915	0.03648	-1.458218
F	1.377682	-0.127484	-0.025912
H	-0.240954	-0.921857	-1.920426
H	-1.544831	0.243032	-1.491867
C	-0.363265	1.268274	0.772657
H	-1.447518	1.394447	0.782006
H	0.102148	2.141085	0.317163
H	-0.000545	1.141994	1.7937
N	-0.554656	-1.128255	0.689646
H	-1.571319	-1.011381	0.738245
H	-0.384316	-1.959665	0.132577
N	0.251944	1.05228	-2.264115
O	-0.06282	2.234201	-2.118029
O	1.13834	0.655529	-3.022793
Cl	-3.682118	-0.362401	-0.076417
