12
Coordinates from ORCA-job run
  C   1.30993310616286      0.29480272455477      0.17568560403151
  C   -0.02056942117850     -0.07034790454737     -0.47989224858267
  Cl  1.08743912895513      1.26318146531965      1.65171293271350
  H   0.23474858744252     -0.65335886533976     -1.37453546549941
  H   1.92858293983164      0.87737067095829     -0.50663880178704
  H   1.83687916836962     -0.61836397921247      0.45571068372147
  C   -0.71961064027285      1.13251291786622     -0.94120529644632
  N   -1.29029339612362      2.08944126770877     -1.31018488246064
  C   -0.92569962211550     -0.91790087034127      0.41705292451068
  H   -1.23596975553017     -0.35556595005972      1.29718345710827
  H   -0.38957899315814     -1.81193844510874      0.74442143912065
  H   -1.81786110238300     -1.22883303179837     -0.12831034642998
