12
Coordinates from ORCA-job run
  C   1.18786149365374      0.32451345797979      0.45475976061799
  C   0.00152418846042     -0.01785637413817     -0.44096700481044
  Cl  2.37927756806474      1.33242431978449     -0.39892592943440
  H   0.39026393844546     -0.46255747698158     -1.36308560186530
  H   1.69043136561002     -0.59389841814832      0.75975602142088
  H   0.85837058045889      0.87183544458202      1.33851654148429
  C   -0.73231854504874      1.19486136291872     -0.81141233482207
  N   -1.35026810557357      2.15561664134697     -1.08108097172605
  C   -0.93217774096382     -1.01401871309181      0.25612096144367
  H   -1.78020490297266     -1.25803871524825     -0.38515261671580
  H   -0.39427498509914     -1.93723378498865      0.48255572603785
  H   -1.31848485503533     -0.59564774401521      1.18791544836937
