14

C	0.0	0.0	0.0
C	-0.276715	-0.082343	-1.555884
F	1.360226	0.0	0.0
H	-0.026812	0.930258	-1.891744
H	-0.417818	-0.795518	0.604478
N	-0.436614	1.289104	0.622468
O	-0.569089	1.269067	1.842161
O	-0.5062	2.288407	-0.085703
N	-1.540019	-0.475885	-2.133351
H	-2.234816	-0.164477	-1.388431
H	-1.587156	-1.48746	-2.089486
C	0.753155	-0.981179	-2.117295
N	1.497131	-1.762458	-2.582339
F	-2.61067	0.0	0.0
