14

C	0.0	0.0	0.0
C	-0.519079	0.342734	-1.403434
F	1.351958	0.0	0.0
H	-1.248357	1.144629	-1.285292
H	-0.396404	-0.941219	0.3576
N	-0.376476	1.043548	1.011617
O	-0.379187	2.214642	0.641916
O	-0.511368	0.66288	2.169452
N	-1.135321	-0.875318	-1.942155
H	-1.970363	-0.871658	-1.318756
H	-1.449977	-0.66858	-2.885467
C	0.565859	0.812028	-2.279633
N	1.372472	1.201895	-3.038974
F	-2.542121	0.0	0.0
