14

C	0.0	0.0	0.0
C	-0.383726	-0.164601	-1.512645
F	1.356349	0.0	0.0
H	0.569178	-0.007321	-2.034738
H	-0.405038	-0.751641	0.663525
N	-0.364653	1.327359	0.587437
O	-0.623966	1.362074	1.78391
O	-0.219348	2.315993	-0.133411
N	-1.396418	0.643708	-2.156071
H	-1.064374	1.599428	-2.124958
H	-2.170226	0.553564	-1.46337
C	-0.714508	-1.588707	-1.689188
N	-0.898982	-2.736073	-1.853672
F	-2.440796	0.0	0.0
