14

C	0.0	0.0	0.0
C	-0.485222	-0.05684	-1.455549
F	1.362622	0.0	0.0
H	-0.661051	-1.127778	-1.636498
H	-0.386744	-0.7975	0.619072
N	-0.356299	1.275815	0.706848
O	-0.43339	2.301487	0.0415
O	-0.411415	1.212624	1.933486
N	0.523593	0.50168	-2.367086
H	1.092953	-0.239616	-2.751947
H	0.022636	0.951203	-3.121575
C	-1.785479	0.604825	-1.712682
N	-2.469181	1.184182	-2.488782
F	-2.395515	0.0	0.0
