14

C	0.0	0.0	0.0
C	-0.597425	0.157906	-1.36786
F	1.360708	0.0	0.0
H	-1.713699	0.259368	-1.015028
H	-0.388608	-0.905541	0.450829
N	-0.380868	1.117345	0.93437
O	-0.346451	0.845335	2.132221
O	-0.596861	2.228566	0.462994
N	-0.437099	-1.120915	-2.070009
H	-1.241465	-1.264852	-2.666211
H	0.393623	-1.111096	-2.650705
C	-0.051937	1.271071	-2.132956
N	0.399721	2.065825	-2.874064
F	-2.684413	0.0	0.0
