14

C	0.0	0.0	0.0
C	-0.485685	0.180892	-1.443685
F	1.365791	0.0	0.0
H	-0.628874	-0.848441	-1.80797
H	-0.384252	-0.887633	0.483563
N	-0.354768	1.146822	0.902132
O	-0.413573	0.889236	2.103125
O	-0.42188	2.265531	0.40769
N	0.507871	0.911851	-2.243283
H	1.073771	0.262606	-2.772741
H	-0.007633	1.49379	-2.890227
C	-1.804116	0.846827	-1.582477
N	-2.486976	1.539532	-2.261245
F	-2.40132	0.0	0.0
