14

C	0.0	0.0	0.0
C	-0.428303	0.167286	-1.481093
F	1.348821	0.0	0.0
H	0.515298	0.326015	-2.019534
H	-0.398571	-0.89208	0.466589
N	-0.351915	1.128506	0.931626
O	-0.71145	0.816507	2.062417
O	-0.093223	2.267859	0.5557
N	-1.327121	1.265481	-1.783328
H	-1.583493	1.182514	-2.761831
H	-2.13827	1.00845	-1.17855
C	-0.929239	-1.155314	-1.928068
N	-1.246359	-2.181359	-2.404822
F	-2.483046	0.0	0.0
