14

C	0.0	0.0	0.0
C	-0.433723	0.036385	-1.487664
F	1.355223	0.0	0.0
H	0.507823	0.131724	-2.043908
H	-0.393892	-0.84864	0.543601
N	-0.345003	1.206518	0.828822
O	-0.079341	2.306218	0.353183
O	-0.703407	0.997977	1.983575
N	-1.317833	1.119287	-1.88031
H	-1.576488	0.958674	-2.848332
H	-2.130486	0.91975	-1.258284
C	-0.966016	-1.308371	-1.814928
N	-1.311847	-2.362147	-2.203654
F	-2.477614	0.0	0.0
