14

C	0.0	0.0	0.0
C	-0.38592	0.384309	-1.469971
F	1.363502	0.0	0.0
H	0.570313	0.691776	-1.914309
H	-0.396461	-0.942816	0.350514
N	-0.36279	1.022921	1.029176
O	-0.230614	2.206672	0.716069
O	-0.610906	0.618486	2.158012
N	-1.383006	1.386129	-1.780017
H	-2.162293	1.058443	-1.17203
H	-1.048512	2.262523	-1.401382
C	-0.749576	-0.879663	-2.133316
N	-0.952412	-1.891532	-2.691729
F	-2.427607	0.0	0.0
