14

C	0.0	0.0	0.0
C	-0.511157	0.302456	-1.422732
F	1.357332	0.0	0.0
H	-1.27478	1.068732	-1.314157
H	-0.398498	-0.926178	0.395436
N	-0.373754	1.068678	0.98613
O	-0.447568	2.223323	0.575116
O	-0.441759	0.721018	2.161009
N	-1.190004	-0.826936	-2.051245
H	-0.632022	-1.665825	-1.932088
H	-2.003217	-0.864649	-1.410756
C	0.57547	0.816258	-2.276591
N	1.420543	1.230625	-2.977907
F	-2.510525	0.0	0.0
