16
Coordinates from ORCA-job run
  C   0.76070817731506     -0.53449677468310      0.19285586209315
  C   -0.47568057219525      0.26978068245561     -0.26339343550824
  Cl  0.41096705753143     -1.47834523519538      1.66735362008328
  H   -0.08743987483273      0.92305616951610     -1.06599027398454
  C   1.10228395185798     -1.50254806092177     -0.86781749544872
  N   1.39084215699608     -2.19221663415564     -1.77532529497112
  N   1.84366553157594      0.37499403421847      0.49979254727575
  H   2.64423023956961     -0.14123989830507      0.84681724920948
  H   2.12180487733896      0.86413362769838     -0.34510449715941
  C   -1.01811401889734      1.14678678943356      0.85212149025643
  H   -1.71500065564241      1.87915738726478      0.43586833699948
  H   -1.55166733815168      0.53231391052915      1.57856551456759
  H   -0.21065628471335      1.67589023031417      1.35631840869884
  N   -1.49860258431314     -0.65043732454273     -0.72536676270989
  H   -1.31264235413692     -0.97082194862875     -1.66778820913600
  H   -2.40369830930226     -0.19900695499776     -0.71790706026608
