16
Coordinates from ORCA-job run
  C   0.83166330377240     -0.41685511913462      0.17976831715091
  C   -0.52223681985594      0.10696753796687     -0.33070796982942
  Cl  0.63528092769414     -1.13715928647958      1.81549791386507
  H   -0.30437846665103      0.49358145949995     -1.33621359496714
  C   1.29809138258800     -1.50142706461861     -0.70517897522458
  N   1.77258953541175     -2.28035232550211     -1.44649283417512
  N   1.78070035533217      0.66665015964380      0.29749998342845
  H   1.95033172964260      1.05714922816963     -0.62468604682377
  H   2.66238270525500      0.31737990654001      0.65701107307987
  C   -1.06790455266519      1.24375592821083      0.52690005495373
  H   -0.34733353677106      2.05469956784259      0.63373650350765
  H   -1.97792439487459      1.63337104065978      0.06354091652796
  H   -1.32286477758949      0.87922400982532      1.52418901282144
  N   -1.40889746722226     -1.03208385219970     -0.50314206620551
  H   -2.16021002986439     -0.79862089680826     -1.13915335325456
  H   -1.82128989420210     -1.28828029361590      0.38643106514501
