16
Coordinates from ORCA-job run
  C   0.70653978523827     -0.61595887519217      0.13818654280747
  C   -0.37406775570354      0.36741466935097     -0.34430853084737
  Cl  -0.05946753661594     -2.00395177421996      0.98770710920668
  H   0.18636285689222      1.15193265177757     -0.87200342113512
  C   1.41201108569849     -1.17569891135578     -1.03047622675002
  N   2.08628958757228     -1.55473227276548     -1.91541225640622
  N   1.59234281242572      0.02921156337622      1.07993447552682
  H   2.29045925619691     -0.62967920723901      1.40709067371134
  H   2.07393672738956      0.79050698784615      0.61076242339322
  C   -1.14237906726130      1.00112496824593      0.81041229348066
  H   -1.73296255671736      0.24632302162188      1.33381666079273
  H   -0.47579084058340      1.47349611041436      1.53212198023163
  H   -1.82756934985414      1.75356437743535      0.41167410293996
  N   -1.18502575126413     -0.31020886214766     -1.34265485749562
  H   -1.88090589059259     -0.89030215501323     -0.88836417870019
  H   -1.67077336282104      0.36595770786485     -1.91748679075595
