16
Coordinates from ORCA-job run
  C   0.81775433407346     -0.55070003405182     -0.23610164132137
  C   -0.62980372988689     -0.02481298825643     -0.33713889237601
  Cl  0.77091822433963     -2.31222773892975     -0.86743908392621
  H   -0.95742199933564     -0.20798225485199     -1.36870190698726
  C   1.70414308259679      0.14597378409347     -1.17003762968473
  N   2.39357985200439      0.73204885571115     -1.91896376410859
  N   1.28245340956944     -0.44111195934150      1.08306431723066
  H   2.19372949003898     -0.85493372176499      1.22368358349907
  H   0.58490725079206     -0.82376887907663      1.71216363409987
  C   -0.68427071489216      1.46692466193786     -0.04187305531392
  H   -1.70646490745346      1.82925266564870     -0.18276567048102
  H   -0.03571028739566      2.03056033596555     -0.71395753801791
  H   -0.37614789713737      1.65906608236990      0.98624742622480
  N   -1.41468586414742     -0.75166538241718      0.65493551704557
  H   -2.25492179965350     -0.23422824801597      0.87796228006049
  H   -1.68605844351265     -1.65939517902038      0.29792242405658
