16
Coordinates from ORCA-job run
  C   0.73890874723585     -0.69433271234592     -0.20219487199222
  C   -0.66671889711433     -0.11469856554973     -0.44823672180274
  Cl  0.78943820664082     -2.41036196530096     -0.69378173068730
  H   -0.87967000823694     -0.25903200149005     -1.51324938985275
  C   1.72471656085687      0.01107878800418     -1.04337277774074
  N   2.51209280035407      0.62295538024442     -1.66593557084401
  N   1.05479586167109     -0.62574351918135      1.21547893374536
  H   1.31793887777344      0.32417237678740      1.45676433518691
  H   1.84489070309903     -1.22681659538792      1.42004874579300
  C   -0.69241545539746      1.38450356234657     -0.13191124495902
  H   -0.54140872711746      1.55651095467078      0.93735214117861
  H   -1.67779660163333      1.78253039925027     -0.38585809762113
  H   0.05017296345760      1.95387871232254     -0.69707795801269
  N   -1.61768527722885     -0.90805244604503      0.30760689298846
  H   -2.55520963270606     -0.56143509888714      0.14849869210380
  H   -1.40305012165436     -0.83415726943807      1.29486862251647
