16
Coordinates from ORCA-job run
  C   0.80188304399312     -0.47787655690928     -0.18780314201472
  C   -0.66450896767535     -0.01821738495762     -0.11698292593692
  Cl  1.24634963902560     -0.72729576062246     -1.95738586800633
  H   -1.24625307200180     -0.84067377092613     -0.57105769443558
  C   1.70096405094155      0.56064543260021      0.32178933867394
  N   2.44213488799149      1.38716463091692      0.70374496293359
  N   0.96579360970037     -1.67328137725178      0.57238874722819
  H   1.93989062922995     -1.94266444339310      0.63774974434601
  H   0.44618580780778     -2.42853019563143      0.13874776117305
  C   -0.93547306321250      1.26597467780213     -0.88184563265753
  H   -1.98803954928422      1.53827295342689     -0.76658095503900
  H   -0.73103501051374      1.16014370210544     -1.94595976185508
  H   -0.33011174913573      2.07733533762375     -0.47242273489305
  N   -0.93992437261236      0.20779600945066      1.29174458340949
  H   -1.88161934946689      0.55764663250891      1.41370841676949
  H   -0.82623653478726     -0.64643988674311      1.82116516030444
