16
Coordinates from ORCA-job run
  C   0.90804862013556     -0.46988405464662      0.10342995538756
  C   -0.48564660162273      0.12113138992818     -0.23760232360443
  Cl  0.84490281841604     -1.33103038091231      1.66971323435600
  H   -0.29308529575242      0.71414854415687     -1.15068673512084
  C   1.23984298381295     -1.44871029728475     -0.94378526576655
  N   1.45087542733430     -2.17619533255899     -1.84143748296518
  N   1.99333098980215      0.48452603457483      0.17831007655611
  H   1.84835768038235      1.11583719640514      0.95642390600874
  H   2.04885366356464      1.01643014022673     -0.68371570575918
  C   -1.00590304111186      1.05747175168788      0.84010186963225
  H   -0.27364302249772      1.81871077741160      1.11275231291578
  H   -1.89355544235775      1.57788084198334      0.47107255140356
  H   -1.28103794958463      0.48984915603671      1.72929229710206
  N   -1.43486388230388     -0.95678803337586     -0.44350866381629
  H   -2.38167012601873     -0.60060059714999     -0.42606791940029
  H   -1.28680682219826     -1.41177713648276     -1.33629210692928
