16
Coordinates from ORCA-job run
  C   0.79521866833150     -0.53549402482782      0.07012623401306
  C   -0.47988886127023      0.25177953707921     -0.31359059813642
  Cl  0.48203028227849     -1.52585627641791      1.57793531280975
  H   -0.15505582027483      0.83598912387102     -1.18852591311494
  C   1.07864824890150     -1.50471299565446     -0.99503796347283
  N   1.30946275122576     -2.24531338047898     -1.87681285468301
  N   1.91284540959826      0.33990944949072      0.20120051015576
  H   1.78870573489368      0.95248280079216      0.99750266358620
  H   2.77022573152702     -0.18332218757757      0.33115824217286
  C   -0.92252457639187      1.21429384306658      0.77645467541067
  H   -0.13733641485827      1.92135353023761      1.04897583124189
  H   -1.24223231668239      0.66548624864091      1.66277000090086
  H   -1.76638117547949      1.80512206481192      0.41056956899454
  N   -1.54837904337490     -0.68671450715361     -0.60465729862158
  H   -2.44510571592601     -0.22046420100387     -0.56871461959382
  H   -1.44023290249822     -1.08553902487589     -1.52935379166297
