16
Coordinates from ORCA-job run
  C   0.77909538883029     -0.60824331892624     -0.22607341904243
  C   -0.63215585661199      0.00756759626833     -0.33315953581652
  Cl  0.61497048645979     -2.37775567546957     -0.81329031007829
  H   -0.97748079057221     -0.17909313360925     -1.35829035978257
  C   1.70267127842754      0.00664343259919     -1.18113261008406
  N   2.42417911312971      0.52899508265751     -1.94689436046788
  N   1.25818753597175     -0.49659377734655      1.08803696415456
  H   0.54064606600429     -0.81782062878077      1.72905809267617
  H   2.14066349057614     -0.96694163519856      1.23470723631403
  C   -0.58831918727349      1.50640931066431     -0.07462025607639
  H   -1.58605522760605      1.93055059786644     -0.21818828382358
  H   -0.26053138140995      1.70340986337663      0.94642834735339
  H   0.08990791286155      2.01034108178345     -0.76455797177133
  N   -1.45607026883375     -0.64286510164902      0.68018928789430
  H   -1.78741637551886     -1.53950324981118      0.34645379997985
  H   -2.26029218443473     -0.06710044442473      0.89333337857075
