16
Coordinates from ORCA-job run
  C   0.75512150287037     -0.49846062642137     -0.21284802741598
  C   -0.72361229570010     -0.02975730781882     -0.16333934069523
  Cl  1.29298789451276     -0.59554415414076     -1.96874451548100
  H   -1.28717533055788     -0.81315555624803     -0.68881847564801
  C   1.61557750587223      0.49352482908277      0.43614345093350
  N   2.26222123323961      1.31148872006134      0.97709365298374
  N   0.88381186647287     -1.75103587753686      0.45522855956434
  H   0.34473438926065     -2.45831579041438     -0.03250107799576
  H   1.84960167819096     -2.05245436839349      0.50507772399556
  C   -0.95672325006558      1.30319847114664     -0.85368527282152
  H   -2.00775885795793      1.56974225958374     -0.73474029218044
  H   -0.35172704901423      2.08788127430216     -0.38898259970131
  H   -0.71829001227478      1.26748492286339     -1.91495302638976
  N   -1.20957326891765      0.04905461779757      1.20013392707644
  H   -0.90787329408867     -0.76014598697717      1.72887694975087
  H   -0.84232271184262      0.87749457311328      1.65505836402455
