16
Coordinates from ORCA-job run
  C   0.84602113014562     -0.58303664576058     -0.04849841709865
  C   -0.42340915513511      0.26617189527372     -0.29595185200818
  Cl  0.38010934661366     -2.04154997291135      0.90665474085867
  H   -0.07341538181240      1.08355823773173     -0.94070810805777
  C   1.36180383442238     -1.03725651070351     -1.34711929692787
  N   1.80060891650647     -1.32056414812393     -2.39853356682861
  N   1.92674657011762      0.05869878514684      0.65990089383945
  H   2.28732955705441      0.83669506145897      0.11893731924544
  H   1.61669109640861      0.38337332240312      1.56684200634155
  C   -0.99583556689389      0.86958845822885      0.98456353686999
  H   -0.29038781521512      1.53091771290737      1.49334535238689
  H   -1.30719115093024      0.08684332372746      1.67958201203819
  H   -1.87515918942884      1.46585538619437      0.73068335906818
  N   -1.35875003668495     -0.52025098903384     -1.08165286546530
  H   -1.86906115288629     -1.16078260187949     -0.48531711554441
  H   -2.02710100228194      0.08273868534028     -1.54372799871757
