16
Coordinates from ORCA-job run
  C   0.83976253191709     -0.53277302996921     -0.19616029276432
  C   -0.61791024479967     -0.05132371307968     -0.35574498162004
  Cl  0.86287184540299     -2.30950211867775     -0.78302818341702
  H   -0.90735167188437     -0.26979052136339     -1.39182622337987
  C   1.73591454342868      0.16615974026113     -1.11914936652490
  N   2.43264813293234      0.75394036738135     -1.85998337325588
  N   1.25910411674854     -0.37705127482658      1.13391387677221
  H   0.55270396687020     -0.76430103032154      1.75030805752761
  H   2.17579020330040     -0.76303799715535      1.31310171478420
  C   -0.72350644482505      1.44499860687739     -0.10083229156821
  H   -0.07166563252422      2.01014878063416     -0.76847129679502
  H   -0.45130418243737      1.67168342321935      0.93037349544797
  H   -1.75094683818291      1.77393984260518     -0.28025421638599
  N   -1.41341950338252     -0.77593443719435      0.62987635916648
  H   -1.64763275978984     -1.69943610337519      0.28713767482343
  H   -2.27505806277430     -0.27772053501553      0.81173904718934
