16
Coordinates from ORCA-job run
  C   0.87065391208000     -0.53536571340359     -0.34981720176493
  C   -0.59608369974101     -0.09869620798771     -0.10280199668106
  Cl  1.13504725223506     -0.75527152273450     -2.10838625544451
  H   -1.20433721866102     -0.92857838778515     -0.48155454398533
  C   1.75493721371560      0.54104354925914      0.12297925571052
  N   2.38674351156598      1.43483127640593      0.54912381774962
  N   1.24318147503907     -1.76569550256392      0.31087014290613
  H   0.79128919919364     -2.53879679488507     -0.16627186252776
  H   0.86460862389864     -1.70576187531351      1.25309210662208
  C   -0.98950844616524      1.19750252817778     -0.79976271580476
  H   -2.02949360708825      1.43332134939819     -0.56119508300529
  H   -0.36597767454222      2.02410742090174     -0.44696264815547
  H   -0.89311077732915      1.13284315630825     -1.88371175217917
  N   -0.75240632411329     -0.05961185118374      1.35185717156032
  H   -0.49962976531231      0.85720812557309      1.70513504293596
  H   -1.71591367477549     -0.23207955016694      1.60840652206366
