16
Coordinates from ORCA-job run
  C   0.85906944372854     -0.43439135042142      0.04934206308007
  C   -0.52348776329999      0.08526001053267     -0.38245811828405
  Cl  0.68037679681619     -1.22446708401899      1.71755164711869
  H   -0.36337087462445      0.41713234042148     -1.41462399821922
  C   1.28621893707091     -1.51253777789061     -0.84712666036017
  N   1.65927792547957     -2.37815026719734     -1.54710705565381
  N   1.83270467312022      0.59838452430598      0.03879277519169
  H   2.76295839098539      0.23231537412191      0.19967441172570
  H   1.62854034075200      1.29729725954848      0.74152096848966
  C   -0.98664683745385      1.28052801967322      0.44805500302973
  H   -1.98281249767699      1.57697916310796      0.11224102858175
  H   -0.33376385951439      2.14867370558298      0.32900644033548
  H   -1.05089277320674      1.02008374427977      1.50712937426373
  N   -1.44316211816586     -1.03778154395021     -0.42843036072393
  H   -1.79190823005520     -1.25183421906046      0.49817438705259
  H   -2.23210155395535     -0.81649189903542     -1.02174190562791
