16
Coordinates from ORCA-job run
  C   0.67391701107452     -0.66645560044693     -0.18212604330547
  C   -0.71158952792968     -0.00713110919410     -0.43208615425148
  Cl  0.58431392791480     -2.40518247425004     -0.61608601379324
  H   -0.92704772823303     -0.14234545490563     -1.49716613709450
  C   1.69195476833898     -0.07075908492248     -1.06413455785962
  N   2.49881442949652      0.46541914964422     -1.73078025359643
  N   1.00870341878352     -0.58757378361477      1.22507826136477
  H   1.81857172683640     -1.16462789185528      1.42309599882305
  H   1.24435717946588      0.37097307432199      1.46070123006540
  C   -0.65368860399322      1.48363505422146     -0.11556283934490
  H   -0.55145296251137      1.64715089081764      0.96106106586350
  H   -1.59849885105597      1.93481220553361     -0.41895123409920
  H   0.16075815370778      1.99321304274774     -0.63520073657427
  N   -1.78324821861437     -0.61418414840187      0.32625722297995
  H   -1.49934108897217     -0.67856421392460      1.29813837508238
  H   -1.95652363430860     -1.55637965577097     -0.00123818425991
