16
Coordinates from ORCA-job run
  C   0.82322644535504     -0.53834539872992     -0.24291827871954
  C   -0.63182994462911     -0.03235688422644     -0.33405433721506
  Cl  0.79807560872706     -2.29817370259622     -0.88025080151351
  H   -0.96284734546401     -0.21591285213110     -1.36446148883518
  C   1.69574952860677      0.17372126863168     -1.17834245873504
  N   2.37450499541535      0.77236332445171     -1.92708074000294
  N   1.29386309357255     -0.42709798883893      1.07457504687314
  H   2.21117668925555     -0.82992918528195      1.20780965691904
  H   0.60536638383650     -0.82275474220357      1.70566346816174
  C   -0.70507303757063      1.45742772614110     -0.03277674518130
  H   -1.73293305158561      1.80636716519191     -0.16569496885154
  H   -0.06867376981956      2.03224765480482     -0.70697914337093
  H   -0.39284760550052      1.64993918996505      0.99396164349833
  N   -1.40114068194559     -0.77371223513646      0.65947670565473
  H   -2.24817247023602     -0.26948919366207      0.88744319714498
  H   -1.66044483801779     -1.68429414637960      0.30062924417308
