16
Coordinates from ORCA-job run
  C   0.65757626692861     -0.66924372299271     -0.22797748062857
  C   -0.72487185222716      0.01814814097224     -0.40889819047402
  Cl  0.52744457463862     -2.39033823130066     -0.71797874192383
  H   -0.97645567262471     -0.07454408589795     -1.47061283130917
  C   1.65529082297581     -0.05821786859663     -1.12260597335051
  N   2.44847182188667      0.48873484923254     -1.79689344297929
  N   1.03920812325732     -0.64373603904407      1.16911373920926
  H   1.29420775478024      0.30311576206071      1.43033408323907
  H   1.84745497748945     -1.23697899457752      1.32047632739944
  C   -0.63388891429081      1.49521704332226     -0.03976268835156
  H   -0.50532867993618      1.61633279533309      1.03962420288962
  H   0.17785716336747      2.01007872804357     -0.55847886667204
  H   -1.57674314885672      1.97371956978065     -0.30505272722098
  N   -1.78135583071103     -0.60083192541122      0.36097684289818
  H   -1.97979833201748     -1.52778755050252      0.00541217619933
  H   -1.46806907466011     -0.70466847042179      1.32032357107507
