16
Coordinates from ORCA-job run
  C   0.76752329324874     -0.55707084582604     -0.34416199664785
  C   -0.68333349949102     -0.01593844135537     -0.17393474612171
  Cl  1.08413028058644     -0.78489729994627     -2.10531469549868
  H   -1.32207186451259     -0.77215563808619     -0.64907519388042
  C   1.71137736683598      0.43684095444983      0.17922238010904
  N   2.39942953791026      1.26182951143591      0.65462333856631
  N   1.03859837523033     -1.82036718181918      0.29559312650832
  H   1.10772014789472     -1.71864086203804      1.29971603486269
  H   0.32655596419011     -2.50060283785693      0.05527312294660
  C   -0.90821872672445      1.33043000941590     -0.84451596404909
  H   -0.69594057832576      1.29881044170531     -1.91177830950689
  H   -0.27322035279884      2.09656911197046     -0.38946550447493
  H   -1.94857258673517      1.62200167569995     -0.69653278686055
  N   -1.07718177535706      0.09029640211959      1.21750675795456
  H   -0.97372001673337     -0.78240783180246      1.71690416420076
  H   -0.55407556521835      0.81530283193354      1.69494027189186
