16
Coordinates from ORCA-job run
  C   0.74119640199002     -0.51189479704150      0.06920697410894
  C   -0.50430203898096      0.29493342191683     -0.39615454224620
  Cl  0.27230662431655     -1.49874101170890      1.56721449824872
  H   -0.16279871618215      0.77634298271087     -1.31993393648806
  C   1.07023602591975     -1.50805125631127     -0.95475140626134
  N   1.34106578175357     -2.27773635226974     -1.79972959469395
  N   1.86215955137021      0.32612408656959      0.28584874051596
  H   1.69043385357515      0.97468073038371      1.04289340267452
  H   2.70007221744845     -0.20578207732634      0.48618963477421
  C   -0.89231626545573      1.37695356522182      0.60137844808194
  H   -1.14501705275143      0.94751951355559      1.57328858605807
  H   -1.77375661556843      1.88826106539021      0.21418070871802
  H   -0.10405324913327      2.12042532818174      0.73376969670782
  N   -1.66126190182291     -0.50774822114351     -0.72337370389429
  H   -1.45736070670534     -1.16524696150545     -1.46642002963345
  H   -1.97760390977348     -1.02704001662363      0.08639252332907
