16
Coordinates from ORCA-job run
  C   0.75491678136549     -0.55043993936537     -0.23263483931110
  C   -0.68645032953293      0.00447384204556     -0.41205356424684
  Cl  0.73583004585584     -2.28757671963123     -0.89140334260577
  H   -0.94821431853203     -0.17798890192697     -1.45867913435185
  C   1.70458862407114      0.16704501683035     -1.08344114319227
  N   2.44652915441263      0.76559602091636     -1.77010844786779
  N   1.17013174629616     -0.48369609047291      1.11820452196527
  H   0.55271814266083     -1.03352251097973      1.70205313335404
  H   2.12217016938736     -0.80392177542076      1.24223571489811
  C   -0.72013225015366      1.50075601326241     -0.13451745123559
  H   -0.06381673474366      2.05172791420444     -0.80917074563059
  H   -1.74225926426355      1.85562756392609     -0.27340530131392
  H   -0.40746297052976      1.70779053709296      0.89105781343996
  N   -1.67312090404062     -0.65777533534719      0.41173700645186
  H   -1.64913497731852     -1.66429370980931      0.31549646527892
  H   -1.59629291493473     -0.39180192532470      1.38462931436758
