16
Coordinates from ORCA-job run
  C   0.78671576441355     -0.55799864908744      0.08709125072003
  C   -0.47046344255734      0.27436465760176     -0.31638629030752
  Cl  0.34055889464694     -1.68471208696852      1.41897659711082
  H   -0.10528688015710      0.91689446950919     -1.12998762497258
  C   1.17136225511028     -1.37273734152015     -1.07455502641559
  N   1.43698093872592     -1.96019802799024     -2.05653448007567
  N   1.94713740218635      0.18396448730109      0.52093754844749
  H   2.25885590586959      0.80327601313747     -0.21978583804825
  H   1.72408430177430      0.72909751199436      1.34444652431621
  C   -0.96762669273669      1.16424489439062      0.81328712205158
  H   -0.19562393880298      1.84128358468180      1.18274470618955
  H   -1.79370901320979      1.76445943015086      0.43160276823593
  H   -1.33742532910638      0.56789875052811      1.64979465251232
  N   -1.57539474908452     -0.49705815763488     -0.84487492951714
  H   -1.29925359163656     -1.02730594498442     -1.66275806145022
  H   -1.91991182543557     -1.14447359110961     -0.14599891879696
