16
Coordinates from ORCA-job run
  C   0.87968095514572     -0.54021865487751     -0.31700477870077
  C   -0.59372585111037     -0.10685257888939     -0.10846687376712
  Cl  1.17371332333283     -0.81994456675458     -2.06199764088324
  H   -1.18986510683778     -0.95365800841909     -0.46845040954879
  C   1.74910455937282      0.55853156042244      0.13159558690993
  N   2.36906863779125      1.47080005638962      0.53554309395966
  N   1.25035569498691     -1.74380097093914      0.39313382013163
  H   0.81795872871334     -2.53753296808517     -0.06799477938106
  H   0.84946185478597     -1.65614675548070      1.32393298648119
  C   -0.98464946865320      1.16184975525719     -0.85577465734892
  H   -0.37019128011936      2.00406739578770     -0.52427381703420
  H   -0.87334110706053      1.05968625398695     -1.93548224165775
  H   -2.02897827861936      1.40037383820185     -0.63993868366806
  N   -0.77404347590037     -0.01956797770416      1.34157752318967
  H   -0.53341727559248      0.91103164770014      1.66665479594694
  H   -1.74113191023537     -0.18861802659616      1.58694607537088
