16
Coordinates from ORCA-job run
  C   0.80118092685217     -0.48474614293140     -0.17544869998935
  C   -0.66337133447848     -0.01596104505100     -0.12469537711790
  Cl  1.26317717998267     -0.75316906566952     -1.93800366371660
  H   -1.24507148576737     -0.83819322494094     -0.57914620580710
  C   1.70059720600044      0.55284355876202      0.33431282391713
  N   2.43858025465121      1.38202704702644      0.71714308957462
  N   0.94993248315253     -1.67407558446232      0.59702263296386
  H   1.92174267581774     -1.94709073788904      0.67823549613830
  H   0.43212628776606     -2.43127337469875      0.16453359689630
  C   -0.91751233651796      1.26452648599974     -0.90171884747807
  H   -0.32038193268755      2.07714675564619     -0.48241489623525
  H   -1.97237046229428      1.53749033750879     -0.81041888970597
  H   -0.69031031400019      1.15378873859049     -1.96081277047608
  N   -0.95296691939874      0.22253156635727      1.27899252460715
  H   -1.89140935999954      0.58494708280180      1.38798504496492
  H   -0.85494286907871     -0.62879239704977      1.81643414146404
