16
Coordinates from ORCA-job run
  C   0.85543930264514     -0.50393051289220     -0.32153591687894
  C   -0.63743002682426     -0.12424850786518     -0.22750629567418
  Cl  1.37599834937044     -0.52627983329337     -2.04237015697053
  H   -1.15317085432750     -0.92143469474181     -0.77245012790922
  C   1.65609052985264      0.53448038080913      0.35641007727914
  N   2.25664350209942      1.33681391406033      0.97155144747747
  N   1.02772667797864     -1.81877653654513      0.22264860594113
  H   0.55843174669622     -1.83146766311002      1.12322475322495
  H   2.00840228441228     -2.04759318721172      0.32985469339033
  C   -0.96387556993711      1.23344552940153     -0.83480051165599
  H   -0.71717153612769      1.28434190509132     -1.89533883482932
  H   -2.03336095187525      1.42635339267313     -0.72272446150646
  H   -0.42014389642320      2.02817893225024     -0.31527054255532
  N   -0.99762936866944     -0.24171166021380      1.18749297043961
  H   -1.97948565995178     -0.46807077703439      1.27998553419746
  H   -0.83846452891856      0.64089931862194      1.66182876602988
