16
Coordinates from ORCA-job run
  C   0.79512253146452     -0.42431612632152      0.09674424340612
  C   -0.56563402958991      0.15204555431241     -0.38975852118439
  Cl  0.57885420045730     -1.05238394040890      1.82770989115498
  H   -0.36783856172647      0.41789145162220     -1.43468255445518
  C   1.11547850791649     -1.61141927803499     -0.70175012463833
  N   1.33104553809368     -2.54750513045632     -1.37766264945173
  N   1.84176837407221      0.52209224005382     -0.02265484845855
  H   2.74497688871728      0.11833835688589      0.19290097233852
  H   1.68157999004775      1.32001380650760      0.57850325973397
  C   -0.95622592645014      1.41305821213966      0.36761761234113
  H   -0.23691970686204      2.22155555535571      0.22444243098805
  H   -1.91924895125783      1.74899555311067     -0.01692772586368
  H   -1.06443308225137      1.21590966174627      1.43638077275233
  N   -1.66399749166294     -0.78746712085532     -0.37777386605162
  H   -1.84262382369832     -1.11779555189800      0.56263559666822
  H   -1.47190445727021     -1.58801324375918     -0.96772448927984
