16
Coordinates from ORCA-job run
  C   0.75858217884461     -0.51199854886733     -0.16289005909471
  C   -0.71749926712965     -0.03308546256523     -0.18816258377682
  Cl  1.35838067154449     -0.68885989862328     -1.89305774889490
  H   -1.26704996168702     -0.83504177990032     -0.70035976405560
  C   1.60240530379963      0.50304674523521      0.47192818294968
  N   2.23482371958361      1.34186784412004      0.99758387081548
  N   0.85433401979137     -1.73464745255827      0.56291087779666
  H   1.81539193568871     -2.03909493683458      0.66121559807372
  H   0.32774317111932     -2.45956498646237      0.08760577616696
  C   -0.91519632420167      1.27050591955571     -0.94265950093034
  H   -0.32055656979891      2.07035352140654     -0.49083401974673
  H   -0.63980781309974      1.18763951595377     -1.99224001684577
  H   -1.96749013322209      1.54886930923688     -0.87263320558699
  N   -1.25252149418537      0.10682074282280      1.15192133253200
  H   -0.89697333693502      0.95229893140901      1.58395310040767
  H   -0.97556610011227     -0.68010946392858      1.72571816018970
