16
Coordinates from ORCA-job run
  C   0.88613516156507     -0.55816521755883     -0.26407895631237
  C   -0.58909750706241     -0.10089327239595     -0.13528210520619
  Cl  1.26096493415436     -0.87198633948426     -1.98777745994972
  H   -1.17961039643890     -0.94653694572660     -0.50709053304352
  C   1.74829398312626      0.53615199993527      0.20871217269133
  N   2.36039433530801      1.44653406467299      0.62836264282636
  N   1.20459211289931     -1.75427629702686      0.48295887296178
  H   0.76789696906442     -1.64118229216695      1.39484993308480
  H   0.77467871985391     -2.54812918727491      0.01943122616400
  C   -0.92583894230552      1.15751176728528     -0.92530610796494
  H   -1.97335840048175      1.41909850060723     -0.75741532482281
  H   -0.77317209151640      1.02889901918845     -1.99695895343566
  H   -0.30995476563710      1.99610764572170     -0.58774773208594
  N   -0.83702202488974      0.01766370377589      1.30250103211277
  H   -0.59856928088838      0.95107952210994      1.62060552880841
  H   -1.81733280675114     -0.13287667166238      1.50423576417170
