16
Coordinates from ORCA-job run
  C   0.76024698346837     -0.54428464750635     -0.23128847677067
  C   -0.68036849331885      0.00905709350956     -0.42260449342583
  Cl  0.75842298146937     -2.26733975634435     -0.92494556483656
  H   -0.92627858684268     -0.15707734756154     -1.47580323583680
  C   1.72089745790682      0.19379028891994     -1.05116739359875
  N   2.47220289183722      0.81026393165794     -1.71148001563825
  N   1.15339745860336     -0.50281596940756      1.12706034352831
  H   2.10454434444282     -0.82190556666471      1.26045821526165
  H   0.52845992988046     -1.06517076575030      1.69040475236543
  C   -0.72324092411306      1.50049557931710     -0.12113015184250
  H   -0.06047069046360      2.06474784259708     -0.77851195225928
  H   -0.42431023625317      1.69201444156259      0.91168803486484
  H   -1.74494630900631      1.85388428890945     -0.26730369547673
  N   -1.67655914138693     -0.66999871098567      0.37572350759306
  H   -1.61576998030222     -0.41888239936900      1.35375445121338
  H   -1.64722768592162     -1.67477830288416      0.26414567485870
