16
Coordinates from ORCA-job run
  C   0.78437941429436     -0.60188176063368     -0.22367279196234
  C   -0.62867811420058      0.00790079746197     -0.33974056901639
  Cl  0.63558653369798     -2.36631781741625     -0.83017842643247
  H   -0.96182778703106     -0.16993830778701     -1.37046307436397
  C   1.71484220495444      0.02710828333718     -1.16284185884413
  N   2.44152563770577      0.56021754902670     -1.91611381147733
  N   1.24908189364632     -0.50110709065353      1.09634117087095
  H   2.13249469206179     -0.96842174331172      1.24763585068679
  H   0.52694520601610     -0.83236964000637      1.72690224483279
  C   -0.59530924698155      1.50421107880153     -0.06552058821812
  H   -1.59424495562824      1.92421858379437     -0.21313726358761
  H   0.08578106322318      2.01890829122266     -0.74474806966694
  H   -0.27697028866731      1.69253085434143      0.96020898039458
  N   -1.46009623059917     -0.65694648496706      0.65796649399033
  H   -1.78246416658447     -1.55221776907515      0.31189481508819
  H   -2.27004585590757     -0.08789482413507      0.86746689770569
