16
Coordinates from ORCA-job run
  C   0.85770984030332     -0.56244924393087      0.07067039691563
  C   -0.46965971058911      0.18375251679342     -0.22952791667793
  Cl  0.69944465024769     -1.52026562606465      1.57263898453102
  H   -0.21342472244586      0.81582717138596     -1.09974922851531
  C   1.10064680346474     -1.49325950829599     -1.04254731229847
  N   1.24669833729837     -2.17266999208730     -1.98944099582562
  N   2.02965584418289      0.27472499587028      0.21344699200722
  H   2.13932221240590      0.86217052913156     -0.60631303852510
  H   1.94230858609594      0.85703029366261      1.03705605401152
  C   -0.90381536857329      1.08989865081317      0.91023369959569
  H   -1.23987410507705      0.49161614064456      1.75745445103345
  H   -0.10272789358991      1.75459584772612      1.23637160100831
  H   -1.73358216661381      1.71931605560956      0.57816392992360
  N   -1.51765616221653     -0.77970915458330     -0.50990685589364
  H   -1.40847306553106     -1.18426215879349     -1.43214760041070
  H   -2.42557307936224     -0.33531651788163     -0.46740316087966
