16
Coordinates from ORCA-job run
  C   0.66578530282812     -0.66219265889327     -0.22102278208525
  C   -0.71965389951489      0.01362336229516     -0.42013603473684
  Cl  0.55844493004492     -2.38212751315893     -0.72161510225392
  H   -0.95480581049135     -0.07700117231846     -1.48577431005144
  C   1.67241179069666     -0.03813018867174     -1.09632775331092
  N   2.48034355022475      0.51438162324269     -1.74823163336563
  N   1.02597234016497     -0.64056116773559      1.18180372504318
  H   1.27024840830380      0.30693888429188      1.45100548894486
  H   1.83647290044183     -1.22829287686266      1.34238964224397
  C   -0.64686855771286      1.49026421278395     -0.04528087703538
  H   -0.52890687915745      1.61005593227867      1.03539168341940
  H   -1.59196577601131      1.96009837554368     -0.31770678634902
  H   0.16419482768735      2.01453141562160     -0.55547192401651
  N   -1.78224170677669     -0.61688244672066      0.33182943178259
  H   -1.96460358313857     -1.54585506000535     -0.02707353520874
  H   -1.48382783758930     -0.71785072169097      1.29622076697967
