16
Coordinates from ORCA-job run
  C   0.79289215884857     -0.54620589127691      0.10634267214072
  C   -0.49669398205797      0.22590942465608     -0.31425250269884
  Cl  0.47160175258970     -1.43399518659812      1.63882216912791
  H   -0.20608446308562      0.72431681701473     -1.24978713532457
  C   1.07211158326664     -1.54505833627081     -0.93592789017006
  N   1.24816159721480     -2.28897982287530     -1.82803914143774
  N   1.98675995570213      0.24154526468387      0.30680420782090
  H   1.84264020522670      0.90715396984086      1.05612315514261
  H   2.22031459901224      0.73930309805818     -0.54618629653433
  C   -0.89363258451107      1.29155557528275      0.69658087602111
  H   -1.19833593317441      0.84025719158474      1.64293181671247
  H   -1.74386866486196      1.84134767753196      0.29270507767280
  H   -0.08906219990740      2.00205800256516      0.89322617727146
  N   -1.64254724632535     -0.60651941977851     -0.61203659506154
  H   -1.92258616189177     -1.12941046751283      0.20885310239797
  H   -1.44067061604523     -1.26327789690585     -1.35615969308087
