16
Coordinates from ORCA-job run
  C   0.69834393799369     -0.57351759284278     -0.29385941994302
  C   -0.74398553174006     -0.00963327187874     -0.23435721988553
  Cl  1.13720619567323     -0.91854043879016     -1.99586112005568
  H   -1.34362426981385     -0.75278966860491     -0.77024791556193
  C   1.65050044891335      0.42580686707843      0.22328259350194
  N   2.36749540451126      1.20927044316280      0.72843139222706
  N   0.76061150467540     -1.83311759464183      0.42538795141408
  H   0.75068295183493     -1.64432404810222      1.42173550469328
  H   1.63252479555526     -2.30569162221106      0.21342277702555
  C   -0.86871064799345      1.34904146134646     -0.90429345020978
  H   -0.51671528438608      1.33156108860974     -1.93566587423501
  H   -0.29731703823233      2.10518762984430     -0.35800678554747
  H   -1.91797213735770      1.64507975234030     -0.89227149772267
  N   -1.25865754879529      0.07628062517479      1.11712590042560
  H   -1.31934968769706     -0.82809050421871      1.56352605712041
  H   -0.73003309314132      0.72247687373358      1.69065110675318
