16

C	-0.118952	-0.066325	-1.549441
C	0.0	0.0	0.0
Cl	-1.735111	-0.719919	-2.0725
H	1.092267	0.0	0.0
C	0.004118	1.250575	-2.188706
N	0.07986	2.2819	-2.746446
N	0.930678	-0.92331	-2.06995
H	0.709248	-1.869844	-1.774869
H	1.776381	-0.640916	-1.526135
N	-0.431937	-1.151203	0.709289
H	0.33411	-1.802358	0.790994
H	-1.268677	-1.582497	0.343565
N	-0.66602	1.218528	0.529002
O	-1.811227	1.097528	0.969591
O	-0.048505	2.281768	0.456983
F	2.611205	0.0	0.0
