16

C	-0.130805	-0.05583	-1.529575
C	0.0	0.0	0.0
Cl	-1.778789	-0.592506	-2.077179
H	1.093794	0.0	0.0
C	0.143752	1.236874	-2.170883
N	0.419316	2.230855	-2.732317
N	0.854278	-0.998188	-2.043258
H	0.593808	-1.913851	-1.688566
H	1.726627	-0.734563	-1.542103
N	-0.436157	-1.165058	0.698269
H	0.353214	-1.759191	0.900879
H	-1.178184	-1.66552	0.228807
N	-0.604377	1.210729	0.626503
O	-0.326672	1.413809	1.804037
O	-1.350032	1.92421	-0.052924
F	2.590223	0.0	0.0
