16

C	-0.161469	0.04654	-1.549372
C	0.0	0.0	0.0
Cl	-0.107085	-1.726492	-2.164237
H	1.09077	0.0	0.0
C	-1.470169	0.514147	-2.026695
N	-2.516657	0.909867	-2.388367
N	0.899275	0.826737	-2.023553
H	1.760864	0.608444	-1.477692
H	1.018993	0.766814	-3.02428
N	-0.628958	-1.06817	0.673279
H	-0.106441	-1.278507	1.512044
H	-1.583538	-0.834112	0.912722
N	-0.473128	1.356344	0.509941
O	-1.599696	1.399514	1.02191
O	0.273676	2.322218	0.400989
F	2.625666	0.0	0.0
