16

C	-0.59906	0.114799	-1.420204
C	0.0	0.0	0.0
Cl	-0.268105	1.734268	-2.124057
H	1.092896	0.0	0.0
C	0.09515	-0.883522	-2.246932
N	0.596758	-1.688385	-2.939626
N	-2.026329	-0.134593	-1.534732
H	-2.502316	0.507901	-0.908638
H	-2.17271	-1.07287	-1.173369
N	-0.441016	-1.267143	0.526431
H	-1.24843	-1.158199	1.125391
H	0.332425	-1.654467	1.050889
N	-0.535393	1.143511	0.811202
O	0.145852	2.154604	0.929473
O	-1.671372	1.012811	1.303846
F	2.533769	0.0	0.0
