16
Coordinates from ORCA-job run
  C   -0.63568920492928      0.08339292068276     -0.14731545711683
  C   0.81462621604931     -0.22120904676386     -0.51123176888262
  Br  -1.24929829544920      1.68135336099897     -1.06528412314278
  H   1.04154559663703     -1.20364764864162     -0.08514860723778
  H   0.85730122638778     -0.31613332921740     -1.59994543378499
  C   -1.58353075491930     -1.05935003464660     -0.46112600543783
  H   -1.57595608903744     -1.24542643772381     -1.53585136351915
  H   -2.60237690848068     -0.81252750501793     -0.15785264960391
  H   -1.25801255829396     -1.95697218886745      0.06546428062280
  N   -0.65839662651752      0.32085815893262      1.36403232909455
  O   -0.39998030686531     -0.68722452895090      2.01917610312408
  O   -0.86383818258859      1.43648933548537      1.81793739774369
  C   1.82801524948055      0.80436574489068     -0.01840425869844
  H   1.59698555824870      1.80495712577595     -0.38595497740767
  H   1.86184944903027      0.83664238184666      1.07271026004164
  H   2.82575563124762      0.53443169121656     -0.37020572579476
