16
Coordinates from ORCA-job run
  C   -0.63867728166454      0.21434553458881      0.06179040968605
  C   0.83417840603239      0.52110391110686      0.29837877903549
  Br  -1.37450929030149      1.39862196416989     -1.31010638272225
  H   0.92820998895587      1.58388333714527      0.52438128678644
  H   1.11984175662482     -0.02381439188098      1.20765275024551
  C   -0.93403481959841     -1.21924224095335     -0.30850496363578
  H   -2.00582471784043     -1.39110114216123     -0.38008076138480
  H   -0.52318499808360     -1.88719262425627      0.45288779334292
  H   -0.47552251421727     -1.44555064698866     -1.27062896132362
  N   -1.38162656102259      0.58588070051284      1.34950533754764
  O   -1.12004469567549      1.67722152287452      1.84106139786383
  O   -2.16869925807998     -0.23660563051709      1.80873221922004
  C   1.75112262872027      0.12587715589758     -0.85251406497665
  H   2.77030703301519      0.45061230157613     -0.63340907818287
  H   1.77624512178020     -0.95452392890703     -1.00340899534377
  H   1.44321920135506      0.60048417779272     -1.78573676615818
