18
Coordinates from ORCA-job run
  C   -0.59979379051765      0.02532458902550     -0.26392359799888
  C   0.90543342415110      0.11935823418926      0.07229897962888
  Cl  -0.80986397762430     -1.09152639025120     -1.66384000428669
  H   0.97763373379789      0.84649436999361      0.89318137310555
  C   -1.14237973642816      1.38598751112882     -0.67558771374717
  H   -2.20275792529788      1.30730318859770     -0.92182227644282
  H   -1.02945406518959      2.09424503168577      0.15148262357950
  H   -0.61540205104652      1.77604484002957     -1.54738722913005
  C   -1.38645348690850     -0.54152555993640      0.90868051042245
  H   -1.22112660821406      0.07268530554760      1.79978228482935
  H   -2.45271183782988     -0.53161933937129      0.67588009423029
  H   -1.10148848913654     -1.56994789999233      1.12910435076236
  C   1.65160258595038      0.68793126414767     -1.05412485812617
  N   2.27019445706039      1.13675194932399     -1.94546270158904
  C   1.56139705538402     -1.18865238196545      0.52527176319596
  H   1.44479925762238     -1.96080187259279     -0.23559551148931
  H   1.12156772551196     -1.53854008724756      1.45969861645494
  H   2.62780372871497     -1.02851275231247      0.69336329660084
