18
Coordinates from ORCA-job run
  C   -0.57174046902608      0.50910611838795      0.20141608735369
  C   0.94188874613430      0.25079830151818      0.37658920267754
  Cl  -0.87374978805117      2.17296181457794      0.83815202651204
  H   1.18269408746792      0.47444106522620      1.42243195460661
  C   -1.39069262927208     -0.45572658582181      1.04573485947751
  H   -1.04189310957213     -0.46616564491162      2.08117346654131
  H   -2.43849665366119     -0.15100968626524      1.04193211453042
  H   -1.33072515433749     -1.46758635038826      0.63844876726551
  C   -1.01072568681956      0.48649530591362     -1.25356851074761
  H   -0.84730730613951     -0.50495027390340     -1.68441052896432
  H   -0.46364301791066      1.22326447757645     -1.84348212770003
  H   -2.07591287537730      0.71516827660127     -1.32115877596662
  C   1.72133520169594      1.17489370292470     -0.45242485518408
  N   2.36116342057320      1.87357731132001     -1.14622999205258
  C   1.37002954675396     -1.19047764817666      0.06878338641960
  H   0.89833188825972     -1.89135097920708      0.75791804806885
  H   1.11888072784687     -1.47240093240905     -0.95495331606410
  H   2.45156307143525     -1.28203827296320      0.18364819322624
