18
Coordinates from ORCA-job run
  C   -0.56162764081997      0.41802553107599      0.18704618046444
  C   0.96425622609157      0.22584405375347      0.01033387786272
  Cl  -0.79100188496848      1.31872060091361      1.73675322498870
  H   1.41320074382622      1.22565541744849      0.04451814303542
  C   -1.30661255740480     -0.90187853580617      0.29090238406159
  H   -1.13339617912315     -1.49726801119103     -0.61060163636473
  H   -2.37822713055324     -0.71512453190372      0.38173057780198
  H   -0.99002395008248     -1.47610452508197      1.16182972419025
  C   -1.12738287211920      1.28865471914119     -0.92516162769125
  H   -1.05851331265031      0.76797553104891     -1.88354419114444
  H   -0.58198298045260      2.23252687297725     -0.99706462556843
  H   -2.17652660457864      1.51401669613115     -0.72585128241455
  C   1.22146254812470     -0.32696029015151     -1.32310042180607
  N   1.41702225629793     -0.79912802870564     -2.38069560313679
  C   1.64050121955352     -0.65704637435698      1.06459899886938
  H   2.72266689436174     -0.63283928743088      0.92406942488139
  H   1.31472470591839     -1.69424915319297      0.97959532998652
  H   1.41346051857878     -0.29082068466918      2.06564152198387
