18
Coordinates from ORCA-job run
  C   -0.58455375100049      0.49882499943144      0.18925971109310
  C   0.93238577289592      0.27558673457771      0.38267859448146
  Cl  -0.92826850898171      2.16451528737329      0.79975885137799
  H   1.15720895173237      0.51575580473990      1.42845260460312
  C   -1.39129416625903     -0.47131481520504      1.03936061704271
  H   -2.44536638532707     -0.18966894430302      1.02026215423059
  H   -1.30521039761519     -1.48763289586466      0.64808134848871
  H   -1.05330573649853     -0.45868829940275      2.07838455938299
  C   -1.00843464887560      0.44656387454956     -1.26948739850099
  H   -0.82391366608804     -0.54847824967390     -1.68338505670495
  H   -0.46819952864216      1.18369610615546     -1.86541415146670
  H   -2.07666660684179      0.65574022962508     -1.35077297936872
  C   1.70039619520969      1.20765189624063     -0.44800715580892
  N   2.33107231471172      1.91289616655639     -1.14345534200146
  C   1.39517657546312     -1.15899776896612      0.09492087418712
  H   1.16366727446006     -1.45591999500898     -0.92915796067589
  H   2.47678527003929     -1.22632459325632      0.22482006316961
  H   0.92952104161744     -1.86320553756866      0.78470066647023
