15

C	-0.479818	-0.021819	-1.457721
C	0.0	0.0	0.0
F	-0.12996	-1.27014	-1.958648
H	1.09214	0.0	0.0
H	0.09228	0.725883	-2.008109
C	-1.971375	0.155917	-1.632224
H	-2.227057	0.0388	-2.68708
H	-2.511626	-0.6016	-1.060635
H	-2.284369	1.149127	-1.309955
C	-0.544754	-1.114009	0.759529
N	-0.983619	-2.041621	1.330325
N	-0.383693	1.294895	0.644812
O	-0.702634	1.292606	1.828606
O	-0.298451	2.294788	-0.065595
Cl	3.172392	0.0	0.0
