15

C	-0.418432	0.015109	-1.46707
C	0.0	0.0	0.0
F	-1.808852	-0.069914	-1.562196
H	1.092111	0.0	0.0
H	-0.008882	-0.902312	-1.900971
C	0.065563	1.224091	-2.22824
H	-0.149797	1.087363	-3.28995
H	-0.442905	2.123218	-1.880424
H	1.139549	1.342642	-2.077153
C	-0.523926	-1.175535	0.68189
N	-0.90536	-2.155041	1.204992
N	-0.495867	1.237098	0.688197
O	-1.544368	1.165379	1.329107
O	0.167066	2.257128	0.518025
Cl	3.226915	0.0	0.0
