15

C	-0.515756	-0.052946	-1.436915
C	0.0	0.0	0.0
F	-0.12745	1.135992	-2.045389
H	1.091912	0.0	0.0
H	-1.610452	-0.058586	-1.435386
C	0.073623	-1.220468	-2.194006
H	-0.220145	-1.150688	-3.243879
H	1.16324	-1.195732	-2.11476
H	-0.297103	-2.166136	-1.791201
C	-0.523703	-1.126813	0.759759
N	-0.945262	-2.057201	1.339465
N	-0.523388	1.265224	0.635636
O	0.289575	2.068629	1.069736
O	-1.747844	1.395641	0.651296
Cl	3.274785	0.0	0.0
