15

C	-0.491707	-0.065465	-1.44824
C	0.0	0.0	0.0
F	-0.198041	1.162506	-2.03188
H	1.09175	0.0	0.0
H	-1.581201	-0.166548	-1.46719
C	0.220944	-1.161189	-2.203115
H	1.299417	-1.02204	-2.104223
H	-0.048124	-2.142332	-1.80567
H	-0.063466	-1.120051	-3.256812
C	-0.512263	-1.142839	0.744258
N	-0.928258	-2.087779	1.304176
N	-0.552371	1.255695	0.617533
O	0.236622	2.128815	0.948741
O	-1.779691	1.315492	0.709577
Cl	3.271605	0.0	0.0
