15

C	-0.408754	0.033434	-1.47002
C	0.0	0.0	0.0
F	-1.803519	0.008345	-1.568546
H	1.092059	0.0	0.0
H	-0.040207	-0.904499	-1.896634
C	0.134046	1.209484	-2.24254
H	-0.345674	2.133597	-1.923337
H	-0.062715	1.056766	-3.305552
H	1.208682	1.291111	-2.072006
C	-0.526037	-1.189308	0.657541
N	-0.910183	-2.177193	1.161864
N	-0.489525	1.224143	0.712456
O	0.103128	2.268472	0.459089
O	-1.453186	1.115365	1.469597
Cl	3.203628	0.0	0.0
