15

C	-0.48174	0.055368	-1.454467
C	0.0	0.0	0.0
F	-0.129678	-1.164	-2.023402
H	1.092126	0.0	0.0
H	0.086394	0.832149	-1.966194
C	-1.974771	0.236129	-1.615332
H	-2.291363	1.208128	-1.235537
H	-2.231049	0.179255	-2.675198
H	-2.510039	-0.556024	-1.08736
C	-0.54425	-1.151846	0.701618
N	-0.985697	-2.106736	1.223781
N	-0.381158	1.261279	0.713404
O	-0.686517	1.195517	1.900811
O	-0.300942	2.297727	0.054377
Cl	3.173861	0.0	0.0
