15

C	-0.353455	-0.090214	-1.484847
C	0.0	0.0	0.0
F	-1.708586	-0.393297	-1.645162
H	1.096035	0.0	0.0
C	-0.18729	1.236778	-2.133868
N	-0.043691	2.22213	-2.755641
N	0.421439	-1.130483	-2.0701
H	1.388483	-1.063778	-1.751955
H	0.395001	-1.084182	-3.080617
C	-0.465387	-1.217567	0.676906
N	-0.876854	-2.130331	1.291692
N	-0.487624	1.225608	0.60461
H	-1.38631	1.086048	1.046653
H	0.180232	1.535036	1.298861
Br	3.406356	0.0	0.0
