15

C	-0.511383	-0.008417	-1.446601
C	0.0	0.0	0.0
F	0.075708	1.114206	-2.062693
H	1.098651	0.0	0.0
C	-0.055428	-1.187271	-2.208319
N	0.247076	-2.132208	-2.835681
N	-1.92309	0.060029	-1.464461
H	-2.198144	0.809055	-0.836706
H	-2.268272	0.222407	-2.401732
C	-0.500229	-1.172136	0.712894
N	-0.877903	-2.102326	1.322022
N	-0.518771	1.235457	0.623448
H	-0.47207	1.121286	1.629727
H	0.153909	1.960471	0.389772
Br	3.442727	0.0	0.0
