15

C	-0.35005	-0.035909	-1.486718
C	0.0	0.0	0.0
F	-1.71348	-0.283915	-1.661212
H	1.094002	0.0	0.0
C	-0.131291	1.302526	-2.096322
N	0.003683	2.28093	-2.73258
N	0.387857	-1.08802	-2.09973
H	1.358549	-1.058602	-1.788604
H	0.355937	-1.018519	-3.108507
C	-0.475176	-1.234778	0.637537
N	-0.904277	-2.158568	1.223093
N	-0.48205	1.209849	0.639683
H	-1.390192	1.066513	1.061254
H	0.177569	1.486009	1.354863
Br	3.403311	0.0	0.0
