15

C	-0.487854	0.012542	-1.456272
C	0.0	0.0	0.0
F	-1.913377	0.172194	-1.398639
H	1.094497	0.0	0.0
C	-0.024808	1.230275	-2.151767
N	0.308315	2.192054	-2.736325
N	-0.111554	-1.129561	-2.168987
H	-0.303323	-1.98477	-1.665325
H	-0.488246	-1.149623	-3.106407
C	-0.491309	-1.242466	0.613888
N	-0.899011	-2.254237	1.049798
N	-0.435315	1.152784	0.767244
H	-1.325124	1.498794	0.435631
H	0.271948	1.872141	0.694431
Br	3.415389	0.0	0.0
