15

C	-0.314802	0.0672	-1.499589
C	0.0	0.0	0.0
F	-0.080415	-1.208983	-2.041634
H	1.103735	0.0	0.0
C	-1.734041	0.367234	-1.790226
N	-2.85237	0.585	-2.073101
N	0.522748	1.061388	-2.051038
H	0.418118	1.125796	-3.055949
H	1.494934	0.870921	-1.796084
C	-0.547755	-1.204245	0.613146
N	-1.001126	-2.148158	1.143604
N	-0.55076	1.1968	0.647523
H	-0.275256	1.170707	1.624278
H	-0.062161	1.986281	0.233992
Br	3.464744	0.0	0.0
