15

C	-0.520184	0.009836	-1.442284
C	0.0	0.0	0.0
F	-0.113546	1.156199	-2.072417
H	1.094674	0.0	0.0
C	0.033749	-1.133122	-2.219301
N	0.338839	-2.05097	-2.885295
N	-1.966132	0.020075	-1.449348
H	-2.312916	-0.852735	-1.068202
H	-2.286393	0.093587	-2.40783
C	-0.472061	-1.242531	0.638015
N	-0.940967	-2.183331	1.168333
N	-0.426337	1.204589	0.681163
H	0.232218	1.405296	1.418503
H	-1.361359	1.123583	1.053931
Br	3.429491	0.0	0.0
