15

C	-0.351229	-0.065195	-1.490955
C	0.0	0.0	0.0
F	-1.722516	-0.28993	-1.615335
H	1.100655	0.0	0.0
C	-0.071454	1.240941	-2.127536
N	0.105301	2.25251	-2.695556
N	0.334351	-1.099787	-2.211218
H	0.159104	-1.984419	-1.74078
H	1.336059	-0.918252	-2.137951
C	-0.449384	-1.248391	0.635947
N	-0.833668	-2.215916	1.182188
N	-0.498559	1.202749	0.635642
H	-1.428681	1.066371	1.009441
H	0.13336	1.470609	1.380147
Br	3.40197	0.0	0.0
