15

C	-0.337894	-0.196449	-1.491964
C	0.0	0.0	0.0
F	-0.140806	-1.527709	-1.801423
H	1.094336	0.0	0.0
C	-1.766839	0.121253	-1.737827
N	-2.900998	0.381262	-1.8926
N	0.492454	0.589322	-2.352785
H	1.460448	0.418182	-2.067422
H	0.296437	1.566389	-2.157586
C	-0.552059	-1.05987	0.846014
N	-1.053308	-1.855902	1.551453
N	-0.406504	1.347648	0.382026
H	0.250825	1.708624	1.062756
H	-1.335748	1.352007	0.78409
Br	3.422789	0.0	0.0
