15

C	-0.511989	-0.005995	-1.446424
C	0.0	0.0	0.0
F	0.075428	1.117246	-2.061122
H	1.098595	0.0	0.0
C	-0.056967	-1.184188	-2.209669
N	0.246116	-2.131416	-2.833275
N	-1.923651	0.063301	-1.463464
H	-2.197976	0.81138	-0.834258
H	-2.269275	0.227461	-2.400255
C	-0.500284	-1.173081	0.71132
N	-0.877822	-2.104254	1.319032
N	-0.518371	1.234647	0.625505
H	-0.471232	1.118942	1.631591
H	0.154367	1.959879	0.392631
Br	3.442762	0.0	0.0
