15

C	-0.464934	-0.005709	-1.46781
C	0.0	0.0	0.0
F	-0.004133	1.14512	-2.070402
H	1.096596	0.0	0.0
C	0.090896	-1.151382	-2.227884
N	0.405176	-2.087156	-2.864556
N	-1.905657	0.052121	-1.530967
H	-2.301415	-0.761735	-1.072182
H	-2.201713	0.048778	-2.500603
C	-0.523908	-1.214218	0.637093
N	-1.018116	-2.175789	1.097081
N	-0.440503	1.187697	0.710495
H	0.277636	1.891557	0.592276
H	-1.306545	1.524959	0.305957
Br	3.422809	0.0	0.0
