15

C	-0.477388	-0.115938	-1.457156
C	0.0	0.0	0.0
F	-1.899095	0.085579	-1.432098
H	1.094897	0.0	0.0
C	0.026305	1.014063	-2.260441
N	0.359589	1.927041	-2.918432
N	-0.12809	-1.332804	-2.052146
H	-0.49018	-1.424423	-2.990297
H	-0.375385	-2.126764	-1.477172
C	-0.501584	-1.178059	0.719489
N	-0.922235	-2.141662	1.242636
N	-0.430887	1.221196	0.655046
H	-1.305375	1.553524	0.275908
H	0.290141	1.919393	0.541329
Br	3.416011	0.0	0.0
