15

C	-0.486368	-0.002107	-1.457749
C	0.0	0.0	0.0
F	-1.911885	0.165622	-1.404236
H	1.095153	0.0	0.0
C	-0.018378	1.205768	-2.165482
N	0.281082	2.180256	-2.746909
N	-0.117135	-1.156256	-2.157998
H	-0.319884	-2.000222	-1.639696
H	-0.511432	-1.187787	-3.087048
C	-0.495267	-1.233961	0.626417
N	-0.921319	-2.231275	1.07768
N	-0.433162	1.160008	0.754262
H	0.266807	1.88483	0.665052
H	-1.330406	1.495176	0.43007
Br	3.418134	0.0	0.0
