14

C	0.0	0.0	0.0
C	-0.509485	-0.267209	-1.441451
F	1.383262	0.0	0.0
H	-1.424168	-0.856432	-1.356516
H	-0.364979	0.952012	0.382177
C	-0.367986	-1.105892	0.906537
N	-0.481232	-2.038307	1.610397
N	0.439051	-1.002742	-2.256418
H	0.48175	-1.963713	-1.935767
H	1.359586	-0.595613	-2.136629
N	-0.741906	1.032058	-2.057068
H	-0.933796	0.84422	-3.035409
H	-1.612744	1.369673	-1.649718
Br	-3.521796	0.0	0.0
