14

C	0.0	0.0	0.0
C	-0.539757	-0.088817	-1.423348
F	1.377845	0.0	0.0
H	-1.581861	0.236905	-1.36218
H	-0.351204	0.935034	0.4401
C	-0.408663	-1.133209	0.849298
N	-0.598589	-2.072339	1.526736
N	-0.405998	-1.464935	-1.921331
H	-0.766734	-1.466438	-2.870635
H	-1.051512	-2.045107	-1.389484
N	0.209496	0.863426	-2.219503
H	-0.282831	1.033276	-3.086965
H	1.112872	0.456422	-2.43451
Br	-3.73359	0.0	0.0
