14

C	0.0	0.0	0.0
C	-0.453556	-0.286957	-1.436967
F	1.391472	0.0	0.0
H	-0.017709	0.533026	-2.033787
H	-0.347456	0.981267	0.332856
C	-0.438071	-1.037936	0.945301
N	-0.726375	-1.844448	1.746904
N	-1.865085	-0.299987	-1.669211
H	-2.394683	-0.832106	-0.985188
H	-2.280091	0.620878	-1.653893
N	0.072808	-1.598506	-1.78994
H	1.076205	-1.564768	-1.907168
H	-0.364184	-1.860015	-2.664358
Br	-4.729863	0.0	0.0
