14

C	0.0	0.0	0.0
C	-0.473806	0.3417	-1.450414
F	1.376152	0.0	0.0
H	0.474129	0.409029	-1.998591
H	-0.356868	0.741188	0.715001
C	-0.400644	-1.352907	0.42315
N	-0.620133	-2.470258	0.707226
N	-1.07807	1.661366	-1.409051
H	-1.97109	1.559898	-0.921965
H	-1.317734	1.897967	-2.366596
N	-1.30551	-0.626024	-2.143272
H	-2.198514	-0.686439	-1.652053
H	-0.87425	-1.5444	-2.130509
Br	-3.870494	0.0	0.0
