14

C	0.0	0.0	0.0
C	-0.469427	-0.013103	-1.453426
F	1.392368	0.0	0.0
H	-1.548877	0.143454	-1.418417
H	-0.354364	0.899343	0.503827
C	-0.395788	-1.208291	0.741233
N	-0.540267	-2.216512	1.324256
N	-0.213826	-1.279026	-2.138538
H	-0.924451	-1.947911	-1.860944
H	0.687235	-1.651421	-1.854349
N	0.163876	1.127116	-2.09785
H	1.157387	0.940781	-2.181752
H	-0.20858	1.174876	-3.038681
Br	-3.632491	0.0	0.0
