14

C	0.0	0.0	0.0
C	-0.510667	-0.066589	-1.423408
F	1.39325	0.0	0.0
H	-1.601571	-0.083344	-1.32707
H	-0.350239	0.920086	0.467433
C	-0.390757	-1.170479	0.80335
N	-0.559854	-2.131838	1.453641
N	-0.069161	-1.316205	-2.025713
H	0.924121	-1.277942	-2.223215
H	-0.567803	-1.473676	-2.891572
N	-0.12221	1.181137	-2.080925
H	0.853079	1.132293	-2.353671
H	-0.679952	1.302455	-2.916187
Br	-3.757688	0.0	0.0
