14

C	0.0	0.0	0.0
C	-0.45413	-0.571306	-1.358852
F	1.389658	0.0	0.0
H	-0.044493	0.132411	-2.096924
H	-0.350194	1.025941	0.143887
C	-0.423389	-0.844026	1.127901
N	-0.669023	-1.53373	2.044897
N	-1.873565	-0.662516	-1.524422
H	-2.433161	-0.776183	-0.680167
H	-2.271573	0.133082	-1.999392
N	0.147665	-1.881745	-1.592162
H	1.011927	-1.997709	-1.074702
H	-0.520002	-2.587439	-1.309573
Br	-4.769094	0.0	0.0
