15

C	0.0	0.0	0.0
C	-0.178053	-0.066375	-1.550794
F	1.357504	0.0	0.0
H	0.491559	0.714085	-1.907984
H	-0.420289	-0.818472	0.573684
N	-0.362498	1.280031	0.687786
O	-0.521347	1.202606	1.900997
O	-0.314196	2.30705	0.020078
N	-1.456613	0.244409	-2.292788
O	-1.673097	1.43206	-2.499516
O	-2.082842	-0.696836	-2.756207
N	0.271454	-1.350581	-2.042131
H	1.138396	-1.598812	-1.585683
H	-0.438557	-2.04286	-1.834623
Cl	-3.088506	0.0	0.0
