15

C	0.0	0.0	0.0
C	-0.677364	-0.030401	-1.34312
F	1.355043	0.0	0.0
H	-1.765236	-0.02915	-1.127049
H	-0.382236	-0.771926	0.665011
N	-0.339245	1.35941	0.643827
O	-1.518937	1.642382	0.735845
O	0.611303	2.037258	1.019947
N	-0.376065	-1.410699	-1.950699
O	-0.507321	-2.386278	-1.218886
O	-0.038422	-1.447584	-3.132437
N	-0.290723	1.051575	-2.165419
H	-0.934742	1.170192	-2.932909
H	0.645867	0.931892	-2.524577
Cl	-3.976836	0.0	0.0
