15

C	0.0	0.0	0.0
C	-0.258746	-0.293744	-1.514327
F	1.356332	0.0	0.0
H	0.615123	0.1417	-2.011483
H	-0.411376	-0.7596	0.653413
N	-0.310395	1.332262	0.62102
O	-0.154912	2.33309	-0.068094
O	-0.517706	1.307878	1.829839
N	-1.393952	0.315518	-2.318086
O	-1.372406	1.534589	-2.426284
O	-2.124408	-0.445262	-2.93384
N	-0.267616	-1.717452	-1.733905
H	-1.143397	-2.074905	-1.370029
H	0.507826	-2.128944	-1.227011
Cl	-2.979394	0.0	0.0
