15
Coordinates from ORCA-job run
  C   1.09207906011437      0.04585346278072     -0.15486405295167
  C   -0.41393789184740      0.30674064204201     -0.38142929326390
  Br  2.00571756651340      1.78737189609714     -0.30068121482206
  H   -0.52656886878759      0.84255173263234     -1.32624562581455
  C   1.64125373500849     -0.80977106489421     -1.20440889813661
  N   2.06789390160525     -1.46748687173483     -2.08050209915199
  C   1.37767528738089     -0.49069636417412      1.17267959183279
  N   1.60851230061101     -0.86921543117380      2.26154870723420
  C   -1.10440883535734      1.02511938673578      0.76400648476151
  H   -1.05543399351200      0.42615777490501      1.67572504203036
  H   -2.15007987803792      1.18667829356467      0.49931948062055
  H   -0.63711951375440      1.99243894104123      0.94643711313649
  N   -1.11856665370601     -1.00964613240457     -0.58464904675817
  O   -2.17080851172009     -0.95611429505685     -1.20958697942381
  O   -0.61620770451064     -2.00898197036052     -0.07634920929314
