15
Coordinates from ORCA-job run
  C   1.03178289980741     -0.29321755132589      0.07726846633246
  C   -0.38271853178411      0.28536433696838     -0.18830705619537
  Br  1.08464346082290     -1.76234702822112      1.37585937415876
  H   -0.23161608044168      1.20004228184382     -0.76771898483888
  C   1.83672069022353      0.79243164160572      0.63948016976206
  N   2.43883605013308      1.69633582476161      1.09034532929597
  C   1.63176748700716     -0.75734044822235     -1.17289813230269
  N   2.09089169355964     -1.10636489367677     -2.19777973563270
  C   -1.20377073931484      0.55331281004968      1.05671742688785
  H   -0.64773476901962      1.19150073641072      1.74599277450652
  H   -2.12210561284678      1.06997076123360      0.77144563301785
  H   -1.45831100669342     -0.38052937717313      1.55668424425938
  N   -1.15405759266583     -0.61539656148873     -1.10942984841655
  O   -1.72109826480924     -0.06576198623233     -2.04938397779544
  O   -1.19122968397820     -1.80900054653321     -0.82827568303922
