15
Coordinates from ORCA-job run
  C   1.09083238593175      0.02591488040968     -0.17153005866273
  C   -0.41874525992181      0.23770233692123     -0.42206857651180
  Br  1.98889632627991      1.72811974150841     -0.60496666670828
  H   -0.54442953159729      0.61236287278230     -1.44008030671356
  C   1.63745439613033     -0.98312713071253     -1.07565966338656
  N   2.06272194240563     -1.76881914249013     -1.83999745161750
  C   1.39263328245673     -0.28651339780085      1.22222292665144
  N   1.63161932347056     -0.48140183723446      2.35670085724912
  C   -1.10512739666050      1.12760171725759      0.59887735836027
  H   -2.15507471680556      1.23399992293300      0.32321595728100
  H   -1.04040210015719      0.68596201777893      1.59547311040378
  H   -0.64694043121015      2.11613565876843      0.61564271082750
  N   -1.11584066192959     -1.09819790134555     -0.40145903430175
  O   -2.17536293660488     -1.15232396670381     -1.01419571261645
  O   -0.60223462178795     -1.99841577207222      0.25882454974554
