15
Coordinates from ORCA-job run
  C   1.03406095593899     -0.32557368984107     -0.22133009106932
  C   -0.46518669907022     -0.04410941122997     -0.46268599376765
  Br  1.57216620406945     -1.94655072167751     -1.18745231126482
  H   -0.60664505055190      0.11023565635763     -1.53373977116492
  C   1.38081358500860     -0.47515992603013      1.19113247681456
  N   1.70098868077423     -0.53444852761956      2.32102952009218
  C   1.78738546664157      0.79647828601209     -0.78202509217485
  N   2.34956829149768      1.72250242487604     -1.23960372214078
  C   -0.97814541573489      1.12283134467839      0.36267958966501
  H   -0.87370771834266      0.91406086464934      1.42853427918683
  H   -0.42885491515264      2.03325816836528      0.11612955660939
  H   -2.03321168859939      1.28735381577901      0.13469840502879
  N   -1.27302464683998     -1.26278284334770     -0.12889353944129
  O   -1.09715695790192     -1.75404288808416      0.98171691247524
  O   -2.07005009173690     -1.64205255288766     -0.98119021884837
