19

C	0.0	0.0	0.0
C	-0.540091	-0.133553	-1.434038
Cl	1.793316	0.0	0.0
H	-1.632718	-0.248502	-1.262369
N	-0.534504	1.251548	0.479762
H	-1.56597	1.097355	0.408819
H	-0.324504	1.311883	1.472523
C	-0.416218	-1.17829	0.876252
H	-1.512195	-1.224027	0.832606
H	0.023872	-2.120788	0.558996
H	-0.099383	-0.969352	1.903223
N	-0.073171	-1.398901	-2.074156
O	-0.627525	-2.447743	-1.738942
O	0.8254	-1.337284	-2.917898
C	-0.232289	1.04697	-2.328681
H	-0.662703	0.883858	-3.31972
H	0.842767	1.193641	-2.435014
H	-0.675404	1.934876	-1.884278
H	-3.096386	0.0	0.0
