19

C	0.0	0.0	0.0
C	-0.223957	0.001134	-1.561947
Cl	1.812596	0.0	0.0
H	0.290866	-0.876903	-1.954466
N	-0.566938	1.066417	0.747433
H	-0.413149	1.942356	0.262007
H	-1.586459	0.881739	0.75524
C	-0.502765	-1.314902	0.557843
H	-1.600307	-1.288979	0.502147
H	-0.198125	-1.387298	1.603726
H	-0.100396	-2.165554	0.003167
N	0.518201	1.136223	-2.209196
O	1.272645	0.868111	-3.143865
O	0.289528	2.278713	-1.810108
C	-1.635366	0.075953	-2.104058
H	-2.25783	-0.722832	-1.706752
H	-1.581393	0.025048	-3.198958
H	-2.136983	0.986627	-1.787742
H	-3.41912	0.0	0.0
