19

C	0.0	0.0	0.0
C	-0.537592	-0.128824	-1.435344
Cl	1.793507	0.0	0.0
H	-1.632824	-0.225936	-1.266518
N	-0.535128	1.249809	0.482789
H	-1.566858	1.095585	0.412035
H	-0.324755	1.308334	1.475859
C	-0.419828	-1.182268	0.868945
H	-0.10444	-0.981206	1.897704
H	0.021578	-2.124844	0.546335
H	-1.51417	-1.22765	0.821214
N	-0.092853	-1.406223	-2.068865
O	-0.687042	-2.438861	-1.752342
O	0.828446	-1.369481	-2.889241
C	-0.201496	1.03992	-2.333133
H	-0.60608	1.944251	-1.880246
H	0.876911	1.147972	-2.454398
H	-0.652207	0.89349	-3.318641
H	-3.0954	0.0	0.0
