19

C	0.0	0.0	0.0
C	-0.580246	-0.02265	-1.4169
Cl	1.841635	0.0	0.0
H	-1.67243	-0.180995	-1.198645
N	-0.440899	1.227452	0.585119
H	0.166045	1.999528	0.350971
H	-0.541695	1.146462	1.585904
C	-0.492422	-1.154076	0.841507
H	-0.121805	-1.038614	1.864728
H	-0.16317	-2.112118	0.448251
H	-1.592954	-1.079757	0.813367
N	-0.074616	-1.19186	-2.188932
O	-0.472431	-2.312331	-1.862177
O	0.706612	-0.98942	-3.124619
C	-0.379547	1.253788	-2.201623
H	-0.966546	2.032523	-1.715726
H	0.672781	1.540491	-2.260512
H	-0.752611	1.126736	-3.218737
H	-3.269683	0.0	0.0
