14

C	0.0	0.0	0.0
C	-0.423879	0.011901	-1.483359
Cl	1.793345	0.0	0.0
H	-1.526013	0.077494	-1.453844
H	0.028687	0.889627	-1.952272
C	-0.372091	1.305546	0.722709
H	0.083529	2.140983	0.181699
H	-1.458031	1.374141	0.747493
H	0.059735	1.285471	1.725038
C	-0.484169	-1.183869	0.700005
N	-0.684895	-2.221672	1.217439
C	0.01003	-1.175238	-2.214325
N	0.280771	-2.130536	-2.841775
F	-2.624786	0.0	0.0
