14

C	0.0	0.0	0.0
C	-0.609198	0.033291	-1.399248
Cl	1.794038	0.0	0.0
H	-1.722733	0.036067	-1.114508
H	-0.348551	-0.867972	-1.960197
C	-0.478857	1.186009	0.829484
H	-1.57311	1.106741	0.805252
H	-0.126051	2.111687	0.367932
H	-0.083247	1.119799	1.845326
C	-0.405092	-1.258743	0.641555
N	-0.597978	-2.281815	1.185249
C	-0.219693	1.213175	-2.14843
N	0.075633	2.166065	-2.770756
F	-2.837455	0.0	0.0
