14

C	0.0	0.0	0.0
C	-0.603757	0.175942	-1.390728
Cl	1.794014	0.0	0.0
H	-1.716933	0.153849	-1.107475
H	-0.344019	-0.664644	-2.037842
C	-0.475691	1.097432	0.944562
H	-0.091894	0.915868	1.950201
H	-1.570055	1.032553	0.905482
H	-0.1058	2.061099	0.589291
C	-0.401584	-1.319006	0.51091
N	-0.569527	-2.391946	0.955882
C	-0.201106	1.421439	-2.016641
N	0.118999	2.426057	-2.536259
F	-2.82627	0.0	0.0
