14

C	0.0	0.0	0.0
C	-0.564744	-0.008876	-1.417441
Cl	1.793323	0.0	0.0
H	-1.676981	-0.01767	-1.182153
H	-0.268273	0.919851	-1.915924
C	-0.471128	1.252319	0.730975
H	-0.067378	2.13021	0.217344
H	-0.106556	1.247861	1.760249
H	-1.566099	1.200345	0.679381
C	-0.41167	-1.216001	0.711502
N	-0.616751	-2.234037	1.259956
C	-0.127349	-1.142153	-2.21427
N	0.22053	-2.042885	-2.884253
F	-2.796896	0.0	0.0
