14

C	0.0	0.0	0.0
C	-0.381217	-0.121506	-1.489511
Cl	1.796465	0.0	0.0
H	0.141164	0.690904	-2.010244
H	0.064355	-1.048581	-1.869572
C	-0.410657	1.319165	0.647402
H	0.002433	1.376496	1.656683
H	0.001335	2.139459	0.053702
H	-1.501444	1.313556	0.64876
C	-0.440601	-1.172087	0.754557
N	-0.602687	-2.156637	1.376191
C	-1.798046	-0.095882	-1.91714
N	-2.607194	-0.167614	-2.775602
F	-2.568109	0.0	0.0
