14

C	0.0	0.0	0.0
C	-0.343315	-0.07084	-1.499789
Cl	1.796463	0.0	0.0
H	0.071479	-1.007439	-1.888741
H	0.227978	0.730723	-1.98101
C	-0.413878	1.30773	0.666776
H	-0.020482	1.341694	1.685638
H	-1.505296	1.302974	0.64777
H	0.013076	2.139469	0.098583
C	-0.449594	-1.186226	0.726372
N	-0.612909	-2.198698	1.300562
C	-1.734893	0.044095	-1.968888
N	-2.510375	0.145734	-2.853804
F	-2.559383	0.0	0.0
