15

C	-0.463874	-0.028726	-1.432991
C	0.0	0.0	0.0
F	-0.12098	1.152841	-2.086176
H	1.093405	0.0	0.0
H	-0.3245	-0.941902	0.466161
C	0.226159	-1.113374	-2.190295
N	0.630966	-2.016289	-2.823
N	-1.902174	-0.144093	-1.563674
H	-2.152678	-0.386014	-2.515784
H	-2.227655	-0.876734	-0.946704
C	-0.532372	1.208104	0.757387
H	-0.10241	1.206551	1.76235
H	-1.623987	1.243067	0.837728
H	-0.194827	2.121054	0.263792
F	2.661654	0.0	0.0
