15

C	-0.495123	-0.029057	-1.423562
C	0.0	0.0	0.0
F	-0.01834	1.11721	-2.103992
H	1.092736	0.0	0.0
H	-0.347131	-0.921404	0.481206
C	0.052813	-1.183511	-2.175709
N	0.410785	-2.104394	-2.809131
N	-1.924474	-0.086406	-1.536163
H	-2.31691	0.661295	-0.977334
H	-2.195701	0.054536	-2.503545
C	-0.477257	1.231806	0.761696
H	-1.547759	1.243185	1.008792
H	0.081457	1.284901	1.698637
H	-0.236268	2.134375	0.196381
F	2.664228	0.0	0.0
