15

C	-0.160088	0.047288	-1.530581
C	0.0	0.0	0.0
F	-0.47526	-1.259739	-1.992264
H	1.096769	0.0	0.0
H	-0.317972	0.971952	0.39488
C	-1.31451	0.864158	-1.977343
N	-2.241709	1.512501	-2.291598
N	1.042025	0.487542	-2.137365
H	1.842016	0.412595	-1.468801
H	0.975373	1.38365	-2.590906
C	-0.673915	-1.152163	0.714955
H	-0.262301	-2.101802	0.372561
H	-1.758815	-1.174081	0.559019
H	-0.487183	-1.074896	1.790431
F	2.756999	0.0	0.0
