15

C	-0.101887	0.129212	-1.521621
C	0.0	0.0	0.0
F	-0.076542	-1.196991	-2.064016
H	1.095374	0.0	0.0
H	-0.441181	-0.949609	0.308216
C	-1.382446	0.68129	-2.035911
N	-2.399487	1.12891	-2.416707
N	0.991461	0.904234	-1.954843
H	1.125358	0.844585	-2.95547
H	1.838346	0.625507	-1.404579
C	-0.545998	1.198499	0.757434
H	-1.628417	1.32553	0.638028
H	-0.330323	1.092978	1.824253
H	-0.050991	2.107682	0.409945
F	2.752447	0.0	0.0
