15

C	-0.160665	-0.165398	-1.510375
C	0.0	0.0	0.0
F	-1.333071	-0.902082	-1.840427
H	1.095366	0.0	0.0
H	-0.34404	-0.944753	0.432351
C	-0.389546	1.136894	-2.202229
N	-0.530981	2.164804	-2.755151
N	0.989158	-0.848512	-1.986927
H	1.81774	-0.60242	-1.397026
H	1.158356	-0.687615	-2.969703
C	-0.671246	1.20157	0.633017
H	-1.749691	1.232575	0.438297
H	-0.524942	1.178121	1.716802
H	-0.232764	2.132499	0.266633
F	2.750843	0.0	0.0
