15

C	-0.102959	0.073261	-1.525183
C	0.0	0.0	0.0
F	-0.093067	-1.273046	-2.01689
H	1.096018	0.0	0.0
H	-0.443121	-0.936344	0.342014
C	-1.384571	0.612498	-2.05201
N	-2.414	1.028598	-2.436103
N	0.994926	0.8226	-1.987899
H	1.125142	0.730422	-2.986521
H	1.841544	0.561877	-1.428176
C	-0.541461	1.227695	0.711429
H	-0.0362	2.119512	0.335695
H	-0.33253	1.158258	1.782552
H	-1.621747	1.360118	0.581496
F	2.755219	0.0	0.0
