15

C	-0.477287	0.008047	-1.426765
C	0.0	0.0	0.0
F	-0.050402	1.170059	-2.062085
H	1.093293	0.0	0.0
H	-0.382491	0.920322	0.456092
C	0.126634	-1.116688	-2.202497
N	0.469829	-2.046423	-2.83347
N	-1.918297	-0.007421	-1.548016
H	-2.300392	-0.683711	-0.901477
H	-2.198446	-0.263515	-2.487178
C	-0.43948	-1.23731	0.776418
H	-0.120188	-2.147431	0.258883
H	0.073963	-1.234944	1.740407
H	-1.517931	-1.308502	0.974717
F	2.657687	0.0	0.0
