16

C	-0.469356	-0.167027	-1.455731
C	0.0	0.0	0.0
F	-1.798828	-0.477882	-1.483756
H	1.095081	0.0	0.0
N	-0.334549	1.187815	-2.14399
O	0.812702	1.556218	-2.361485
O	-1.366861	1.79165	-2.41297
C	0.339731	-1.192246	-2.202476
H	0.160312	-2.170987	-1.753121
H	1.400589	-0.948802	-2.12047
H	0.024232	-1.216217	-3.247903
C	-0.429309	-1.176529	0.757913
N	-0.767066	-2.132698	1.349916
C	-0.523415	1.215788	0.61783
N	-0.942028	2.19756	1.108131
Br	3.332065	0.0	0.0
