16

C	-0.470412	0.008598	-1.466933
C	0.0	0.0	0.0
F	-0.073293	1.182354	-2.018995
H	1.096026	0.0	0.0
N	0.243327	-1.105955	-2.222448
O	0.807273	-0.814678	-3.26476
O	0.116552	-2.224283	-1.736998
C	-1.953822	-0.172304	-1.674949
H	-2.16884	-0.123047	-2.744737
H	-2.481389	0.638649	-1.169586
H	-2.283833	-1.130605	-1.275707
C	-0.506214	-1.138682	0.762393
N	-0.921036	-2.022696	1.415317
C	-0.469753	1.235346	0.629601
N	-0.876765	2.220466	1.122975
Br	3.295446	0.0	0.0
