16

C	-0.473145	-0.079951	-1.461693
C	0.0	0.0	0.0
F	-1.813867	-0.341048	-1.503639
H	1.095027	0.0	0.0
N	-0.289335	1.30174	-2.083568
O	0.864756	1.613948	-2.348429
O	-1.294847	1.982683	-2.256871
C	0.298616	-1.097048	-2.25848
H	0.07343	-2.089408	-1.862976
H	-0.010675	-1.054627	-3.305148
H	1.369367	-0.900057	-2.16108
C	-0.436166	-1.213344	0.691245
N	-0.778466	-2.201144	1.225903
C	-0.517117	1.183108	0.683998
N	-0.930982	2.138769	1.226857
Br	3.328137	0.0	0.0
