16

C	-0.322845	-0.00483	-1.49611
C	0.0	0.0	0.0
F	0.193528	-1.146077	-2.02312
H	1.098094	0.0	0.0
N	-1.828967	-0.090851	-1.750744
O	-2.571642	0.39753	-0.904928
O	-2.172865	-0.597404	-2.812592
C	0.224956	1.197481	-2.215852
H	0.05595	1.072076	-3.286649
H	1.296803	1.243418	-2.00611
H	-0.259107	2.110429	-1.865817
C	-0.509128	-1.196657	0.660749
N	-0.924817	-2.164827	1.179254
C	-0.427788	1.220089	0.677029
N	-0.718803	2.22228	1.215233
Br	3.316346	0.0	0.0
