14
Coordinates from ORCA-job run
  C   0.99786763035430     -0.14353279633926      0.06732295652294
  C   -0.43264380907715     -0.14698410616629     -0.49905484475753
  F   1.81779452639909      0.05843283989562     -1.03722220691033
  H   -0.54206050166195     -1.04541343140305     -1.12553975262071
  C   1.21273469411228      0.95927527091958      1.01179402493439
  N   1.42996455110775      1.83662990984259      1.76143439853493
  C   1.35616397014363     -1.43954872003668      0.65813952994594
  N   1.63971788037340     -2.50507684872304      1.06309516023383
  N   -0.69141489870539      1.11333857679896     -1.12843897086552
  H   -0.05741804398736      1.24862258380294     -1.90567547505481
  H   -1.64546463497927      1.13363862496137     -1.46819234035483
  N   -1.44215024157716     -0.31121919013174      0.60667931730071
  O   -2.61052835127767     -0.18180233865102      0.26295087076834
  O   -1.03256277122450     -0.57636037476997      1.73270733232265
