14
Coordinates from ORCA-job run
  C   0.75305996128313     -0.56284412661950      0.49882005168733
  C   -0.52244319356923     -0.30756349908375     -0.33846738221418
  F   0.56742304197606     -1.58847331299001      1.38809027748076
  H   -0.89207188273439     -1.28098242892851     -0.67288056178168
  C   1.84207128402381     -0.94975151099916     -0.41518934967394
  N   2.72474632192542     -1.31478534809612     -1.09867187895130
  C   1.12377589579928      0.67038172375469      1.21495833571809
  N   1.38612114664570      1.69313681890069      1.73020011658871
  N   -0.22687342523909      0.53565196421941     -1.42822316052120
  H   -0.95370622257149      0.51585676243997     -2.12891969465636
  H   -0.08115708085725      1.49545795606705     -1.13861510938446
  N   -1.63489569471324      0.24021650536631      0.58617173577714
  O   -2.37635474350810      1.07840350551166      0.08651747791827
  O   -1.71069540846062     -0.22470500954273      1.71620914201281
