14
Coordinates from ORCA-job run
  C   1.00929151044280     -0.32790024754787     -0.03514292504319
  C   -0.39654543851680     -0.03266736921529     -0.60333544878699
  F   1.86109890927382     -0.35121081888328     -1.11789365186367
  H   -0.57364710524690     -0.73372393598793     -1.42049743061688
  C   1.45592173992608      0.72858799603394      0.88385733079036
  N   1.82527842568540      1.61273528869046      1.56312021410265
  C   1.05473964562526     -1.64739058974437      0.61334225380555
  N   1.09412081049938     -2.72618919152502      1.07634028147849
  N   -0.47511156410654      1.30088994149113     -1.06427248332295
  H   -0.47693373631574      1.98082655539244     -0.31342668496320
  H   -1.26162830459113      1.44723648931331     -1.68162762142396
  N   -1.44299974182167     -0.36583884185425      0.44975547748076
  O   -2.53102623022694     -0.74373700811797      0.02829004405959
  O   -1.14355892062703     -0.14261826804529      1.62249064430343
