14
Coordinates from ORCA-job run
  C   0.76924400715871     -0.57400059987619      0.46020736982316
  C   -0.53124845299592     -0.29903795235422     -0.32941318059972
  F   0.61181130437493     -1.62416481425342      1.32635341243042
  H   -0.90759472498845     -1.26312605458059     -0.68316009313030
  C   1.82992394256177     -0.93551112976078     -0.49673285915574
  N   2.69447644612816     -1.28280472955213     -1.21199895211875
  C   1.16250762291852      0.64072350645081      1.19570443338791
  N   1.44226858041060      1.65281058212599      1.72265245365613
  N   -0.27194730265316      0.57756904457487     -1.40248128512979
  H   -1.02376561688250      0.58036857084669     -2.07658546708995
  H   -0.11323131603563      1.52775147543915     -1.08867276438569
  N   -1.61994690950776      0.21571934994339      0.64071682173762
  O   -2.41668721184389      1.01503520053474      0.16339111973501
  O   -1.62581036864538     -0.23333244953832      1.78001899083970
