14
Coordinates from ORCA-job run
  C   0.91727904548648     -0.30004026995167     -0.02779226963948
  C   -0.55605610080582     -0.09236788521073     -0.51089342978947
  F   1.69529224423502     -0.05778558520157     -1.15069156273773
  H   -0.82091796086213     -0.96137390727117     -1.12108176062261
  C   1.25320995229304      0.70385086193828      0.99035867326525
  N   1.48115745447867      1.56369695326135      1.75803982496728
  C   1.21780127246246     -1.66172562382675      0.42338711187424
  N   1.50213107870736     -2.76781257502502      0.69934893348873
  N   -0.79268790301476      1.09584108954107     -1.22881914381387
  H   -0.51220078865963      1.93195448094377     -0.73267919451439
  H   -0.38590178218742      1.06977183670147     -2.15195125093347
  N   -1.45536030848978     -0.14762436764670      0.72009769426433
  O   -1.08744692274806     -0.92433166275407      1.59884769788092
  O   -2.45729928089543      0.54794665450173      0.73382867631026
