14
Coordinates from ORCA-job run
  C   0.99907576827602     -0.13398216643464     -0.01795133479003
  C   -0.48245513619894     -0.21581456418078     -0.42427246253844
  F   1.69668211943557     -0.09086185961630     -1.21941165168105
  H   -0.64406871234022     -1.19321187571909     -0.90425416740006
  C   1.29576401587036      1.09120902529507      0.73408713284042
  N   1.58046757626985      2.07229255151472      1.31317399358020
  C   1.43578236817150     -1.33355122587182      0.70841005568910
  N   1.80234907438938     -2.32628134572282      1.21800940350689
  N   -0.82531500248332      0.94388461085336     -1.19132093615562
  H   -1.80896295866576      0.91408909217658     -1.43129274704918
  H   -0.27542616399123      0.97217016877066     -2.04056760651113
  N   -1.36733913472008     -0.22456728452247      0.79471170442676
  O   -2.56713498971008     -0.14278222235251      0.56323264076541
  O   -0.83741882430304     -0.33259290418996      1.89644597531672
