14
Coordinates from ORCA-job run
  C   0.72326178647321     -0.42751735217927      0.50192650152223
  C   -0.59646502026219     -0.30282688184390     -0.31101618556718
  F   0.51953098609254     -1.27534848822039      1.56461547556816
  H   -0.84302768676045     -1.29449160392367     -0.69191965809645
  C   1.73478268937553     -1.00042971305860     -0.40081195418531
  N   2.49547649456017     -1.46353318354254     -1.16719643718328
  C   1.19494048710169      0.87802225369748      0.98819581441710
  N   1.60407817044725      1.92314715405334      1.33559929379556
  N   -0.60271155958158      0.66416432750705     -1.34499178630464
  H   -0.27376905700328      1.57371926860398     -1.04981458437473
  H   -0.14549456583634      0.34944549627983     -2.18768258412518
  N   -1.67899756154945      0.03632727878713      0.68201216675420
  O   -2.48286829234289     -0.84436146461400      0.96206994207603
  O   -1.64973687071420      1.18268290845356      1.12001399570351
