14
Coordinates from ORCA-job run
  C   0.89517644322036      0.10788259814270      0.28695811001698
  C   -0.46888321952858     -0.25705495399878     -0.33323962002791
  F   0.96451291769504      1.48481759573523      0.36628532384271
  H   -0.55511831643854     -1.34212000148957     -0.41150763711387
  C   1.09350604984451     -0.45354404657376      1.63153831856714
  N   1.29583235785739     -0.89438848440306      2.70152405617195
  C   1.95854735290189     -0.37834977911813     -0.60544902256816
  N   2.81699564957330     -0.79039187477013     -1.29275404218273
  N   -0.58834816601767      0.38122465321503     -1.58222332108137
  H   -0.66177822395660      1.38477540326462     -1.47431169386599
  H   -1.37635776150507      0.03499720005341     -2.11135318216200
  N   -1.53954806451248      0.14644106397912      0.69563540855622
  O   -1.78571451166453     -0.67833071981189      1.57051658675897
  O   -2.04882250746902      1.25304134577520      0.55738071508806
