14
Coordinates from ORCA-job run
  C   0.72870128944629     -0.41284862185963      0.50584298550323
  C   -0.59153103510672     -0.31381382576147     -0.30928144598633
  F   0.53621995051251     -1.25465086119509      1.57544397238021
  H   -0.82382481983019     -1.31191488413228     -0.68219167628455
  C   1.74952380164880     -0.97825387531583     -0.39117018795873
  N   2.51703633332905     -1.43663547048385     -1.15357994620243
  C   1.18125793255765      0.90321272629023      0.98216334391603
  N   1.57477933906109      1.95638113853979      1.32317837763471
  N   -0.61045367541469      0.64449724801771     -1.35094721360248
  H   -0.29472395098320      1.56105777902540     -1.06338908611063
  H   -0.15049826285581      0.32933777243520     -2.19188277095831
  N   -1.67967088567194      0.01785323228229      0.68037476221328
  O   -2.46935793015141     -0.87278817325816      0.96883354614453
  O   -1.66845808654143      1.16856581541569      1.10760533931146
