14
Coordinates from ORCA-job run
  C   1.00023757475115     -0.35499770359692      0.04659619074150
  C   -0.34978240702733     -0.03089045114036     -0.63050362390072
  F   1.93164694614138     -0.41044865273040     -0.96730640109040
  H   -0.48464627302483     -0.73975522721926     -1.44909872277054
  C   1.39998678515569      0.70086985244038      0.98757885273531
  N   1.72352186118810      1.58796461105187      1.68607820438440
  C   0.96424176093199     -1.66858381642020      0.70755909462802
  N   0.95585960958415     -2.74272510645418      1.18270458889572
  N   -0.35678796437976      1.29619143287222     -1.11566745523254
  H   -0.39544784203823      1.98921515097794     -0.37802956798369
  H   -1.09047903801402      1.45232775696588     -1.79268440802155
  N   -1.48348816598320     -0.31867589468422      0.34367460277516
  O   -2.55641700870490     -0.63382302491617     -0.15995223718011
  O   -1.25844583858019     -0.12466892714659      1.53805088201945
