14
Coordinates from ORCA-job run
  C   0.82698857132014      0.18421140100313      0.30492232011325
  C   -0.53208748572492     -0.27883895000100     -0.30252659223109
  F   0.77842883259225      1.55043503069615      0.47610589581816
  H   -0.49434567274711     -1.35601519869904     -0.46908349633536
  C   1.13345964220561     -0.45461177970595      1.59089931322151
  N   1.39024995585259     -0.96843314055774      2.61609509882387
  C   1.87383250497207     -0.13610742083496     -0.67806414135813
  N   2.66533515792351     -0.41191844642034     -1.50131221150260
  N   -0.92161073731165      0.41236347974901     -1.47338746289669
  H   -0.81851185416715      1.41392537242640     -1.38695100857600
  H   -0.46912110827067      0.05974275858893     -2.30412420654280
  N   -1.57064813083827     -0.05972087911506      0.77592092814273
  O   -1.78699960123985     -1.00980339167304      1.52295103563108
  O   -2.07597007456656      1.05477116454352      0.82755452769209
