14
Coordinates from ORCA-job run
  C   0.96015178252491     -0.27617111602384      0.13127098551481
  C   -0.39900925602857     -0.03273160287156     -0.54697159950693
  F   1.90201602249682     -0.05434901436478     -0.86676340899812
  H   -0.55061291393058     -0.83175815593816     -1.28882376948723
  C   1.20802529331559      0.67488158479326      1.22158730181081
  N   1.45400071623034      1.43456672116131      2.08252383503161
  C   1.10810327080704     -1.66611466927519      0.58233268271651
  N   1.25788583501621     -2.79511983777768      0.86978484639820
  N   -0.44923751354980      1.31426363703880     -1.03072094376792
  H   0.27309709479928      1.45956581486476     -1.72472261732097
  H   -1.35437498603897      1.49176745880201     -1.44903187939695
  N   -1.52278515250379     -0.19615780286943      0.44252507555770
  O   -1.25771992520387     -0.64529884260755      1.55357994377122
  O   -2.62954026793460      0.12165582506807      0.02542954767725
