14
Coordinates from ORCA-job run
  C   0.92034305664815     -0.27898291600460     -0.08808397422568
  C   -0.60091726034319     -0.16708322987247     -0.43617904575512
  F   1.57298712111796     -0.15299177955877     -1.30576016968367
  H   -0.89403682548864     -1.11109099893995     -0.90578522436158
  C   1.31778671818726      0.84673567805376      0.76737201890704
  N   1.58215654296727      1.79710869383023      1.40577734043763
  C   1.31421485572857     -1.56953116398337      0.48414620703429
  N   1.66489807585179     -2.62887278586884      0.85202534521705
  N   -0.95242705574384      0.91752224758758     -1.26371483038038
  H   -0.62574789643633      0.79128446309845     -2.21039797528946
  H   -0.66174601314058      1.81548867930240     -0.89833038111336
  N   -1.36687431216170     -0.09139655659424      0.87975639952922
  O   -0.90745444218751     -0.78001291204635      1.78808500896555
  O   -2.36218256499921      0.61282258099619      0.92908928071847
