14
Coordinates from ORCA-job run
  C   0.68519554122205     -0.58552972531420      0.46726411294397
  C   -0.50564408094352     -0.19260857208659     -0.43151767372821
  F   0.26307113959167     -1.51153701882484      1.39207565601083
  H   -0.81107071664421     -1.07103618156758     -1.00133086971207
  C   1.72644230143494     -1.18426620817853     -0.38084822773988
  N   2.54095214284849     -1.69599649227940     -1.05485851773215
  C   1.23508522609257      0.58604268195673      1.16912074731926
  N   1.68792502632697      1.52419131702426      1.71197374436596
  N   -0.13401706033215      0.88312099958537     -1.26439586921138
  H   -0.75610293452270      0.99351566239887     -2.05285293363470
  H   -0.06856290199820      1.75225732268103     -0.74694215841047
  N   -1.67735470282209      0.09385216737528      0.50679241864188
  O   -1.66063349433348      1.19081784770681      1.06002331128802
  O   -2.52528548592033     -0.78282380047722      0.62649625959892
