14
Coordinates from ORCA-job run
  C   0.74374469346209     -0.07769523718907      0.50288585088612
  C   -0.43510662544643      0.03937573225291     -0.51055178751439
  F   0.39260161270027      0.59695921041722      1.65176003962513
  H   -0.15633622364033     -0.46792509633729     -1.43493161256123
  C   1.07868238992775     -1.46697078787144      0.83939068989770
  N   1.35636750498223     -2.57771805566890      1.10427114072993
  C   1.90715215583424      0.58809556077552     -0.10330527798058
  N   2.80181863894612      1.13558204578661     -0.63274793442350
  N   -0.87271729550954      1.36130422681460     -0.75836854175561
  H   -0.99555934143981      1.89620559336805      0.09009855560128
  H   -0.29212158922811      1.84669482292545     -1.42658276584091
  N   -1.57610575088730     -0.76191473586604      0.07722691978241
  O   -1.64550864281124     -1.93959756975081     -0.26290568161202
  O   -2.30691152688995     -0.17239570965680      0.86376040516566
