14
Coordinates from ORCA-job run
  C   0.88070921937757      0.01596886756682      0.34613179941533
  C   -0.46879331790379     -0.20471214027492     -0.36664422315551
  F   1.08176047433984      1.37795796752761      0.45110386727565
  H   -0.65780873110680     -1.27475918236021     -0.46780979897365
  C   0.93329106438927     -0.57532705755447      1.69153423347593
  N   1.02200943783902     -1.04839061157942      2.76313785721215
  C   1.94664051542427     -0.56724697694746     -0.48294301709298
  N   2.80131813435048     -1.05867614795635     -1.12118375151175
  N   -0.44222878478845      0.45394861741954     -1.61035843127337
  H   -1.22469802442859      0.19359256915625     -2.19422510345032
  H   -0.42200779825820      1.45878534652339     -1.49187074284040
  N   -1.55956349843861      0.29425944832318      0.59786970620507
  O   -1.94676313645546      1.44725972852565      0.44399241486429
  O   -1.94286555434055     -0.50966042836962      1.44226518984956
