14
Coordinates from ORCA-job run
  C   0.84341083013210     -0.04102753971954      0.42840454414888
  C   -0.39270884851604      0.05226064970764     -0.48940258574220
  F   0.58171060420939      0.70275299535458      1.56174505029852
  H   -0.21679976316877     -0.52558306501898     -1.39831520035520
  C   1.16681843156532     -1.41819058630162      0.83018905091890
  N   1.46179228577016     -2.50611115595230      1.16106542691673
  C   1.99388755886325      0.54392725789409     -0.27735285229420
  N   2.92574458592390      0.98260260572317     -0.84154780875365
  N   -0.65974589245212      1.40773719155768     -0.76008673295734
  H   -0.97110381269330      1.89186795633702      0.07230988363333
  H   -1.34220089923923      1.51980128873952     -1.49677322332158
  N   -1.53014200354094     -0.69149135133482      0.23205712098629
  O   -1.57580052733314     -1.90595233865056      0.06126148651018
  O   -2.28586254952057     -0.01159390833589      0.91744584001135
