14
Coordinates from ORCA-job run
  C   0.88050084039668      0.01015274969747      0.34687474944886
  C   -0.47567814943247     -0.21684298764454     -0.35174139714136
  F   1.13026159415155      1.36808536060984      0.34742003915498
  H   -0.70246645824233     -1.28414473173166     -0.37000483212833
  C   0.90927695958747     -0.47685132281421      1.73421763939799
  N   0.97454443254710     -0.86483081093427      2.84117697862756
  C   1.92610406368559     -0.67228380707161     -0.43082220529103
  N   2.76538225026717     -1.23854525833947     -1.02586013286014
  N   -0.42390941579528      0.34172779417272     -1.64289430264702
  H   -1.21520431588556      0.06571181737983     -2.20734620801300
  H   -0.36764367292791      1.35135937244998     -1.60205841030748
  N   -1.54807336079871      0.39498677115266      0.56668303283749
  O   -1.96346756021903     -0.32672014714708      1.46823446324034
  O   -1.88962720733426      1.54719520022036      0.32412058568111
