14
Coordinates from ORCA-job run
  C   0.92448388673082     -0.27656990404736     -0.14115035724005
  C   -0.60539092249268     -0.21496521688176     -0.44402526758783
  F   1.52933891446763     -0.39634289196452     -1.37993170905525
  H   -0.86062855185263     -1.15249266097109     -0.94036352002379
  C   1.38585578139313      0.96918358834756      0.48390969726218
  N   1.74047293392517      1.98877668081094      0.94789175495006
  C   1.28783967438378     -1.43729993566450      0.67921068824209
  N   1.57216193341828     -2.37926336624905      1.32182140043502
  N   -1.02991341000349      0.89966870449283     -1.20748943927071
  H   -0.68013773836193      0.85707709140285     -2.15433618246473
  H   -0.79662567447984      1.78209238730700     -0.76973358931486
  N   -1.32462940302886     -0.21533339572206      0.87601255592558
  O   -1.67739640670607     -1.30549171942997      1.31550977383611
  O   -1.46543101739330      0.87996063856912      1.41267419430618
