14
Coordinates from ORCA-job run
  C   1.00273249799353     -0.34997449404442      0.02035963796791
  C   -0.37317566058921     -0.05522407053125     -0.61735523236986
  F   1.89496003255846     -0.44838739737030     -1.02473866263038
  H   -0.53426568219492     -0.79260951659643     -1.40526234993531
  C   1.43819569475299      0.74333706029133      0.90086110103989
  N   1.80182119040706      1.65316633495602      1.54859227738861
  C   0.99142786673109     -1.63402345364005      0.73805779705967
  N   0.98546442479360     -2.68642968870360      1.25968403311189
  N   -0.40418374328976      1.25500859706555     -1.14606781092966
  H   -1.16330911828284      1.38608637087789     -1.80013244008525
  H   -0.42001166693982      1.97115712019216     -0.42988550425298
  N   -1.46595374277985     -0.31414160794643      0.40918769131506
  O   -1.21115273728867     -0.02199383784100      1.57731145962554
  O   -2.54054935587164     -0.70697141670946     -0.03261199730514
