14
Coordinates from ORCA-job run
  C   0.79669627242392     -0.10599041856053      0.40742154007793
  C   -0.49127625916300      0.07011641562925     -0.45281351033592
  F   0.58037404918040      0.48543466388835      1.63303649461170
  H   -0.32057387966345     -0.37083052000301     -1.43569031481752
  C   1.16980611136993     -1.51181728620348      0.60741978226417
  N   1.47757441415064     -2.63504787000244      0.76453268449173
  C   1.88109237003806      0.61040106611694     -0.28212974049114
  N   2.70550795362791      1.20120505412304     -0.87507499393680
  N   -0.95494043862815      1.40251358127381     -0.55759619051874
  H   -0.45266615500508      1.93666556683325     -1.25189085122631
  H   -0.97831063434468      1.87727891888497      0.33433423117281
  N   -1.55672366433853     -0.77841734451435      0.20574034620010
  O   -2.19518955884737     -0.24889980509387      1.10704128709289
  O   -1.66237058080060     -1.93161202237194     -0.20233076458492
