14
Coordinates from ORCA-job run
  C   0.93485335215027     -0.27691265076354     -0.01369709493724
  C   -0.52354075129908     -0.15899937793543     -0.55678003313522
  F   1.73684157719609     -0.28187510058797     -1.14126048254307
  H   -0.69297018887261     -1.03719909780203     -1.18172764359002
  C   1.28689946515321      0.89184304946020      0.80219728773686
  N   1.56189217253265      1.85433051802155      1.41740678346621
  C   1.15650008645243     -1.52020820319831      0.73278021282017
  N   1.32775192192973     -2.52759090490990      1.31330963278429
  N   -0.81500850909775      1.03375140892761     -1.26311926694093
  H   -0.65654611457971      1.86366024562988     -0.70535126229046
  H   -0.31035403938010      1.07993847803299     -2.13724155706205
  N   -1.45192939653480     -0.27894520859502      0.61907715169260
  O   -1.87620577892043     -1.40073962846649      0.87915948003109
  O   -1.67718379672987      0.75894647218645      1.23524679196778
