14
Coordinates from ORCA-job run
  C   0.93571179245626     -0.25268904659839     -0.10887807196589
  C   -0.58618782531180     -0.24258570571352     -0.45469045097016
  F   1.57818163194054     -0.38527758639235     -1.32738513866348
  H   -0.80100449216329     -1.19793774480556     -0.93594309701443
  C   1.34384047933832      1.02096584818315      0.49667093854022
  N   1.65527678532686      2.06148153880736      0.94489053546639
  C   1.30870294628658     -1.38182211498644      0.75010615898042
  N   1.59865180186953     -2.29931368075307      1.42478124077346
  N   -1.02074589219109      0.84092482859523     -1.25647732827126
  H   -0.64756309105805      0.78264513282068     -2.19357990490780
  H   -0.81971146460598      1.74048479176148     -0.83761048610487
  N   -1.34179417238158     -0.23313300001154      0.84480684536933
  O   -1.52587174279558      0.86961075489204      1.35232350971459
  O   -1.67848675671071     -1.32235401579907      1.29898524905348
