14
Coordinates from ORCA-job run
  C   0.83376023653458     -0.08986203704116      0.43899749674466
  C   -0.38268753634817      0.12390724545321     -0.48440588591267
  F   0.52219326022417      0.44257154301645      1.67406685810664
  H   -0.16722946105225     -0.28642502637181     -1.47242037744707
  C   1.19284503977423     -1.50551335287800      0.61087891671393
  N   1.51814082179179     -2.62402686581955      0.76323770334305
  C   1.98087240954081      0.63839540115922     -0.12477694030257
  N   2.91168314574343      1.19019752441039     -0.58113497192141
  N   -0.68709787796059      1.49752043191012     -0.52960412253478
  H   -1.35692588661464      1.71348352046691     -1.25466188750159
  H   -1.03142763512588      1.82513961893881      0.36392145205124
  N   -1.51260050561267     -0.76310778492101      0.06812941699191
  O   -1.51348711685247     -1.93228243966588     -0.30507174901300
  O   -2.30803889404234     -0.22999777865771      0.83384409068167
