14
Coordinates from ORCA-job run
  C   1.02694744056514     -0.26259378468051      0.05599785903868
  C   -0.36200527042173     -0.14971072987533     -0.61186033459309
  F   1.93399617267016     -0.41101002103384     -0.97014853193032
  H   -0.45216505986728     -0.97425416504261     -1.32055456042045
  C   1.37147141962300      0.95294235259776      0.80691501938666
  N   1.66284215897729      1.95392136628196      1.34781793986167
  C   1.10395536381489     -1.45237448244646      0.91777936599880
  N   1.16032617372997     -2.43102634183876      1.56501663548422
  N   -0.49475891331512      1.09436262977495     -1.26856310277312
  H   -0.57943396381694      1.87337840036602     -0.62667251571845
  H   -1.25147795234081      1.09702206621828     -1.93825993802748
  N   -1.43565152304916     -0.39607140461449      0.43630640122570
  O   -2.43051107535232     -1.01179532922458      0.06785175920461
  O   -1.25253497121709      0.11820944351763      1.53937400326256
