14
Coordinates from ORCA-job run
  C   0.92686865081331     -0.28516868895850     -0.10365326188058
  C   -0.59214106842133     -0.22442140666818     -0.45688941194136
  F   1.57016999993154     -0.44324043480162     -1.31862890818066
  H   -0.83703399095956     -1.17395638695986     -0.93530364152468
  C   1.37545712891206      0.97562628365924      0.50014959051061
  N   1.72111720658917      2.00635024959934      0.94586607172985
  C   1.25721580121064     -1.42384983875407      0.76034656693881
  N   1.51451344378002     -2.34855031747331      1.43841784562951
  N   -0.98557792192766      0.87056417636176     -1.26426326373962
  H   -0.60507454608962      0.80028688044181     -2.19750898345848
  H   -0.76189786549544      1.76370312398401     -0.84349486032140
  N   -1.35305685998163     -0.18438255017438      0.83888427152923
  O   -1.72700721501266     -1.26000340240009      1.29631341411282
  O   -1.50355276334882      0.92604231214386      1.34076457059596
