11

C	-0.469575	-0.019913	-1.421288
C	0.0	0.0	0.0
F	-1.861182	0.108565	-1.491822
H	1.092179	0.0	0.0
H	-0.193022	-0.955168	-1.90477
H	-0.024449	0.823172	-1.953537
H	-0.375744	0.860914	0.549567
N	-0.469027	-1.2012	0.742404
O	-0.830783	-1.040118	1.907177
O	-0.442998	-2.283892	0.160169
Br	3.510237	0.0	0.0
