11

C	-0.470716	0.04238	-1.420672
C	0.0	0.0	0.0
F	-1.862646	-0.080593	-1.491961
H	1.092158	0.0	0.0
H	-0.029248	-0.794963	-1.965313
H	-0.19002	0.983723	-1.891414
H	-0.377466	-0.867939	0.538049
N	-0.466005	1.192463	0.759682
O	-0.429285	2.284096	0.195078
O	-0.835205	1.01416	1.919759
Br	3.509851	0.0	0.0
