11

C	-0.470764	0.001895	-1.421093
C	0.0	0.0	0.0
F	-1.862711	0.123863	-1.488309
H	1.092159	0.0	0.0
H	-0.189071	-0.923528	-1.920398
H	-0.030672	0.856412	-1.939451
H	-0.376242	0.851403	0.563895
N	-0.466289	-1.213852	0.722895
O	-0.435606	-2.287742	0.123952
O	-0.830667	-1.072416	1.889371
Br	3.505725	0.0	0.0
