13

C	-0.519326	-0.086779	-1.415505
C	0.0	0.0	0.0
Cl	-0.115593	1.405287	-2.305199
H	1.089981	0.0	0.0
H	-1.600961	-0.209573	-1.457186
H	-0.008812	-0.90919	-1.907197
N	-0.444475	-1.187585	0.758352
O	-0.622786	-1.071597	1.969222
O	-0.540069	-2.245323	0.130673
N	-0.590914	1.17307	0.702697
O	-1.803798	1.354911	0.556967
O	0.148918	1.876305	1.380765
F	2.478026	0.0	0.0
