13

C	-0.264271	-0.044841	-1.47225
C	0.0	0.0	0.0
Cl	-1.997174	-0.130306	-1.951431
H	1.091085	0.0	0.0
H	0.236872	-0.930788	-1.860431
H	0.162138	0.848077	-1.918994
N	-0.578265	-1.193849	0.659121
O	-1.670381	-1.105278	1.217639
O	0.057455	-2.237676	0.521855
N	-0.458872	1.23481	0.65868
O	-0.650817	2.221514	-0.054697
O	-0.504375	1.240313	1.886284
F	2.464008	0.0	0.0
