13

C	-0.284744	0.103831	-1.463237
C	0.0	0.0	0.0
Cl	-2.023724	0.255089	-1.897729
H	1.091087	0.0	0.0
H	0.223141	0.993945	-1.825303
H	0.10779	-0.779736	-1.956308
N	-0.434782	-1.263954	0.614976
O	-0.73433	-2.193773	-0.141316
O	-0.353884	-1.353007	1.836522
N	-0.555742	1.172074	0.70614
O	-0.043815	2.247981	0.396698
O	-1.50161	1.038803	1.480957
F	2.456588	0.0	0.0
