13

C	-0.52932	0.083985	-1.409302
C	0.0	0.0	0.0
Cl	0.162568	-1.204393	-2.427709
H	1.086955	0.0	0.0
H	-1.613421	-0.017775	-1.450461
H	-0.202395	1.033065	-1.823316
N	-0.511613	-1.19402	0.71855
O	-1.506889	-1.770958	0.268328
O	0.098066	-1.53241	1.728217
N	-0.467353	1.194801	0.745982
O	-1.013341	1.0564	1.839796
O	-0.24891	2.279771	0.205941
F	2.467544	0.0	0.0
