13

C	-0.371606	0.040755	-1.446019
C	0.0	0.0	0.0
Cl	-2.130291	-0.157556	-1.783428
H	1.09391	0.0	0.0
H	0.149742	-0.774525	-1.940645
H	-0.065565	0.995848	-1.860608
N	-0.499498	-1.242164	0.627451
O	-0.172292	-2.272777	0.040328
O	-1.19633	-1.200437	1.63803
N	-0.41963	1.191891	0.762859
O	-0.104507	1.229347	1.94821
O	-0.962875	2.116045	0.148855
F	2.456137	0.0	0.0
