14

C	-0.563719	-0.155757	-1.419209
C	0.0	0.0	0.0
Cl	-0.402311	1.388312	-2.319415
H	1.09758	0.0	0.0
H	-1.634557	-0.38532	-1.400362
C	0.113985	-1.188254	-2.205639
N	0.595071	-1.972934	-2.933943
N	-0.43091	-1.188477	0.774184
O	-0.694482	-2.230766	0.160001
O	-0.478458	-1.094435	2.00404
N	-0.410119	1.215465	0.647477
H	-1.039063	1.024094	1.415065
H	0.429382	1.62267	1.040491
F	2.500794	0.0	0.0
