14

C	-0.56939	-0.191202	-1.413134
C	0.0	0.0	0.0
Cl	-0.362531	1.307838	-2.372483
H	1.101128	0.0	0.0
H	-1.646626	-0.386012	-1.38467
C	0.068402	-1.274233	-2.162577
N	0.519191	-2.120792	-2.840644
N	-0.435816	-1.16309	0.815357
O	-0.735959	-2.211737	0.233775
O	-0.451097	-1.03589	2.041449
N	-0.396111	1.237305	0.606118
H	-1.108213	1.097446	1.310236
H	0.42617	1.61249	1.060299
F	2.500288	0.0	0.0
