14

C	-0.580246	-0.056623	-1.420156
C	0.0	0.0	0.0
Cl	-0.366786	1.521549	-2.242651
H	1.094421	0.0	0.0
H	-1.659267	-0.243007	-1.400397
C	0.040947	-1.075598	-2.26783
N	0.484949	-1.860748	-3.020983
N	-0.436254	-1.242877	0.703038
O	-0.432073	-1.231532	1.935479
O	-0.764198	-2.225185	0.028751
N	-0.394509	1.169217	0.723845
H	0.395379	1.451387	1.286344
H	-1.176033	0.992717	1.339664
F	2.504266	0.0	0.0
