14

C	-0.546596	-0.159516	-1.409572
C	0.0	0.0	0.0
Cl	0.240617	-1.416752	-2.407035
H	1.104258	0.0	0.0
H	-0.31091	0.786483	-1.894535
C	-1.999752	-0.332347	-1.442444
N	-3.171234	-0.417005	-1.457465
N	-0.464549	-1.096493	0.88857
O	-0.58995	-0.846726	2.090655
O	-0.657284	-2.206309	0.391794
N	-0.366908	1.299743	0.50429
H	-1.147394	1.235584	1.146573
H	0.430104	1.62734	1.034135
F	2.505238	0.0	0.0
