14

C	-0.539886	-0.14294	-1.436756
C	0.0	0.0	0.0
Cl	-0.704552	1.447367	-2.244681
H	1.101219	0.0	0.0
H	-1.540891	-0.583814	-1.445268
C	0.316741	-0.978587	-2.279488
N	0.920835	-1.640663	-3.038014
N	-0.398197	-1.249017	0.713767
O	-0.509987	-2.285422	0.048577
O	-0.553899	-1.19854	1.935725
N	-0.419548	1.171909	0.68721
H	0.323686	1.430625	1.323391
H	-1.269073	1.026396	1.219832
F	2.499783	0.0	0.0
