18

C	0.0	0.0	0.0
C	-0.342073	0.019735	-1.533888
Cl	1.802052	0.0	0.0
H	0.318079	0.780187	-1.970212
C	-0.507462	1.274585	0.647343
H	-0.152777	1.339139	1.678325
H	-0.154371	2.156477	0.104483
H	-1.601694	1.259664	0.652766
C	-0.535023	-1.230584	0.701974
H	-0.284107	-1.195661	1.764648
H	-0.123149	-2.14559	0.272504
H	-1.626655	-1.237699	0.607029
N	-1.688851	0.336513	-1.945162
H	-2.404809	-0.187177	-1.441306
H	-1.886535	1.308719	-1.745155
C	0.054492	-1.262474	-2.146208
N	0.350112	-2.274007	-2.664104
Br	-4.366105	0.0	0.0
