18

C	0.0	0.0	0.0
C	-0.529404	-0.165467	-1.428894
Cl	1.795466	0.0	0.0
H	-1.625154	-0.157961	-1.306826
C	-0.468791	1.325261	0.580108
H	-0.10931	1.424163	1.606954
H	-1.563172	1.329947	0.57816
H	-0.092967	2.169892	-0.001576
C	-0.472745	-1.164979	0.854564
H	-0.119293	-2.109153	0.442452
H	-1.566584	-1.156592	0.866665
H	-0.097242	-1.046343	1.874157
N	-0.134374	-1.439042	-2.019065
H	-0.727026	-1.630749	-2.81689
H	0.824386	-1.381611	-2.34228
C	-0.159254	0.985147	-2.276708
N	0.11985	1.869279	-2.999412
Br	-3.967238	0.0	0.0
