18

C	0.0	0.0	0.0
C	-0.511813	0.357992	-1.412835
Cl	1.802444	0.0	0.0
H	-1.606056	0.423862	-1.298143
C	-0.464177	1.043658	1.002725
H	-0.077862	2.033223	0.74751
H	-1.558573	1.059179	0.997105
H	-0.110538	0.781887	2.00348
C	-0.481479	-1.383569	0.394678
H	-1.576961	-1.380617	0.380835
H	-0.133956	-1.622569	1.402644
H	-0.098426	-2.146408	-0.285962
N	-0.228881	-0.596584	-2.475889
H	-0.871111	-1.372742	-2.383115
H	0.717964	-0.944755	-2.383215
C	-0.021141	1.683202	-1.820803
N	0.37637	2.736891	-2.153425
Br	-3.935712	0.0	0.0
