18

C	0.0	0.0	0.0
C	-0.324406	0.359599	-1.493246
Cl	1.802215	0.0	0.0
H	0.249695	1.272156	-1.702621
C	-0.535976	1.076936	0.919097
H	-1.629667	1.038601	0.895874
H	-0.191764	2.06824	0.610424
H	-0.20528	0.90069	1.945593
C	-0.530851	-1.364914	0.384187
H	-1.624266	-1.336598	0.320237
H	-0.254142	-1.60066	1.414999
H	-0.139122	-2.147382	-0.269323
N	-1.690982	0.600022	-1.880108
H	-2.077487	1.387854	-1.375382
H	-2.310513	-0.171474	-1.649809
C	0.227874	-0.681879	-2.383143
N	0.626144	-1.513828	-3.10945
Br	-4.325786	0.0	0.0
