15
Coordinates from ORCA-job run
  C   0.80730642167716      0.64625438621905      0.13401028871575
  C   -0.42877640100171      0.12086585206039      0.05189342793945
  H   0.88010496000828      1.69841664127195      0.41156847871273
  C   2.12195243426656     -0.03452180946319     -0.10890485037366
  H   2.67202531408108      0.46475421427531     -0.91276765843413
  H   2.01539723183611     -1.08413280652072     -0.38083189420509
  H   2.75290477395012      0.01685549761578      0.78401122993797
  C   -1.64180484294036      0.96719470427710      0.33527840042575
  H   -2.22503043985355      0.54823000382247      1.16259233327140
  H   -1.36830091819786      1.99184290887968      0.59495112753584
  H   -2.30670427369246      1.00018812615337     -0.53473563060577
  C   -0.74122206090735     -1.30484744876323     -0.31367079871442
  H   -1.38081957186221     -1.33758072863393     -1.20226283785206
  H   -1.30116078960727     -1.78966976797208      0.49327223030608
  H   0.14512816224346     -1.90484977322197     -0.51540384665983
