15

C	-0.601734	-0.253605	-1.358215
C	0.0	0.0	0.0
F	0.079477	-1.25613	-1.989062
H	1.094422	0.0	0.0
H	-1.66348	-0.486778	-1.354249
N	-0.432541	0.944461	-2.262366
O	-1.239934	1.023597	-3.186125
O	0.530797	1.678592	-2.078251
N	-0.348167	-1.065339	0.917359
O	-0.915105	-2.073141	0.446231
O	0.035998	-0.949581	2.089601
N	-0.455412	1.266989	0.548344
O	-1.433269	1.807667	-0.008084
O	0.157516	1.731523	1.51313
H	2.328735	0.0	0.0
