15

C	-0.345704	0.068094	-1.464733
C	0.0	0.0	0.0
F	-0.088672	1.285256	-2.00388
H	1.105804	0.0	0.0
H	0.226707	-0.688973	-1.992967
N	-1.801549	-0.253431	-1.764053
O	-2.666789	0.394747	-1.184064
O	-2.001056	-1.136187	-2.599524
N	-0.408733	-1.290881	0.521528
O	-0.944532	-1.407107	1.625384
O	-0.105134	-2.241438	-0.22055
N	-0.369833	1.115893	0.858688
O	0.065053	1.04463	2.012333
O	-0.936115	2.102722	0.374773
H	2.3377	0.0	0.0
