15

C	-0.462561	0.127179	-1.421395
C	0.0	0.0	0.0
F	-1.770002	0.481036	-1.550065
H	1.106293	0.0	0.0
H	0.158423	0.87315	-1.920155
N	-0.24648	-1.155847	-2.194034
O	-1.0818	-1.447783	-3.038744
O	0.802651	-1.743374	-1.966353
N	-0.476935	-1.184372	0.681719
O	0.021044	-1.420409	1.786694
O	-1.276515	-1.925985	0.085638
N	-0.317145	1.226586	0.711441
O	-0.717619	1.200345	1.877283
O	-0.047986	2.259031	0.076265
H	2.32525	0.0	0.0
