16
Coordinates from ORCA-job run
  C   0.97824171200359     -0.34034680625405      0.06759628087485
  C   -0.52417997234625     -0.41838791853126     -0.26885266041426
  Cl  1.74353073236345     -1.92371886191488     -0.14558171658473
  H   -0.56732498575496     -0.79584152126607     -1.29976634661887
  N   1.61344817013915      0.63137853706443     -0.93431983405449
  O   2.02354364423518      1.69814823837334     -0.49444604417013
  O   1.57845602948620      0.27903813498344     -2.10440929010741
  C   1.20917850380968      0.13917712963683      1.42144955224358
  N   1.36957170287290      0.52192435701109      2.52068702867037
  C   -1.15827114848857      0.96304433380795     -0.19670553980275
  H   -2.21494247369580      0.88264511288257     -0.46400678384206
  H   -0.69992581789831      1.66670028837343     -0.89255188161284
  H   -1.08765189157261      1.36539366992010      0.81638312458156
  N   -1.13265466030387     -1.29420162538583      0.71354774034962
  H   -1.00803646073561     -2.26771731862815      0.46903688223671
  H   -2.12298308411419     -1.10623575007294      0.79193948825085
