16
Coordinates from ORCA-job run
  C   0.98468355495229     -0.32590952337721      0.05709731413394
  C   -0.51969747782766     -0.42479571250282     -0.26600603793392
  Cl  1.77038668943027     -1.89755625576930     -0.16456491330957
  H   -0.56703761810530     -0.79748825155471     -1.29833104860069
  N   1.59665442750109      0.65610665273251     -0.94904413694885
  O   1.99477964662417      1.72845839663772     -0.51177407122786
  O   1.55660880479846      0.30427253263838     -2.11912225752706
  C   1.21988399908163      0.15625902028277      1.40923291050307
  N   1.38181197526390      0.54356749975310      2.50671564420092
  C   -1.17479354038893      0.94598880367356     -0.17873142033322
  H   -1.10950569529149      1.33677310065146      0.83928238856453
  H   -2.23024535542449      0.85164645512353     -0.44604538303425
  H   -0.72791851177664      1.66552006939328     -0.86568095911351
  N   -1.10569457432947     -1.31575535219297      0.71689431945568
  H   -2.09699900349840     -1.13950306943629      0.80937206364763
  H   -0.97391732100942     -2.28558436605299      0.46170558752317
