16
Coordinates from ORCA-job run
  C   0.87495111585655      0.17004264611977      0.38446977481301
  C   -0.46643247424867     -0.08134144724178     -0.33420972605394
  Cl  0.86070792074567     -0.43964817766684      2.03555573428055
  H   -0.31602766568589      0.33680189749641     -1.33412695753569
  N   1.94817153962438     -0.57620892921385     -0.44648740741335
  O   2.54155266853857     -1.51046517376271      0.05253476093585
  O   2.06683957167709     -0.12928602409502     -1.57962164380965
  C   1.23213080179259      1.58281582913483      0.37817999312285
  N   1.47056777969038      2.73375689856659      0.36714126049906
  C   -1.62008620191239      0.64238210992854      0.34970887892583
  H   -1.43651078318735      1.71572047002958      0.44213162102005
  H   -2.52574511548371      0.50266866682731     -0.24467870022207
  H   -1.80068118400070      0.23444025828569      1.34636460557328
  N   -0.60798497217174     -1.51778550607121     -0.48034574144424
  H   -1.03228368521377     -1.92702667582496      0.34317969205397
  H   -1.18716931602102     -1.73586684251235     -1.27979614474550
