16
Coordinates from ORCA-job run
  C   0.86935166379879      0.15776134831904      0.39975576170915
  C   -0.46643478227330     -0.05975583851945     -0.33923954406796
  Cl  0.88728877932836     -0.63272173236819      1.97254225426089
  H   -0.33748935461086      0.47304493290686     -1.28618820842694
  N   1.96347462902218     -0.45282349599989     -0.51206344415720
  O   2.05723446569360      0.11924305914680     -1.58975688782963
  O   2.59299261747046     -1.41429850924100     -0.12072832299278
  C   1.17836537838037      1.57372783640768      0.55080493040599
  N   1.38823671780761      2.72563455725708      0.65483604070527
  C   -1.64082779151562      0.54134817073999      0.42406166929308
  H   -1.49473667381804      1.60350089318155      0.63546920527930
  H   -2.54432787366159      0.43669214501120     -0.18065184330700
  H   -1.80082122666180      0.01796457173357      1.36881066751392
  N   -0.55814241403011     -1.47473928540968     -0.64484417690318
  H   -1.13471048944020     -1.62332648959383     -1.46189377909368
  H   -0.96045364548985     -1.98925216357172      0.12908567761077
