16
Coordinates from ORCA-job run
  C   0.93747475637983     -0.35223681760112      0.02405313912060
  C   -0.57564066878922     -0.41873626859654     -0.33989470628548
  Cl  1.71444132818018     -1.91791639520828     -0.25354371656474
  H   -0.59599898291731     -0.79134926816568     -1.36911192450082
  N   1.58938995590884      0.67624103626272     -0.89949245664902
  O   1.97607829941713      1.71913976716700     -0.38591166538547
  O   1.58567038803910      0.39189828300843     -2.08829004563937
  C   1.12386162052308      0.04941417188584      1.41008790991693
  N   1.17138501050055      0.32685485490055      2.55152487813915
  C   -1.19404050276412      0.97094545869686     -0.27880447900933
  H   -1.09932536426348      1.40411113758957      0.72097829500949
  H   -2.25498198669743      0.87506198420470     -0.51069568358148
  H   -0.74552859812494      1.65788090263497     -0.99723312428296
  N   -1.32333566231535     -1.32456189943108      0.49343154457366
  H   -0.95150133407552     -2.26480532788793      0.46932833004085
  H   -1.35794825900136     -1.00294161946002      1.45357370509801
