16
Coordinates from ORCA-job run
  C   0.81682038142006      0.19988245476455      0.37391299202945
  C   -0.53781142816419     -0.07873973393495     -0.35826146928531
  Cl  0.77920470139316     -0.33043535161137      2.05031879033646
  H   -0.37565410469315      0.30918715374401     -1.36981307255773
  N   1.87329542108046     -0.60133991970435     -0.40854317489004
  O   2.28656284052100     -1.64733324448391      0.06251287722184
  O   2.12848774225699     -0.12999952653270     -1.51059295089710
  C   1.19062767569327      1.60415591186402      0.30122006714737
  N   1.43236038496320      2.75319924021263      0.24087841929832
  C   -1.67110782251610      0.69007791454371      0.30212680866358
  H   -2.56493478485547      0.56650565514529     -0.30962296471047
  H   -1.88254672100546      0.29568771806445      1.29788216881172
  H   -1.44579664247401      1.75452827566499      0.38967394547492
  N   -0.86875277472091     -1.47416687697527     -0.46454612042725
  H   -0.21927855547682     -1.99439368990889     -1.03936109904993
  H   -0.94147631342205     -1.91581598085222      0.44321478283418
