16
Coordinates from ORCA-job run
  C   1.03478400299093     -0.26748046394858      0.11395967761098
  C   -0.43390623649730     -0.52451522876063     -0.29371562499497
  Cl  2.00960665346828     -1.72480830079130     -0.05425775587599
  H   -0.37300031631840     -0.99933731614882     -1.27718040947838
  N   1.59095642001445      0.79402710358763     -0.84051788097471
  O   1.86732840736018      1.88856730475160     -0.36555170126997
  O   1.63870735020103      0.46567195668788     -2.01695592489531
  C   1.10926810675820      0.22890261348605      1.48118822095818
  N   1.07699837055359      0.59239072689361      2.59835976560967
  C   -1.20934274021945      0.78734100342401     -0.39404269011247
  H   -0.81802573369592      1.45458744882520     -1.16426976688063
  H   -1.20230582678517      1.31853789625788      0.56234455759957
  H   -2.24631086616533      0.55787320207582     -0.64757672264330
  N   -0.97462996587058     -1.47539972755118      0.65694329054687
  H   -1.43140816605561     -1.00079143021657      1.42605199726145
  H   -1.63971945973892     -2.09456678857262      0.21622096753903
