16
Coordinates from ORCA-job run
  C   0.98311098405316     -0.27353714586860     -0.22069032787087
  C   -0.55003692239982     -0.41458806282412     -0.08779393094709
  Cl  1.55540415382753     -0.33984340037721     -1.90087221953217
  H   -0.72727020815742     -1.48216642695812     -0.25961219758879
  N   1.46596764951073      1.06687705594564      0.34979397486771
  O   0.71816491654299      2.02430802578030      0.20255824789498
  O   2.57472164822352      1.07610861082853      0.86299637699203
  C   1.63108686242201     -1.33272489217040      0.54654350325550
  N   2.09379444120102     -2.24690274647408      1.12152389828842
  C   -1.39818166962748      0.36558040260971     -1.08678292330911
  H   -1.17762190995072      0.08981666288201     -2.11828652534067
  H   -2.44552498095371      0.12369287046527     -0.89035648702830
  H   -1.25960469844732      1.43886311030265     -0.97229365493393
  N   -0.81767396943307     -0.13305516891661      1.31495319529035
  H   -1.15140284484453      0.81441996434478      1.43711822556876
  H   -1.49393345196688     -0.77584885956973      1.70120084439319
