16
Coordinates from ORCA-job run
  C   0.84601687987781      0.36349769442288      0.23759445512348
  C   -0.50751445284990     -0.21256203768996     -0.22805682413109
  Cl  1.06456699303950      0.23650013961997      1.97554539966148
  H   -0.54569505829698     -0.00695545686849     -1.30359041668382
  N   1.98296076747829     -0.42458159870528     -0.47379253671257
  O   1.69816816445402     -0.85083906430004     -1.58651894977958
  O   3.05976992021086     -0.50182284394087      0.08858379270033
  C   1.01410132596802      1.75004790018962     -0.18640515518128
  N   1.10234896475934      2.86167359210719     -0.55904994254898
  C   -1.66334861559392      0.50311008384925      0.45339899412604
  H   -1.69657164212848      0.25387939746066      1.51522434555478
  H   -1.58808365183439      1.58735176455550      0.35209982463084
  H   -2.60007107999773      0.18498494433702     -0.00976920248752
  N   -0.50290167689571     -1.63219141940123      0.06175772585696
  H   -1.39521614645420     -1.93905510269582      0.42149045394446
  H   -0.26953069173654     -2.17203799294037     -0.75951196407351
