16
Coordinates from ORCA-job run
  C   0.93036970246469     -0.34140616626962     -0.37457697655742
  C   -0.59399349343224     -0.37697551869269     -0.09867551278133
  Cl  1.28430588534032     -0.52760169813566     -2.09598264694004
  H   -0.91144461020974     -1.34985444803120     -0.50440003346654
  N   1.50192599574104      0.99460541106664      0.11522531159872
  O   2.13055815242978      0.96962859466448      1.16320394220781
  O   1.23659699380496      1.97283952578614     -0.56767996991354
  C   1.58054032334012     -1.41717401169847      0.36583594805511
  N   2.01317610542623     -2.34617728103137      0.94126102317195
  C   -1.37910248358737      0.72399117906489     -0.79435939800481
  H   -1.13010435562676      0.80542844521695     -1.85082648051022
  H   -2.44351530644123      0.48982526064908     -0.71070059456010
  H   -1.19344304331417      1.68631717514150     -0.31713641913830
  N   -0.74684377710958     -0.25609800112183      1.33929134451518
  H   -1.65684605630987      0.11503318278116      1.57579479821017
  H   -0.62218003251616     -1.14138164939000      1.81372566411336
