16
Coordinates from ORCA-job run
  C   0.93197949173829     -0.36640230364375      0.02170424148436
  C   -0.58181239917117     -0.40561555424691     -0.34437995208000
  Cl  1.68369637732514     -1.94169278880059     -0.26994799675882
  H   -0.60653917489389     -0.76774051473173     -1.37723458155428
  N   1.60123772269004      0.65985834713810     -0.89196595446648
  O   2.00267924078174      1.69229522119308     -0.36858965635597
  O   1.59601667694872      0.38605859827768     -2.08316495042878
  C   1.12333739636260      0.02028975260233      1.41121243265759
  N   1.17510110886662      0.28716942269941      2.55492883578070
  C   -1.17947176338668      0.99222808161776     -0.26917849556993
  H   -1.08460644032637      1.41052761329424      0.73701951243245
  H   -2.24034792912375      0.91489185283764     -0.50845957423384
  H   -0.71639353814393      1.68224508502934     -0.97539249866608
  N   -1.34398705738282     -1.30870051986398      0.47877150511265
  H   -1.37259892304844     -0.99856584593937      1.44303591874080
  H   -0.98829078923610     -2.25484644746325      0.44264121390563
