16
Coordinates from ORCA-job run
  C   0.90576815072686     -0.44829268090806     -0.23186014916045
  C   -0.66690956740253     -0.42585544591600     -0.15477951751756
  Cl  1.45396468148986     -0.97903071116975     -1.81745543831064
  H   -0.95634266902538     -1.38391371126689     -0.59899715558608
  N   1.38939974963145      0.97910238216388      0.04704518686429
  O   1.72588549063881      1.68153126933512     -0.89026177649547
  O   1.28919143901348      1.31233207426311      1.22481892867028
  C   1.45768688815634     -1.31750914894967      0.79671758558833
  N   1.83724960296088     -2.06598895989031      1.61985342548174
  C   -1.22440602389637      0.71538597755753     -0.99283973071307
  H   -2.30439042598555      0.58859510402025     -1.06460887886273
  H   -0.79841709014830      0.74069996284849     -1.99573490901362
  H   -1.03259652845560      1.67776671142303     -0.51025807322247
  N   -1.20858243548278     -0.37137333854153      1.17589547399705
  H   -0.94054904091924     -1.17274285896988      1.73315615662529
  H   -0.92595222130192      0.47129337400069      1.66030887165510
