16
Coordinates from ORCA-job run
  C   0.84559614663159      0.34286107723443      0.32878870296352
  C   -0.45372410731557     -0.19424039071414     -0.30487363405241
  Cl  0.92015911832688      0.01309294096310      2.05620276084903
  H   -0.36533999049522      0.07267599173003     -1.36229360506730
  N   2.00458551990048     -0.38291357305886     -0.39940669078561
  O   2.05721685474474     -0.11518598205615     -1.59236610572274
  O   2.71812340502062     -1.13911054799993      0.22740868602131
  C   1.01400464073359      1.76999652154444      0.08714233557592
  N   1.10272168803499      2.92504182078359     -0.11233043599917
  C   -1.69012541816554      0.47414851668713      0.28467856248014
  H   -2.57162216681756      0.12388437258295     -0.25682689365404
  H   -1.81067781135390      0.21164785365155      1.33759384831879
  H   -1.64998751156978      1.56292560953524      0.20025475416268
  N   -0.40397644069047     -1.64124547176532     -0.21555349799861
  H   -0.76446914168594     -1.96357844773736      0.67424172106941
  H   -0.95348478529893     -2.06000029138070     -0.95366050816091
