16
Coordinates from ORCA-job run
  C   1.00355779001245     -0.14419241497024     -0.23555491511545
  C   -0.50724101139828     -0.45278005811900     -0.15176384882802
  Cl  1.58542569151992      0.06711623704954     -1.90060897770044
  H   -0.57454942070686     -1.49760556097808     -0.47539046697725
  N   1.35271357050347      1.15136673584984      0.51173946751245
  O   2.47812849736687      1.22125180944903      0.98205519835276
  O   0.49325029677863      2.02215478918214      0.53455118924923
  C   1.75404898967701     -1.22373217812134      0.39828478087505
  N   2.31275019822326     -2.15000123756213      0.85697963311227
  C   -1.42288769856965      0.37230342859293     -1.05078412983905
  H   -1.38272685370076      1.42969942576383     -0.79674285808191
  H   -2.44407598048805      0.01390490177997     -0.89966169919004
  H   -1.17860836941447      0.25324067487356     -2.10674720362241
  N   -0.81075009977254     -0.40390533861917      1.27080215392125
  H   -1.22031536654430      0.48672954693464      1.52228871123186
  H   -1.43972023348671     -1.14655076110552      1.54055296509972
