16
Coordinates from ORCA-job run
  C   0.97376379142476     -0.38466198153408     -0.16919203820548
  C   -0.57510795249531     -0.40230500117583     -0.10725869675280
  Cl  1.56690740622275     -0.88326324629371     -1.75748536275381
  H   -0.83599247103308     -1.44114611594041     -0.36131802476271
  N   1.47485611379813      1.03194691521049      0.13402848056694
  O   1.31399332270194      1.85806980508988     -0.75219959616447
  O   1.94401054912790      1.21917018104679      1.24718888897167
  C   1.50679408049464     -1.28776878515796      0.84477243707482
  N   1.84952842322161     -2.08337715167277      1.63911107093790
  C   -1.24908544154353      0.52955948969949     -1.10223506877857
  H   -0.85290339705469      0.41531981620450     -2.10958394534323
  H   -1.12796878773353      1.56881909026480     -0.79623465544346
  H   -2.31561245099806      0.29134501224716     -1.12450010065607
  N   -0.92996638548764     -0.01796740990278      1.24565431035653
  H   -1.85744736366845      0.38222825223646      1.27805574628843
  H   -0.88576943697745     -0.79596887032206      1.89119655466432
