16
Coordinates from ORCA-job run
  C   0.96561005702708     -0.31606948561244     -0.29992953284576
  C   -0.56577951380464     -0.41946707459103     -0.08597080751402
  Cl  1.41187984170931     -0.63968739890690     -1.97915386072987
  H   -0.80752904261539     -1.44415962285993     -0.40766231175979
  N   1.43585391783791      1.09140115715878      0.08322051891583
  O   1.14505062177199      1.98442713656603     -0.69883162489685
  O   2.01725577647194      1.20213748732341      1.15278980467028
  C   1.63913293076350     -1.27765244056770      0.56618634976411
  N   2.09341622588711     -2.12384609979620      1.24350865296014
  C   -1.37941856298929      0.55906378674285     -0.91838263608381
  H   -2.43106391023326      0.26733914987488     -0.85706885782053
  H   -1.08487304106242      0.55399600073596     -1.96627727040320
  H   -1.27316562636919      1.57267001452920     -0.53179903855344
  N   -0.79308187189928     -0.17276231820392      1.32577988884718
  H   -0.64147813653926     -1.00026312208092      1.88858710718656
  H   -1.73280966595614      0.16287282968794      1.48700361826316
