16
Coordinates from ORCA-job run
  C   0.90894738842851     -0.38134576801975     -0.32247284036883
  C   -0.65156120851644     -0.45807327038400     -0.12659838555901
  Cl  1.36127646658484     -0.80002852548046     -1.97069380180011
  H   -0.91943385535396     -1.41025509918783     -0.59642781780209
  N   1.33160762628297      1.05734062025700     -0.00501059203738
  O   1.30818892838336      1.32544219996127      1.19321091683385
  O   1.55107468498839      1.82433848860201     -0.92628181917238
  C   1.58769711727678     -1.26451874464319      0.61424076844075
  N   2.07230659229634     -2.02618025386124      1.36713180859337
  C   -1.33722584591688      0.68514789940408     -0.86037961779995
  H   -1.16227790493572      1.63400847737144     -0.34556557748623
  H   -0.99429342778372      0.78265714780835     -1.89036199095560
  H   -2.41063721856033      0.49703938955957     -0.85558410769291
  N   -1.08984748275443     -0.49895928830925      1.24215126017668
  H   -0.73038021144215     -1.30535830883370      1.73731609762410
  H   -0.82244164897756      0.33774503575569      1.74532569900576
