16
Coordinates from ORCA-job run
  C   0.94325430232864     -0.24302512948540     -0.35400382557020
  C   -0.60309847263926     -0.49622112767901     -0.20150126880916
  Cl  1.44443355386017     -0.38104832946139     -2.03529994912736
  H   -0.77358756512096     -1.39466512365951     -0.80391847222030
  N   1.22111678269971      1.17097750172070      0.16836662336860
  O   1.37114570821694      2.07669827569898     -0.63313397585563
  O   1.16379923259215      1.26534504573857      1.39147599723563
  C   1.70008610318437     -1.17928189426899      0.46376221399868
  N   2.25378943302717     -1.98883549785448      1.11174233359444
  C   -1.39340451896003      0.66684280956424     -0.78296174277804
  H   -1.31538587715077      1.54687856330903     -0.13841435817591
  H   -2.44316750057667      0.37729080859299     -0.82513051842704
  H   -1.05576713406073      0.94006537566080     -1.78264361741654
  N   -1.04353768431529     -0.77029680848294      1.13965982792174
  H   -0.60890650525369     -1.59937654435477      1.52504392372817
  H   -0.86176985783174      0.00965207496117      1.75895680853291
