16
Coordinates from ORCA-job run
  C   0.89115156266336      0.18289306101101      0.33693916737962
  C   -0.48816024737320     -0.06766643213164     -0.30547557503248
  Cl  1.06444959321040     -0.65987607731734      1.87267061152262
  H   -0.45686871699710      0.50493045210927     -1.23739584764363
  N   1.93461084171448     -0.34670650755605     -0.67831980660573
  O   1.92290477553758      0.26907021743759     -1.73580840159442
  O   2.62822086215376     -1.29608312074917     -0.37576058350410
  C   1.15231862054703      1.60510478606060      0.51758700867553
  N   1.31707551927915      2.75980696426518      0.66328776519706
  C   -1.62348447247284      0.45045751450297      0.56953532458657
  H   -2.56590448550113      0.33117801420364      0.03065598591770
  H   -1.68894533851550     -0.11730823666923      1.49972017138132
  H   -1.50461981050544      1.50841634413141      0.81572730806315
  N   -0.54355660691319     -1.47324594384917     -0.66024916255624
  H   -0.86084898855713     -2.03365247565544      0.12145848736373
  H   -1.17734310827023     -1.61731855979362     -1.43457245315072
