16
Coordinates from ORCA-job run
  C   1.02948100990151     -0.27956712375495      0.13192841208729
  C   -0.43469622914310     -0.51893243082384     -0.30224891145859
  Cl  1.98956116372688     -1.74823377254902     -0.02225518588367
  H   -0.36187128509871     -0.99317389926703     -1.28518769972154
  N   1.61450080732879      0.77711159846561     -0.81033398199284
  O   1.89300530159460      1.86828784826234     -0.32870181025901
  O   1.68077583995068      0.45003498132905     -1.98628436119209
  C   1.08578654475563      0.21325488622645      1.50134071036524
  N   1.04202111842885      0.57566497006247      2.61850487431900
  C   -1.19342613667427      0.80161480950359     -0.41418539861366
  H   -1.19880539255718      1.33046389887079      0.54353838155589
  H   -2.22776912386604      0.58419524819405     -0.68822686066989
  H   -0.78006972306358      1.46647840305677     -1.17488561467008
  N   -1.00324998275630     -1.46429716163378      0.63779899834588
  H   -1.47370112882984     -0.98506266016402      1.39567847404263
  H   -1.66254278369792     -2.07983959577847      0.18351997374542
