16
Coordinates from ORCA-job run
  C   0.98571943551961     -0.42022049120999     -0.13679343081771
  C   -0.56163969052218     -0.49819405317973     -0.10677843427313
  Cl  1.61486660815875     -1.01248539922503     -1.67263928988332
  H   -0.78125436400726     -1.50797545502113     -0.46764111551195
  N   1.36302467260052      1.06578069500040      0.03898670990322
  O   1.18694784238165      1.48832413818327      1.17671967380878
  O   1.70692395803089      1.70596180551191     -0.93904065275803
  C   1.59492542869915     -1.16268366780861      0.95908086237941
  N   2.12899013594926     -1.79881831875718      1.78993013830107
  C   -1.18869721221265      0.52633483682955     -1.05093706553483
  H   -1.05915028197359      1.53912832637068     -0.65960215205529
  H   -0.76838239042669      0.48731080170359     -2.05731935240260
  H   -2.26097166130149      0.33133097176627     -1.11784166975314
  N   -1.00561656996493     -0.43349447607663      1.27197036121554
  H   -1.02244721354090      0.51992378813050      1.61181148698168
  H   -1.93323869739016     -0.82722350221787      1.35809393040030
