16
Coordinates from ORCA-job run
  C   1.03032640214815     -0.27303709539363      0.13784968531546
  C   -0.43143472779882     -0.52295888889411     -0.29940524841777
  Cl  1.99799421696578     -1.73825405379825     -0.00075737894990
  H   -0.35295214628748     -1.00361744081584     -1.27878457693523
  N   1.61351840538158      0.77852489121670     -0.81124947970879
  O   1.88413939030951      1.87541190311444     -0.33813643573159
  O   1.68566609843630      0.44158181976088     -1.98409142464036
  C   1.07909590207257      0.23126302873865      1.50330311362218
  N   1.03005307502115      0.60327660525116      2.61708423299479
  C   -1.19588086364921      0.79322906027050     -0.42287219235689
  H   -1.20732918896714      1.32839671232314      0.53126523681852
  H   -2.22817663369784      0.56913065212559     -0.69929031349530
  H   -0.78272868620393      1.45485408998262     -1.18647958272222
  N   -0.99854304035167     -1.46378495369706      0.64560141123720
  H   -1.47935036776210     -0.98238871973379      1.39545171371936
  H   -1.64639783561685     -2.09262761045099      0.19351123925053
