16
Coordinates from ORCA-job run
  C   0.89308090997748      0.14898086036374      0.34798551887979
  C   -0.48628086615834     -0.05479494772540     -0.31143606345829
  Cl  1.00136325957884     -0.65784176018949      1.90880668430901
  H   -0.41137139731728      0.48594423306694     -1.25958510795885
  N   1.92650271033674     -0.45741121051866     -0.63393155085700
  O   2.57555217702917     -1.42428858247177     -0.29054736480267
  O   1.95603111669252      0.12371231789796     -1.71062263924356
  C   1.21908601379927      1.56170923895092      0.49425300982635
  N   1.43695990435115      2.71099633583630      0.61034980163449
  C   -1.60912943120832      0.54603155270535      0.52583988087022
  H   -2.54939174758252      0.44170367556638     -0.02038003609782
  H   -1.70886678988293      0.02272773626305      1.47902868165526
  H   -1.44876565211948      1.60817879813320      0.72726823547944
  N   -0.60417989264765     -1.46623423033334     -0.62344582298661
  H   -1.22387483168009     -1.60467140607234     -1.40995493591556
  H   -0.96671548316855     -1.98574261147281      0.16637170866578
