16
Coordinates from ORCA-job run
  C   0.99549945906461     -0.24476863394969      0.16230468474880
  C   -0.46320481488476     -0.47903132104819     -0.27846954310334
  Cl  1.90787700961447     -1.76270478300942      0.11470282864913
  H   -0.39121244842192     -0.91889928724873     -1.28268157438137
  N   1.62356496602746      0.71699834416907     -0.85248317750633
  O   1.90171280139600      1.84208013290862     -0.45709300433223
  O   1.71453966424412      0.29161136346084     -1.99492455574710
  C   1.07588120973575      0.33360346418716      1.49491841061012
  N   1.11467256597694      0.79293081372270      2.57567824271048
  C   -1.21779872347785      0.84086017742601     -0.34448000580533
  H   -0.76272464876698      1.54484165446939     -1.04189894380324
  H   -1.27068073630697      1.30141765811196      0.64443047256235
  H   -2.23602372126818      0.65080562768169     -0.69281137795345
  N   -1.07071594575450     -1.34702192774379      0.71136508301654
  H   -2.07661561037158     -1.24478423005607      0.70244836965350
  H   -0.84477102680660     -2.31793905308154      0.53999409068149
