16
Coordinates from ORCA-job run
  C   0.95053465350966     -0.28820142967671      0.12668282024883
  C   -0.51576513484397     -0.47126017262178     -0.36653866670456
  Cl  1.84265263158700     -1.81189149945431      0.00519423870650
  H   -0.41839202126050     -0.89628796329383     -1.37073119371141
  N   1.62249323387925      0.73423942202055     -0.78837585109481
  O   1.74761952026923      0.39328052452074     -1.95544319471720
  O   1.89558519712785      1.82375742452813     -0.29910872709886
  C   0.98283620138558      0.19165187231799      1.49991934405724
  N   0.90781185126581      0.52598631273902      2.62445587318450
  C   -1.22010883360573      0.87628318483578     -0.43920786105985
  H   -2.24786993266863      0.69863323947955     -0.75720348868543
  H   -0.75025024519864      1.55318184038576     -1.15406077252677
  H   -1.24324064676843      1.36593253744986      0.53888963341308
  N   -1.28070755422843     -1.38094376919574      0.44674900580354
  H   -1.42112476034707     -1.01575325374109      1.38150475718458
  H   -0.85307416010296     -2.29560827029390      0.50627408300062
