16
Coordinates from ORCA-job run
  C   0.82709856663094      0.17700275132732      0.35476752682636
  C   -0.55513185777460     -0.05039844852823     -0.34198762587641
  Cl  0.89567785672055     -0.57935631262336      1.94100777437259
  H   -0.45875043069125      0.47527548280396     -1.29831674843057
  N   1.86495189378942     -0.46781848725823     -0.58203677882461
  O   2.05013049488608      0.16349040795070     -1.61599802491957
  O   2.33075423515459     -1.55475521396569     -0.28471397555399
  C   1.15414199150201      1.59083785166761      0.46121890591916
  N   1.39068390713058      2.73626269814836      0.58096690378751
  C   -1.67377467046904      0.58203709227723      0.47067718220977
  H   -1.81926549452953      0.05224029179151      1.41404682345664
  H   -1.47618333610906      1.63317163362870      0.68905926268043
  H   -2.59522726564020      0.50792084923895     -0.10712634591785
  N   -0.85215813478017     -1.42980524421778     -0.62034369673893
  H   -0.21496438178360     -1.84795621007993     -1.28529552263398
  H   -0.86898337403674     -1.98914914216112      0.22307433964344
