16
Coordinates from ORCA-job run
  C   0.96426271957854     -0.21006584435560     -0.31784964229740
  C   -0.57854202147984     -0.51273250977839     -0.23098150651691
  Cl  1.53722414465699     -0.31479195654570     -1.97841931993777
  H   -0.69619888327819     -1.40911859009980     -0.84887889724181
  N   1.17602955468165      1.20618343509022      0.22851834941548
  O   1.06554732847875      1.28574390816372      1.44907588304553
  O   1.32947143012729      2.12470094119753     -0.55771023339162
  C   1.71616767463722     -1.13100274245652      0.52168655904993
  N   2.26822782245733     -1.92881887720025      1.18541118670444
  C   -1.38050392157837      0.63198467144313     -0.83266125844545
  H   -1.35646105106337      1.50658556425854     -0.17655673097410
  H   -1.01105729992452      0.92662078920667     -1.81485911187277
  H   -2.41812082824545      0.31069761494168     -0.92084087463616
  N   -1.06399206657221     -0.81534050146095      1.08812039960839
  H   -0.93262319893201     -0.03732621163830      1.72234085747750
  H   -0.62043140354381     -1.63531969076596      1.48260434001273
