15

C	0.0	0.0	0.0
C	-0.496163	-0.007668	-1.506663
Cl	1.74249	0.0	0.0
H	-1.602011	-0.053711	-1.49206
N	-0.512146	1.441661	0.67774
O	0.359555	2.204927	1.027378
O	-1.709478	1.706578	0.808245
C	-0.515282	-1.10822	0.811746
N	-0.901573	-1.965524	1.520754
N	-0.091075	-1.26741	-2.158483
O	0.809406	-1.214498	-2.989647
O	-0.716386	-2.268199	-1.811279
C	-0.091237	1.176078	-2.20274
N	0.186472	2.183674	-2.737268
F	-1.810335	0.0	0.0
