15

C	0.0	0.0	0.0
C	-0.252266	-0.173124	-1.529062
Cl	1.805797	0.0	0.0
H	0.105069	0.753748	-1.982002
N	-0.408338	1.365991	0.506257
O	-0.523942	1.473057	1.715857
O	-0.448793	2.266193	-0.319952
C	-0.466276	-1.075099	0.852077
N	-0.549439	-2.015705	1.554513
N	-1.659207	-0.347716	-2.091714
O	-2.100263	-1.48365	-2.152095
O	-2.134032	0.653579	-2.610927
C	0.510498	-1.302661	-2.071101
N	1.103324	-2.176751	-2.585411
F	-2.195506	0.0	0.0
