15

C	0.0	0.0	0.0
C	-0.266299	0.13608	-1.533589
Cl	1.759138	0.0	0.0
H	0.257601	1.045367	-1.835302
N	-0.4169	1.242754	0.762843
O	-0.409695	2.289565	0.130579
O	-0.576949	1.110662	1.964057
C	-0.511234	-1.212046	0.613
N	-0.599162	-2.277001	1.107798
N	-1.666566	0.322682	-2.108709
O	-2.012214	1.485876	-2.255869
O	-2.233329	-0.667569	-2.543059
C	0.317059	-1.011746	-2.230902
N	0.802601	-1.892782	-2.837503
F	-2.225421	0.0	0.0
