15

C	0.0	0.0	0.0
C	-0.270632	0.037007	-1.532726
Cl	1.808436	0.0	0.0
H	0.390133	0.803725	-1.937169
N	-0.361598	1.297246	0.703484
O	-0.20889	2.311945	0.039336
O	-0.642481	1.226595	1.886538
C	-0.490883	-1.161987	0.712175
N	-0.57568	-2.169572	1.31459
N	-1.637484	0.420017	-2.097339
O	-1.86538	1.619123	-2.134549
O	-2.294558	-0.465164	-2.624275
C	0.096376	-1.265638	-2.081098
N	0.407096	-2.314807	-2.509742
F	-2.1988	0.0	0.0
