13

C	-0.411315	0.001346	-1.433517
C	0.0	0.0	0.0
Cl	-2.181313	-0.080784	-1.696746
H	1.09259	0.0	0.0
H	-0.043602	0.874931	-1.960523
H	-0.374987	-0.853002	0.557317
N	0.179855	-1.196987	-2.124693
O	0.667606	-1.001928	-3.235068
O	0.103474	-2.276602	-1.549006
N	-0.414683	1.217536	0.655624
O	-0.639042	1.16554	1.873022
O	-0.39709	2.268262	-0.005637
H	2.541124	0.0	0.0
