13

C	-0.64419	-0.004604	-1.353785
C	0.0	0.0	0.0
Cl	-0.289443	-1.539217	-2.181394
H	1.087146	0.0	0.0
H	-1.725808	0.113478	-1.341462
H	-0.265199	-0.904903	0.545987
N	-0.179313	1.114363	-2.26336
O	-0.953566	1.392146	-3.178648
O	0.907947	1.626579	-2.048366
N	-0.480853	1.125474	0.769846
O	-0.996331	2.083279	0.160142
O	-0.261321	1.112229	1.987836
H	2.539296	0.0	0.0
