13

C	-0.558643	0.032226	-1.389896
C	0.0	0.0	0.0
Cl	-2.310864	0.375793	-1.434876
H	1.090386	0.0	0.0
H	-0.060257	0.836883	-1.931345
H	-0.297542	0.910727	0.5187
N	-0.253318	-1.208191	-2.222986
O	0.925691	-1.312621	-2.528864
O	-1.156905	-1.961846	-2.546992
N	-0.460766	-1.115394	0.801518
O	-0.639563	-0.914362	2.009474
O	-0.524879	-2.226428	0.25963
H	2.571523	0.0	0.0
