13

C	-0.43102	0.019349	-1.42671
C	0.0	0.0	0.0
Cl	-2.205443	-0.103895	-1.663368
H	1.093445	0.0	0.0
H	-0.095168	0.910591	-1.944983
H	-0.365477	-0.864382	0.546436
N	0.185426	-1.151891	-2.141184
O	0.75383	-0.910074	-3.202051
O	0.06043	-2.256167	-1.622948
N	-0.411707	1.20316	0.683306
O	-0.431247	2.262748	0.036462
O	-0.592744	1.130769	1.906425
H	2.535085	0.0	0.0
