13

C	-0.428668	0.096801	-1.430394
C	0.0	0.0	0.0
Cl	-0.102299	1.610163	-2.282008
H	1.090919	0.0	0.0
H	0.092753	-0.68992	-1.976092
H	-0.321361	-0.968816	0.385554
N	-1.89959	-0.211231	-1.60787
O	-2.697675	0.419338	-0.922871
O	-2.187746	-1.089346	-2.423321
N	-0.502925	1.000392	0.930506
O	-0.402333	2.191282	0.629047
O	-0.894709	0.589864	2.031385
H	2.60013	0.0	0.0
