13

C	-0.580815	-0.106442	-1.388277
C	0.0	0.0	0.0
Cl	0.411423	-1.008294	-2.535272
H	1.093443	0.0	0.0
H	-1.567277	-0.564041	-1.383305
H	-0.293061	0.925769	0.492657
N	-0.814023	1.306193	-1.895402
O	-1.839792	1.829021	-1.460243
O	0.00061	1.838014	-2.635353
N	-0.449245	-1.089435	0.829115
O	-0.793666	-2.154133	0.282919
O	-0.341491	-0.939491	2.055444
H	2.507903	0.0	0.0
