16
Coordinates from ORCA-job run
  C   -0.65833720900921      0.03748933374638     -0.22272171152724
  C   0.74296067150931     -0.60044277505628     -0.33544402348552
  Br  -1.44100843412192      0.08722419920244     -2.00845039041094
  H   0.61895229217700     -1.60422180972305     -0.75554529394786
  N   -1.55210412172891     -0.90648319338001      0.57894678699416
  O   -1.29442838845601     -2.10485666407518      0.51434908367033
  O   -2.47555851400354     -0.39946065480741      1.20334181077647
  C   -0.65517826758207      1.41183350148014      0.39438958602165
  H   -0.31177802763560      1.34294802657048      1.42987728657055
  H   -1.65536721175175      1.83889739579543      0.38628683311155
  H   0.03120140979685      2.04081037705784     -0.17014301003831
  C   1.28581099082038     -0.74963279805713      1.02019364806233
  N   1.73001836967267     -0.85331073676723      2.10211227066104
  N   1.61626144473157      0.27768942202245     -1.10847866614211
  H   2.58439496026961      0.03844199245526     -0.93307877988428
  H   1.43316003531160      0.14307438353590     -2.09563543043181
