16
Coordinates from ORCA-job run
  C   -0.69874084029274     -0.01088858327650     -0.24572029427327
  C   0.70175184342622     -0.64967351158566     -0.36234731612972
  Br  -1.60167053158825     -0.16186766170405     -1.95577809108291
  H   0.56876688610893     -1.65790557902609     -0.75766898830357
  N   -1.50996496524508     -0.86715917251796      0.72346815124018
  O   -2.29412566553787     -0.29092565589133      1.46759127365979
  O   -1.32484580419360     -2.07882398186061      0.66433246875055
  C   -0.66792164598313      1.42546672941927      0.21078704739104
  H   -0.10664861680263      2.01072864249140     -0.51810855393232
  H   -0.19363259868376      1.49474025462836      1.19354747453319
  H   -1.67682531321015      1.82523935279596      0.28468866312066
  C   1.27365380961645     -0.76450963134533      0.99387140292203
  N   1.76699200688164     -0.78722649943182      2.06042082993640
  N   1.52858267921608      0.12320901691541     -1.27006173755210
  H   2.21819175288468     -0.47265647908686     -1.70810290068110
  H   2.01643700340320      0.86225275947581     -0.77991942959885
