16
Coordinates from ORCA-job run
  C   -0.61243831973062     -0.05437527196786     -0.11376713953381
  C   0.90610864541270     -0.13030797938029      0.11044995132649
  Br  -1.19453189997298     -1.54848129496845     -1.19324042995576
  H   1.14889062627334      0.72659118923806      0.74686013193208
  N   -1.22173976415684     -0.14545843335641      1.29093073398768
  O   -2.02509908329908     -1.02165489050056      1.55757497837106
  O   -0.83445762660738      0.74464555225571      2.04269736590800
  C   -1.06776686419667      1.24978284662778     -0.73779499743366
  H   -2.15714491125663      1.27543023828604     -0.79821663007263
  H   -0.66095507741484      1.34162124256820     -1.74537379822529
  H   -0.72275530416418      2.08524719419586     -0.12526946390345
  C   1.60796277639688      0.04674342600952     -1.17398075619515
  N   2.20630072050630      0.16386199971672     -2.17858967164361
  N   1.24435394735481     -1.33112629817315      0.84455849083141
  H   1.20766597705438     -2.14491452906931      0.24258446544252
  H   2.17660615780084     -1.25760499148185      1.23157676916413
