16
Coordinates from ORCA-job run
  C   -0.68638944881700     -0.02884905544987     -0.23567841289442
  C   0.80060344806477     -0.35671856390346     -0.45858662945104
  Br  -1.76521846048768     -1.11082301542850     -1.43631495534734
  H   1.00391635936275     -0.01099312829454     -1.47827544349578
  N   -1.09923145370506     -0.41172819673149      1.18163567726608
  O   -2.19406715852752     -0.02082380688107      1.56129467771163
  O   -0.30389030846073     -1.07956396646768      1.83910886810561
  C   -0.98715127007678      1.43934833659798     -0.44309402975877
  H   -2.04693319333111      1.62941448391028     -0.28605070555586
  H   -0.72036278197056      1.72159426089597     -1.46292169792473
  H   -0.39238358969049      2.02499105397161      0.25857176838520
  C   1.09174341706279     -1.80246521635659     -0.44106091555316
  N   1.43006332757289     -2.92733892638679     -0.44939974017980
  N   1.61901884264057      0.42839734532066      0.45129745865503
  H   2.54393808440047      0.55757368889414      0.06157409262902
  H   1.70634418596268     -0.05401529369065      1.33689998740834
