16
Coordinates from ORCA-job run
  C   -0.54380474473008     -0.02444815483699     -0.11802735625739
  C   0.98809446285285     -0.19797496199041      0.04978780391104
  Br  -1.25352071709973     -1.48332997776695     -1.17094248019036
  H   1.31859966864764      0.65261526974164      0.65360370940898
  N   -1.16423926658603     -0.06768596895438      1.28278611475881
  O   -2.29360016443360     -0.51096689291859      1.41642644006314
  O   -0.47614269668440      0.43829409315978      2.16865414260023
  C   -0.94076064995543      1.31002870613029     -0.71984297431218
  H   -0.54287413229893      1.39515890608635     -1.73137146170313
  H   -2.02787804983207      1.39543599217091     -0.75920702667272
  H   -0.53687966161251      2.11769917337404     -0.10232232249228
  C   1.61421572495417     -0.06546280466632     -1.27197865662620
  N   2.11448844316511      0.05781228869493     -2.32708340897124
  N   1.45393533429865     -1.39618071397001      0.70198147661612
  H   1.19251383470841     -1.39326170071190      1.67869569779161
  H   1.09685261460596     -2.22773325354238      0.24884030207556
