16
Coordinates from ORCA-job run
  C   -0.65392186367586      0.01725899983949     -0.23910973698259
  C   0.77471018039963     -0.56076519071189     -0.33017023822625
  Br  -1.39260800247042      0.07867667002827     -2.04318410532782
  H   0.70181976444858     -1.55737291123522     -0.77840895633092
  N   -1.52610127748659     -0.98310666668338      0.51673204166406
  O   -2.47041189999378     -0.52910401460852      1.15043899578186
  O   -1.22896994514523     -2.16923675640410      0.41135963924286
  C   -0.72294265814217      1.37519480102107      0.40927120663779
  H   -1.73955750784494      1.76103040963225      0.38567822534902
  H   -0.40220537885784      1.29591481818024      1.45129190060073
  H   -0.04967001154040      2.04504528012643     -0.12331906949689
  C   1.28770804077054     -0.72489598740003      1.03535312830987
  N   1.70792422820305     -0.84360015517947      2.12532580958884
  N   1.63180332361861      0.37115137750881     -1.05649060077752
  H   1.47951988873266      0.25640985794782     -2.05128603382578
  H   2.60390311898417      0.16539946793823     -0.86148220620725
