16
Coordinates from ORCA-job run
  C   -0.67415493109548     -0.10968593835788     -0.24691655428951
  C   0.84297345378639     -0.29845172791587     -0.42241518537583
  Br  -1.61133921002895     -1.35823200223257     -1.40400384948323
  H   1.03677249211788      0.01336497730518     -1.45484652792732
  N   -1.08127225500352     -0.45461288627517      1.18199176081854
  O   -2.21571688986822     -0.14800963687219      1.52063694609398
  O   -0.24308518920169     -1.01119320729036      1.88786329298133
  C   -1.11329195440004      1.30754089933136     -0.54290647012704
  H   -2.19042208862777      1.39861056618177     -0.41898496995229
  H   -0.84899038168155      1.55966563207274     -1.57125865874445
  H   -0.59822651182370      1.98681415425480      0.13703704499998
  C   1.27592056774134     -1.70484638790940     -0.32251555468015
  N   1.72468922360217     -2.78867551149220     -0.26057135528033
  N   1.55582144307040      0.60959155600137      0.46127465035366
  H   1.67091425993423      0.18259572078321      1.37178777653982
  H   2.47140797147853      0.81552379241521      0.08282765407286
