16
Coordinates from ORCA-job run
  C   -0.69103592997943     -0.02932548411367     -0.26562458355836
  C   0.73694725543209     -0.60717379880475     -0.36688899126127
  Br  -1.54194967101518     -0.15031905738468     -2.00423307993026
  H   0.65558696460098     -1.60372252382167     -0.80352160210885
  N   -1.49204296858755     -0.95367291719345      0.64846067275093
  O   -1.25419958033428     -2.15365878580331      0.55182364901395
  O   -2.31993381319882     -0.43798299195161      1.38961814315118
  C   -0.73058816402512      1.38843237946163      0.24518579478472
  H   -1.75654451285624      1.74454262679634      0.30608800449935
  H   -0.28553488454394      1.43835389284756      1.24268135562258
  H   -0.17464717613325      2.02313557236638     -0.44538743325479
  C   1.27685919343925     -0.75129481772063      0.99961207167794
  N   1.74274425689067     -0.79446619828979      2.07774418986295
  N   1.55512108357003      0.23260873391059     -1.22142921942777
  H   1.99991786788495      0.97042490919570     -0.69029600002170
  H   2.27930007885584     -0.31788153949461     -1.66283297180060
