16
Coordinates from ORCA-job run
  C   -0.62438592353010      0.02129664063446     -0.22635473640102
  C   0.75966100320866     -0.66957650253076     -0.39848705858469
  Br  -1.45068655386240      0.17711484326899     -1.98231966333749
  H   0.57356639298604     -1.63605750133984     -0.87273533539094
  N   -1.50946569851359     -0.93879819387165      0.56720754622454
  O   -2.19828226212305     -0.46396501248060      1.46278180819173
  O   -1.45629684686316     -2.11994212734038      0.24165389666847
  C   -0.56858009335088      1.36940277740542      0.44581316642261
  H   -1.56630604359409      1.79344529658863      0.53842146486017
  H   -0.13932819906374      1.26941551539186      1.44527867289427
  H   0.04273901636709      2.04735474307217     -0.15086316229455
  C   1.28889238799395     -0.92316366268351      0.94951719132471
  N   1.68660004189438     -1.07861453200760      2.04337505311804
  N   1.74889669292632      0.04149647697645     -1.17254372700316
  H   1.97957043449803      0.93748404407055     -0.76376872041715
  H   1.43340565102653      0.17110719484590     -2.12497639627559
