16
Coordinates from ORCA-job run
  C   -0.60658995715236      0.01525897196750     -0.15160243400846
  C   0.88499820809025     -0.21962923672484      0.13490213982987
  Br  -1.22725302508425     -1.23961084773272     -1.48440519215959
  H   1.14846844608205      0.50436923111399      0.91243564764795
  N   -1.30901881524070     -0.24158070415649      1.18719376309856
  O   -0.90496913915699      0.48473671874534      2.09085928878961
  O   -2.19064653320166     -1.07846452027012      1.26874184036197
  C   -0.92406817837346      1.43362756341247     -0.58209902677104
  H   -2.00235166102857      1.55733405372416     -0.69564419145833
  H   -0.56057079967247      2.13241492906650      0.17391863699572
  H   -0.44641483542946      1.64766316791912     -1.53866834133582
  C   1.67862877068729      0.09667289387151     -1.06665032119812
  N   2.34549747687127      0.30881946296579     -2.01074650288916
  N   1.08712352860755     -1.54440682291616      0.68224817589197
  H   1.03132843216206     -2.24761318278277     -0.04461804686866
  H   1.99483808183946     -1.60859167820331      1.12513456407355
