16
Coordinates from ORCA-job run
  C   -0.61454971581185     -0.08326739747637     -0.08067258683822
  C   0.91740263847924     -0.08270319546456      0.04402229828739
  Br  -1.17998732113577     -1.51832766199098     -1.24608286189419
  H   1.15215280668260      0.73315902931868      0.73504092463161
  N   -1.12445673902909     -0.32542998979357      1.34521084580151
  O   -1.85658762481764     -1.26925529562229      1.58488734416827
  O   -0.74013513340945      0.52302877856700      2.14519094282338
  C   -1.18298984138036      1.23617290736530     -0.56388702790238
  H   -0.84754813255785      2.03946319332675      0.09502071032284
  H   -0.84828483400933      1.43397067630008     -1.58260436985276
  H   -2.27359519684571      1.19856017439810     -0.55651898320303
  C   1.52268627678126      0.24214179817128     -1.26030307301961
  N   2.04493699376576      0.48553272363001     -2.28450896793881
  N   1.37050633950790     -1.31614672400811      0.65138810808227
  H   2.31983044222787     -1.21632778971648      0.98759773331994
  H   1.34161904155246     -2.07857122700486     -0.01478103678832
