16
Coordinates from ORCA-job run
  C   -0.65670371925694      0.02485110509586     -0.23212602503357
  C   0.75853392835248     -0.58552493660859     -0.32146239092616
  Br  -1.41781771773965      0.04263430261741     -2.02795724558024
  H   0.65888219719490     -1.59298872434250     -0.73969232589670
  N   -1.53502736690667     -0.93588304919210      0.56680651335777
  O   -2.42996084478266     -0.44261729185210      1.24167030353511
  O   -1.29043569266443     -2.13315471088434      0.45340780840438
  C   -0.69047872237347      1.40435294026222      0.37134644353952
  H   -0.01414069637900      2.04314588116190     -0.19419185151258
  H   -0.35444372790892      1.35432347407386      1.41011466962079
  H   -1.70005303082682      1.80850256837551      0.35077421666226
  C   1.28206517285719     -0.72168642295816      1.04329221052564
  N   1.71013542552935     -0.81968683915217      2.13214872883340
  N   1.62765570896816      0.30594543897117     -1.08331967787158
  H   2.59707457596376      0.07882505915096     -0.89822658627299
  H   1.45671450997268      0.16996120528111     -2.07258479138506
