16
Coordinates from ORCA-job run
  C   -0.62001589201684      0.00352011792900     -0.24028451661400
  C   0.79196091726258     -0.63282134897075     -0.39545180472740
  Br  -1.41415226688501      0.16421537304309     -2.01057218540544
  H   0.65197478268004     -1.59499045015410     -0.89377421732966
  N   -1.48492159818161     -1.00443986106315      0.51546770233589
  O   -2.20606462529041     -0.57405397682635      1.40809700810960
  O   -1.38322249229415     -2.17556177688893      0.16604277868477
  C   -0.62808391791126      1.33900348512062      0.45875491552087
  H   -0.03116612917354      2.05107420874735     -0.11225560351535
  H   -1.64269365295218      1.72363019467767      0.53948630821766
  H   -0.21481647433777      1.23497482253049      1.46459044745880
  C   1.30045951569746     -0.89655208286586      0.95855350817819
  N   1.67939074827668     -1.06233604491128      2.05758170681403
  N   1.77100657400817      0.13033762604798     -1.13183681993384
  H   1.96133394100890      1.02387067702889     -0.69770897168966
  H   1.47101057010896      0.27112903655530     -2.08769025610445
