16
Coordinates from ORCA-job run
  C   -0.61541124253943     -0.13956077939285     -0.25653753662960
  C   0.90085793967978     -0.40134082178680     -0.44834602721945
  Br  -1.59932039988713     -1.28622245018160     -1.47740175443424
  H   1.07387484891404     -0.20456539351818     -1.51321560373856
  N   -1.06334033932866     -0.49091871881294      1.15876129989649
  O   -0.19150617222330     -0.84204953244226      1.95166707217292
  O   -2.24989677534868     -0.34277076527450      1.41431093608918
  C   -0.99379558351788      1.30881624365026     -0.49398742340163
  H   -0.52912265048697      1.94283930023436      0.26524532769514
  H   -0.65693669405897      1.62041902451382     -1.48456649882816
  H   -2.07425511982544      1.42751143792794     -0.43180340058860
  C   1.23082195526232     -1.81761829928461     -0.22959187660813
  N   1.52755724914338     -2.94184878956489     -0.06985048823195
  N   1.81389870642009      0.43080802246130      0.30122165272614
  H   1.66438799907200      0.33758355563058      1.29596978544477
  H   1.76218627872492      1.39891796584031      0.01812453565567
