16
Coordinates from ORCA-job run
  C   -0.61824275109448     -0.09508141834122      0.01373596363812
  C   0.91823316022894     -0.07826197875624     -0.01974989192118
  Br  -1.27003113684350     -1.83399211824250     -0.52255884674492
  H   1.20484436695027      0.92177246537869      0.32083581124595
  N   -0.98208357277779      0.18009283390648      1.47778497766238
  O   -1.67114986547660     -0.60922642684124      2.09932310423415
  O   -0.53632873120692      1.24604797165140      1.89308957108807
  C   -1.25371827355512      0.98612964399864     -0.83784450315961
  H   -0.86956871153780      1.96146071106104     -0.53278015628497
  H   -2.33762819604274      0.97254580410556     -0.71204979735991
  H   -1.02323152214598      0.81419164768101     -1.88963914613252
  C   1.38795339443721     -0.23460513388671     -1.40836395292819
  N   1.80555720008156     -0.37628164542003     -2.49760558985573
  N   1.44999856339234     -1.03397287946059      0.92873395787677
  H   2.42602528059787     -0.84103799916685      1.11453339153191
  H   1.36937079499275     -1.97878147766745      0.57255510710966
