16
Coordinates from ORCA-job run
  C   -0.65288428155632     -0.09982794148293     -0.26791829493008
  C   0.85433023767511     -0.45830361802838     -0.49400073992069
  Br  -1.70963198316301     -1.10141685920692     -1.53935921198207
  H   1.00452789600510     -0.37681789374248     -1.57573669858236
  N   -1.01921352507594     -0.51725295379469      1.15467684085438
  O   -1.84140808029901     -1.39505320802325      1.35751486992314
  O   -0.39234466709838      0.10117579075828      2.01701885577313
  C   -0.93007887183777      1.38266520228369     -0.41470944937480
  H   -1.99508306103598      1.58074193844142     -0.28480353469043
  H   -0.63785317249999      1.71018572235027     -1.41439531102863
  H   -0.37221618219332      1.94206925871220      0.33554939465314
  C   1.06652709374904     -1.86608755335525     -0.12469413031382
  N   1.22864461840014     -2.98325752155381      0.19788658758173
  N   1.84855721367281      0.36309043207259      0.15237167818246
  H   1.87063432192917      1.29095122819187     -0.24830519355891
  H   1.67849244332836      0.42613797637739      1.14790433741383
