16
Coordinates from ORCA-job run
  C   -0.62167347477278     -0.00165691753636     -0.06842819058563
  C   0.89986518118858     -0.19998982666621      0.02042780504664
  Br  -1.38930014240606     -1.31683917874181     -1.25892355450499
  H   1.25039830032321      0.55826795290463      0.72780071328768
  N   -1.12988815956235     -0.21962437393336      1.36196820454737
  O   -1.97117888495306     -1.06989835715844      1.59325480709942
  O   -0.62501343909775      0.54925469875555      2.17525223564457
  C   -1.02575401183688      1.39362129410084     -0.50181916344141
  H   -2.11190372719710      1.49477963385373     -0.47116026186982
  H   -0.57817167145431      2.12709765215315      0.17169811071558
  H   -0.68749335592957      1.57847138171560     -1.52180790008685
  C   1.51614088868748      0.08364973966353     -1.28847311878653
  N   2.04424588277630      0.28300637529803     -2.31918849252037
  N   1.20330053848976     -1.49885336461465      0.58315159311574
  H   1.06432985271102     -2.23061115339817     -0.10327883616975
  H   2.16409622303352     -1.53067555639605      0.89952604850835
