16
Coordinates from ORCA-job run
  C   -0.64074096758584     -0.06339593250130     -0.22114411151315
  C   0.82250919181413     -0.48988481272290     -0.50665293665399
  Br  -1.81735069216249     -1.06300285374308     -1.40019282992441
  H   0.95633111251896     -0.28896441936994     -1.57635836569211
  N   -1.04414941480241     -0.39492476850125      1.21219159208431
  O   -2.18886389087222     -0.11774718831991      1.54087824046673
  O   -0.17468883032519     -0.86262020785443      1.94537062687496
  C   -0.86467841048625      1.42348203204114     -0.41167912453492
  H   -0.28813147332841      1.98331611058246      0.32893710987861
  H   -1.91926800984875      1.66156617353180     -0.28335361474183
  H   -0.55160331310906      1.71799265613429     -1.41517744531142
  C   1.00058350571067     -1.93919215902927     -0.33226897287217
  N   1.17224084255313     -3.09426861465535     -0.21589437239563
  N   1.86471584761649      0.21706122400499      0.20150772607355
  H   1.76112627574941      0.12179259590410      1.20180110629523
  H   1.91096822655780      1.18979016449860     -0.06596462803371
