16
Coordinates from ORCA-job run
  C   -0.62372606562104     -0.01395028409643     -0.23561148076900
  C   0.79616315521862     -0.63449987864349     -0.37755658802261
  Br  -1.43060660208161      0.07613611764641     -2.00519527570914
  H   0.66813859479097     -1.61519610502574     -0.84169113157307
  N   -1.47040735582055     -1.00768797269037      0.55848041627370
  O   -1.34949830209502     -2.18905320620539      0.25228405024915
  O   -2.19846282695765     -0.55696065008941      1.43529015294589
  C   -0.64716283891630      1.34389569569564      0.41860077174817
  H   -0.22634096323608      1.27933645359501      1.42464088268127
  H   -1.66673880578732      1.71635195509767      0.49306065074985
  H   -0.06395668107930      2.04504819876031     -0.17934719896764
  C   1.31902354935154     -0.84387756139892      0.98065337916868
  N   1.73993279357006     -0.96499588631974      2.07015101311718
  N   1.75982208336597      0.11734608009442     -1.14546652620205
  H   1.45278116668443      0.21950266063191     -2.10401856565740
  H   1.93803909861316      1.02860438294808     -0.74427455003305
