16
Coordinates from ORCA-job run
  C   -0.68435104499032     -0.10689845513425     -0.22128743365290
  C   0.82325191454070     -0.31765663383356     -0.44765545167437
  Br  -1.67580912423174     -1.37062799714465     -1.31540667794583
  H   0.98201019080589     -0.02938939476889     -1.49284933646133
  N   -1.04358827031302     -0.41505244148612      1.22876553575354
  O   -2.16282179699533     -0.09030881803713      1.59958046116476
  O   -0.18555515834501     -0.96270458720384      1.91737803800960
  C   -1.11811685690239      1.30828910505389     -0.53402791585949
  H   -0.89188157513226      1.53162330705917     -1.57799420991674
  H   -0.56901824783651      1.99708898635383      0.10864623397225
  H   -2.18844311100392      1.41612481548373     -0.37057219616611
  C   1.24400924994256     -1.72654362918643     -0.33141023583328
  N   1.68718909421113     -2.80993362341615     -0.23222866724543
  N   1.57865896452723      0.59981480604687      0.38939151390356
  H   2.48246919019506      0.78556549972385     -0.02597940589784
  H   1.72099658152791      0.19160906048965      1.30464974784959
