16

C	0.0	0.0	0.0
C	-0.377691	-0.023263	-1.474646
Cl	1.93512	0.0	0.0
H	0.027686	0.865485	-1.980846
H	-1.47316	0.03226	-1.409123
C	-0.410171	1.299091	0.651427
H	0.009424	2.159339	0.124592
H	-1.505994	1.287233	0.597987
H	-0.074018	1.308259	1.689877
N	-0.516062	-1.102821	0.726495
H	-1.5395	-0.86741	0.683876
H	-0.393604	-1.914199	0.124797
N	0.016022	-1.285243	-2.102934
H	-0.533774	-1.426482	-2.939826
H	0.992373	-1.240382	-2.366544
F	-2.889916	0.0	0.0
