16

C	0.0	0.0	0.0
C	-0.448919	-0.157469	-1.461887
Cl	1.803894	0.0	0.0
H	-1.538087	-0.055701	-1.400723
H	-0.023864	0.660392	-2.05366
C	-0.441995	1.35676	0.532204
H	-0.099189	1.489137	1.564251
H	-1.536713	1.312492	0.489037
H	-0.046934	2.177934	-0.074171
N	-0.55643	-1.105249	0.737984
H	-1.580907	-0.90923	0.596391
H	-0.357424	-0.961478	1.724626
N	-0.104965	-1.429584	-2.090829
H	-0.503322	-2.149652	-1.496187
H	0.901863	-1.548002	-2.019525
F	-2.921561	0.0	0.0
