16

C	0.0	0.0	0.0
C	-0.421205	0.372339	-1.426104
Cl	1.869567	0.0	0.0
H	0.028632	1.333727	-1.692151
H	-1.509518	0.469769	-1.342809
C	-0.408756	1.086152	0.981356
H	-0.057432	0.840707	1.988741
H	-0.006243	2.063576	0.698476
H	-1.504206	1.07198	0.939062
N	-0.548322	-1.286889	0.30286
H	-0.370222	-1.494003	1.281416
H	-1.573883	-1.054325	0.215032
N	-0.092186	-0.610487	-2.454679
H	-0.532446	-1.476684	-2.163368
H	0.907075	-0.786257	-2.40113
F	-2.894494	0.0	0.0
