16

C	0.0	0.0	0.0
C	-0.594374	0.20668	-1.405441
Cl	1.785522	0.0	0.0
H	-1.697138	0.136961	-1.256116
C	-0.396923	1.161898	0.806962
N	-0.62064	2.1186	1.451406
C	-0.475261	-1.289747	0.663519
H	-0.07873	-2.153468	0.13164
H	-1.5671	-1.300974	0.650959
H	-0.109316	-1.303535	1.691327
N	-0.173094	-0.909222	-2.323341
O	0.727467	-0.686485	-3.130267
O	-0.764509	-1.975305	-2.181628
C	-0.210996	1.482272	-1.991926
N	0.061924	2.519286	-2.47122
Cl	-3.553442	0.0	0.0
