16

C	0.0	0.0	0.0
C	-0.331801	0.142186	-1.512123
Cl	1.789772	0.0	0.0
H	0.048818	-0.768543	-1.981174
C	-0.430495	1.130422	0.822949
N	-0.656366	2.015138	1.562753
C	-0.488809	-1.329849	0.552018
H	-0.08206	-2.143144	-0.054351
H	-1.580648	-1.324348	0.527293
H	-0.134685	-1.440657	1.578461
N	0.512725	1.248317	-2.132085
O	1.208542	0.930605	-3.090892
O	0.40756	2.365	-1.643641
C	-1.672693	0.407932	-2.051415
N	-2.354901	0.685477	-2.976471
Cl	-3.433682	0.0	0.0
