16

C	0.0	0.0	0.0
C	-0.471285	-0.546887	-1.384003
Cl	1.795072	0.0	0.0
H	0.437029	-0.744296	-1.966212
C	-0.414363	1.367235	0.321612
N	-0.524329	2.447	0.77466
C	-0.375297	-0.933204	1.160177
H	0.035754	-0.513188	2.078968
H	-1.459518	-0.999544	1.222654
H	0.066859	-1.916883	0.991751
N	-1.181265	0.431954	-2.298522
O	-0.789364	1.589642	-2.246243
O	-1.947722	-0.046434	-3.118688
C	-1.187398	-1.815245	-1.315402
N	-1.526917	-2.940376	-1.326467
Cl	-3.205458	0.0	0.0
