16

C	0.0	0.0	0.0
C	-0.59007	-0.146627	-1.412524
Cl	1.796997	0.0	0.0
H	-1.694367	-0.198196	-1.247006
C	-0.384856	1.327135	0.499173
N	-0.571967	2.399651	0.941181
C	-0.46349	-1.078605	0.976013
H	-0.096449	-0.819941	1.969975
H	-0.062269	-2.046494	0.683866
H	-1.554316	-1.095106	0.968901
N	-0.149874	-1.435837	-2.051851
O	-0.63321	-2.461328	-1.582508
O	0.646894	-1.378911	-2.986116
C	-0.236928	0.967555	-2.279722
N	0.016266	1.884642	-2.968673
Cl	-3.529424	0.0	0.0
