15

C	-0.610637	0.042307	-1.388931
C	0.0	0.0	0.0
Cl	0.12693	1.329055	-2.339584
H	1.088188	0.0	0.0
H	-1.68577	0.205972	-1.36338
N	-0.429683	-1.249793	-2.142053
O	-1.242443	-1.4602	-3.039091
O	0.507696	-1.969431	-1.824698
N	-0.486243	-1.259807	0.68829
O	0.143928	-1.649541	1.662153
O	-1.556964	-1.740123	0.294303
N	-0.432178	1.147966	0.740489
H	-1.367193	1.04107	1.113188
H	0.228014	1.337653	1.482302
Cl	3.29191	0.0	0.0
