15

C	-0.519027	0.008008	-1.429701
C	0.0	0.0	0.0
Cl	0.452972	-0.881287	-2.577103
H	1.092466	0.0	0.0
H	-0.538392	1.052937	-1.741849
N	-1.981846	-0.425821	-1.48988
O	-2.406451	-0.995991	-2.482814
O	-2.656028	-0.083386	-0.519999
N	-0.396299	-1.302057	0.679899
O	-0.594204	-2.284784	-0.031336
O	-0.456192	-1.289648	1.90536
N	-0.407748	1.15649	0.724526
H	-1.336638	1.049759	1.105837
H	0.256278	1.324945	1.466669
Cl	3.232987	0.0	0.0
