15

C	-0.40852	0.01505	-1.479323
C	0.0	0.0	0.0
Cl	0.224784	-1.361235	-2.354046
H	1.089985	0.0	0.0
H	-0.011929	0.929472	-1.916938
N	-1.912714	0.11266	-1.659389
O	-2.375668	1.222114	-1.392768
O	-2.557268	-0.85717	-2.021866
N	-0.557246	-1.259383	0.611171
O	-1.780384	-1.264793	0.770131
O	0.205358	-2.170948	0.907371
N	-0.431432	1.107961	0.783863
H	0.324707	1.773064	0.87228
H	-1.281516	1.541687	0.454205
Cl	3.274401	0.0	0.0
