15

C	-0.47417	-0.037259	-1.448679
C	0.0	0.0	0.0
Cl	-2.241467	-0.181125	-1.56467
H	1.091241	0.0	0.0
H	-0.021593	-0.860716	-1.989543
N	-0.042061	1.22201	-2.151571
O	0.908674	1.102105	-2.918138
O	-0.645916	2.261487	-1.898697
N	-0.397655	-1.368466	0.568116
O	-0.957619	-1.421444	1.655272
O	-0.093338	-2.337827	-0.125746
N	-0.474743	1.054484	0.800524
H	0.257325	1.728991	0.970261
H	-1.318507	1.492498	0.463526
Cl	3.21296	0.0	0.0
