15

C	-0.435689	0.003741	-1.472226
C	0.0	0.0	0.0
Cl	0.298985	-1.297201	-2.382065
H	1.089961	0.0	0.0
H	-0.133957	0.957575	-1.902819
N	-1.948893	-0.027624	-1.61823
O	-2.502078	1.030211	-1.311007
O	-2.511815	-1.04318	-1.99437
N	-0.500489	-1.287712	0.611646
O	-1.718853	-1.342596	0.799338
O	0.303827	-2.169702	0.884911
N	-0.465104	1.078622	0.803335
H	0.234075	1.806523	0.840434
H	-1.36908	1.432128	0.525112
Cl	3.287693	0.0	0.0
