15

C	-0.627064	0.00735	-1.376907
C	0.0	0.0	0.0
Cl	-0.128036	1.453859	-2.270351
H	1.094557	0.0	0.0
H	-1.712783	0.00344	-1.318157
N	-0.251966	-1.186982	-2.216174
O	0.784147	-1.77747	-1.948885
O	-1.036065	-1.449619	-3.124764
N	-0.477899	-1.220018	0.732772
O	-1.200298	-2.025248	0.142781
O	-0.134105	-1.309785	1.905627
N	-0.535365	1.126993	0.768509
H	-0.101528	1.050658	1.684026
H	-0.142991	1.968579	0.356397
Cl	3.295177	0.0	0.0
