15

C	-0.478253	0.017846	-1.438192
C	0.0	0.0	0.0
Cl	-2.25429	0.019882	-1.557511
H	1.097353	0.0	0.0
H	-0.100543	-0.83309	-1.991282
N	0.04971	1.242426	-2.140502
O	0.908088	1.041291	-2.990741
O	-0.406815	2.334329	-1.817927
N	-0.370106	-1.388614	0.549188
O	-0.629823	-1.484419	1.738076
O	-0.310604	-2.328023	-0.243778
N	-0.48784	1.027882	0.837063
H	0.278386	1.584293	1.18551
H	-1.185461	1.609038	0.398961
Cl	3.206825	0.0	0.0
