16

C	-0.591508	-0.272011	-1.368391
C	0.0	0.0	0.0
F	-0.681271	0.950281	-1.999577
H	1.089345	0.0	0.0
H	-0.300819	1.003267	0.296475
N	0.377986	-1.08815	-2.229166
O	1.105733	-0.476226	-2.996788
O	0.337279	-2.302679	-2.071803
C	-1.952475	-0.925817	-1.43636
H	-2.265842	-0.976627	-2.482528
H	-1.923874	-1.919427	-1.003666
H	-2.6563	-0.298398	-0.885154
N	-0.408811	-0.896313	1.052938
O	-0.479592	-2.111106	0.811366
O	-0.512865	-0.412323	2.19101
H	2.529805	0.0	0.0
