16

C	-0.533485	-0.169422	-1.395296
C	0.0	0.0	0.0
F	-1.88283	-0.44225	-1.377255
H	1.089454	0.0	0.0
H	-0.301323	-0.875451	0.576129
N	-0.382503	1.082202	-2.252919
O	0.76729	1.434095	-2.471689
O	-1.399163	1.594311	-2.703089
C	0.210514	-1.277012	-2.096486
H	0.002944	-2.221158	-1.586445
H	-0.119925	-1.351973	-3.136144
H	1.28269	-1.06654	-2.031354
N	-0.504036	1.159104	0.723219
O	-0.670576	1.032086	1.94199
O	-0.64267	2.222286	0.107162
H	2.638994	0.0	0.0
