16

C	-0.562751	-0.121798	-1.385182
C	0.0	0.0	0.0
F	-1.936116	-0.25229	-1.348452
H	1.089437	0.0	0.0
H	-0.312672	-0.875511	0.569557
N	-0.287065	1.100314	-2.256317
O	-1.245207	1.723791	-2.694105
O	0.892187	1.313571	-2.499943
C	0.044367	-1.314399	-2.083968
H	1.13277	-1.249232	-2.014992
H	-0.280005	-1.34498	-3.126532
H	-0.300957	-2.219671	-1.579884
N	-0.467893	1.163815	0.737446
O	-0.548255	2.240112	0.133541
O	-0.654798	1.028924	1.95207
H	2.627384	0.0	0.0
