16

C	-0.649576	0.065006	-1.36404
C	0.0	0.0	0.0
F	-0.294075	1.285278	-1.906333
H	1.089917	0.0	0.0
H	-0.282999	0.899524	0.547884
N	-0.068404	-0.956705	-2.345061
O	1.098433	-0.781706	-2.670489
O	-0.811994	-1.843442	-2.761146
C	-2.154064	-0.030112	-1.365997
H	-2.536679	0.103777	-2.379139
H	-2.539196	0.766626	-0.726238
H	-2.474408	-0.998303	-0.989352
N	-0.418815	-1.134464	0.76886
O	-0.556677	-2.218848	0.167336
O	-0.460511	-1.015037	2.006166
H	2.51977	0.0	0.0
