12

C	-0.381079	-0.057486	-1.481012
C	0.0	0.0	0.0
F	-1.745143	-0.245621	-1.636215
H	1.097546	0.0	0.0
H	0.1355	-0.910786	-1.929963
C	-0.0009	1.177125	-2.182159
N	0.257132	2.1781	-2.739244
C	-0.46917	-1.213026	0.667521
N	-0.835321	-2.199491	1.188385
C	-0.526707	1.192659	0.656003
N	-0.954276	2.154954	1.175715
Br	3.291683	0.0	0.0
