12

C	-0.480195	-0.024146	-1.461769
C	0.0	0.0	0.0
F	-0.041985	1.113927	-2.093628
H	1.096625	0.0	0.0
H	-1.574816	-0.024244	-1.502353
C	0.008424	-1.214643	-2.174262
N	0.308558	-2.173402	-2.781333
C	-0.492786	-1.187928	0.693764
N	-0.900998	-2.153551	1.223534
C	-0.495347	1.213812	0.647036
N	-0.911404	2.18825	1.153303
Br	3.30051	0.0	0.0
