12

C	-0.376581	0.006463	-1.490867
C	0.0	0.0	0.0
F	0.001738	-1.190586	-2.048211
H	1.096803	0.0	0.0
H	0.18729	0.808706	-1.975851
C	-1.821181	0.194236	-1.714633
N	-2.971773	0.344085	-1.894403
C	-0.535563	-1.177379	0.675387
N	-0.984692	-2.122039	1.208652
C	-0.467101	1.232498	0.629746
N	-0.846003	2.239927	1.099869
Br	3.29783	0.0	0.0
