12

C	-0.381448	-0.011559	-1.489292
C	0.0	0.0	0.0
F	0.00372	-1.212254	-2.03637
H	1.096773	0.0	0.0
H	0.173657	0.791363	-1.985029
C	-1.829355	0.162521	-1.708599
N	-2.97944	0.302585	-1.901419
C	-0.53259	-1.170916	0.689305
N	-0.98557	-2.109046	1.230554
C	-0.468191	1.238501	0.617144
N	-0.842277	2.25181	1.078566
Br	3.298549	0.0	0.0
