12

C	-0.423923	-0.025142	-1.466219
C	0.0	0.0	0.0
F	-1.805453	-0.060411	-1.565883
H	1.096804	0.0	0.0
H	-0.026318	-0.931328	-1.930624
C	0.058231	1.147097	-2.209263
N	0.389247	2.044661	-2.888991
C	-0.486295	-1.207141	0.666766
N	-0.895042	-2.184981	1.171261
C	-0.485477	1.194985	0.68571
N	-0.846756	2.147409	1.268262
Br	3.333162	0.0	0.0
