12

C	-0.389991	-0.017593	-1.486594
C	0.0	0.0	0.0
F	0.019551	-1.207385	-2.038112
H	1.096942	0.0	0.0
H	0.141123	0.798576	-1.985972
C	-1.843338	0.119953	-1.6934
N	-3.00028	0.225207	-1.867243
C	-0.524317	-1.171996	0.694891
N	-0.958429	-2.115873	1.242316
C	-0.472843	1.237023	0.616334
N	-0.860899	2.245755	1.076339
Br	3.300363	0.0	0.0
