15

C	-0.584916	0.013675	-1.416573
C	0.0	0.0	0.0
Br	0.200079	-1.476761	-2.427109
H	1.097203	0.0	0.0
H	-0.34427	-0.925466	0.472812
C	-2.101636	-0.150148	-1.408551
H	-2.35555	-1.108826	-0.95071
H	-2.505226	-0.123518	-2.422164
H	-2.526122	0.65929	-0.812837
C	-0.237593	1.252379	-2.112015
N	-0.03812	2.272498	-2.660001
N	-0.547208	1.158426	0.726555
H	-0.549967	0.937386	1.715164
H	0.116012	1.919474	0.617259
Br	3.638329	0.0	0.0
