15

C	-0.446384	-0.026699	-1.459922
C	0.0	0.0	0.0
Br	-0.021509	1.708492	-2.307316
H	1.100182	0.0	0.0
H	-0.33241	-0.953813	0.42912
C	0.30791	-1.114145	-2.217156
H	0.048905	-2.087609	-1.788281
H	0.04765	-1.111848	-3.276753
H	1.380385	-0.947415	-2.088225
C	-1.894932	-0.191096	-1.575371
N	-3.047767	-0.396877	-1.680817
N	-0.626751	1.087172	0.747344
H	-0.08686	1.928714	0.575751
H	-0.520818	0.88476	1.734815
Br	3.647961	0.0	0.0
