15

C	-0.55635	-0.012752	-1.426251
C	0.0	0.0	0.0
Br	0.061323	-1.64544	-2.350067
H	1.09801	0.0	0.0
H	-0.341502	0.942499	0.445828
C	-2.081578	-0.006134	-1.457101
H	-2.444062	-0.854228	-0.879018
H	-2.43686	0.920038	-0.993743
H	-2.452302	-0.054861	-2.482069
C	-0.048793	1.125641	-2.189009
N	0.253169	2.08413	-2.798639
N	-0.562113	-1.116563	0.770534
H	-0.45179	-0.888324	1.751937
H	0.03976	-1.917704	0.609089
Br	3.621892	0.0	0.0
