15

C	-0.402309	0.052325	-1.475695
C	0.0	0.0	0.0
Br	-2.382579	0.267335	-1.606341
H	1.095657	0.0	0.0
H	-0.363338	-0.934127	0.444352
C	0.274227	1.206557	-2.193052
H	-0.001084	2.131092	-1.686119
H	1.354903	1.061703	-2.103599
H	-0.016471	1.24796	-3.24333
C	-0.122219	-1.223095	-2.129093
N	0.101399	-2.251739	-2.653267
N	-0.428771	1.206807	0.693868
H	0.299686	1.47846	1.341532
H	-1.284528	1.047807	1.208805
Br	3.575352	0.0	0.0
