15

C	-0.586812	0.022734	-1.415464
C	0.0	0.0	0.0
Br	0.19801	-1.45973	-2.437487
H	1.097227	0.0	0.0
H	-0.343993	-0.928329	0.467794
C	-2.1034	-0.142456	-1.406143
H	-2.35543	-1.104829	-0.955153
H	-2.527587	0.661996	-0.803478
H	-2.508775	-0.109119	-2.418753
C	-0.241087	1.266589	-2.102848
N	-0.039247	2.288733	-2.646271
N	-0.546725	1.153956	0.735081
H	-0.540715	0.928134	1.722403
H	0.113821	1.917082	0.624207
Br	3.639152	0.0	0.0
