18

C	-0.462192	-0.056296	-1.476899
C	0.0	0.0	0.0
Cl	-2.21123	-0.35753	-1.575443
H	1.089031	0.0	0.0
N	-0.194133	1.362022	-2.00108
O	-1.12567	2.147675	-2.143184
O	0.989615	1.605262	-2.19966
C	0.301979	-1.027712	-2.347377
H	0.028646	-2.045033	-2.078877
H	0.055088	-0.850663	-3.397056
H	1.36926	-0.887413	-2.170938
N	-0.448884	-1.297794	0.642957
O	0.132391	-2.3184	0.282862
O	-1.365803	-1.2573	1.457908
N	-0.462985	1.101419	0.754967
H	-1.384371	1.428976	0.509273
H	0.221841	1.840221	0.766652
Cl	3.309576	0.0	0.0
