18

C	-0.373106	0.038899	-1.494535
C	0.0	0.0	0.0
Cl	0.160168	-1.467035	-2.247424
H	1.090576	0.0	0.0
N	-1.883113	0.195209	-1.715016
O	-2.349991	1.251824	-1.281783
O	-2.520235	-0.661208	-2.306079
C	0.324986	1.21462	-2.152818
H	-0.023797	2.148186	-1.710741
H	1.398811	1.102926	-1.97977
H	0.118097	1.219915	-3.224913
N	-0.557226	-1.259183	0.606524
O	-1.777823	-1.399437	0.493675
O	0.196966	-2.018466	1.201595
N	-0.426614	1.088509	0.81862
H	0.334111	1.735486	0.953637
H	-1.264194	1.542319	0.490357
Cl	3.302949	0.0	0.0
