18

C	-0.520375	-0.065084	-1.44412
C	0.0	0.0	0.0
Cl	-2.253506	-0.483022	-1.455018
H	1.090086	0.0	0.0
N	-0.371125	1.372087	-1.965388
O	-1.360363	2.071992	-2.121557
O	0.78794	1.696776	-2.1787
C	0.261729	-0.971889	-2.36893
H	1.324729	-0.771891	-2.231092
H	-0.032945	-0.783416	-3.404072
H	0.061141	-2.009044	-2.116285
N	-0.384694	-1.307045	0.697346
O	-1.089699	-1.229888	1.700478
O	0.045895	-2.351184	0.22043
N	-0.477446	1.146908	0.67605
H	0.149964	1.375453	1.434249
H	-1.413787	1.013255	1.033996
Cl	3.265023	0.0	0.0
