18

C	-0.450373	0.034944	-1.47089
C	0.0	0.0	0.0
Cl	-0.427112	-1.521618	-2.328637
H	1.091349	0.0	0.0
N	-1.914236	0.465939	-1.502568
O	-2.653068	-0.072255	-0.682983
O	-2.262633	1.287404	-2.342569
C	0.410881	1.025011	-2.216666
H	0.114106	1.075954	-3.262713
H	0.305852	2.004601	-1.752506
H	1.448471	0.699252	-2.122954
N	-0.431985	-1.23872	0.767289
O	-1.213608	-1.089018	1.707368
O	0.067736	-2.305375	0.43042
N	-0.441948	1.209509	0.622634
H	-1.319814	1.050204	1.103221
H	0.257453	1.50152	1.294127
Cl	3.275901	0.0	0.0
