18

C	-0.449891	-0.067891	-1.481417
C	0.0	0.0	0.0
Cl	-2.199351	-0.401373	-1.597821
H	1.088981	0.0	0.0
N	-0.217484	1.356756	-2.007009
O	0.917262	1.579418	-2.410958
O	-1.125717	2.177498	-1.935431
C	0.338979	-1.031734	-2.338831
H	0.069333	-2.050591	-2.072769
H	1.402525	-0.884563	-2.143862
H	0.114213	-0.856811	-3.393327
N	-0.450199	-1.299859	0.650299
O	0.103767	-2.326931	0.262697
O	-1.339727	-1.250302	1.492811
N	-0.46053	1.102086	0.755457
H	-1.365736	1.450543	0.483806
H	0.235992	1.831235	0.769139
Cl	3.265485	0.0	0.0
