13
Coordinates from ORCA-job run
  C   -0.93969002045888      0.08220334686380     -0.22008780370933
  C   0.58719303178356      0.38734746490559     -0.27718892832896
  Br  -1.95649607452788      1.72741745260432     -0.51846998035319
  H   0.78677868083370      0.76383369533377     -1.28532716267518
  C   -1.27677682611400     -0.46007697083322      1.09341084413133
  N   -1.48882187973681     -0.89587857484294      2.16478910750081
  C   -1.27226047257508     -0.87088745286668     -1.27573560035557
  N   -1.53863040096634     -1.61139504817477     -2.14869974653982
  N   1.28764007035082     -0.86157451852981     -0.08471592214417
  H   1.41784245009094     -1.06972243779703      0.89802814486987
  H   2.18873879231298     -0.85439500038620     -0.54330591503406
  C   0.93053982660449      1.43913858500221      0.69565687838028
  N   1.27294282240250      2.22298945872097      1.50164608425801
