13
Coordinates from ORCA-job run
  C   -0.85345714039991     -0.26953006496564      0.08429788026907
  C   0.56277066525790      0.34857440524480     -0.10237608532297
  Br  -0.70987618097179     -1.96685249833340      1.05670651181556
  H   0.40185668664556      1.28490475354218     -0.65029779520297
  C   -1.44020645231056     -0.52865676293341     -1.22802942072929
  N   -1.92957847302330     -0.70050494173921     -2.28288080209251
  C   -1.70244179339017      0.63478255654007      0.85600806822731
  N   -2.35970802356508      1.39566422673472      1.46597576724775
  N   1.36578911101798     -0.52508558189774     -0.92195438317595
  H   2.12017784608498     -0.01155018770460     -1.35832304168500
  H   1.75797036529087     -1.28178584261052     -0.37558242766035
  C   1.13328291308597      0.68570811234255      1.21525708722675
  N   1.65142047627756      0.93533182578020      2.24019864108260
