13
Coordinates from ORCA-job run
  C   -0.94677392325020      0.04630402256898     -0.20236713641404
  C   0.57776112152175      0.32995855746709     -0.35818728343085
  Br  -1.97429463267217      1.61820956508242     -0.75269716076623
  H   0.74634675995784      0.52411050679474     -1.42204983164575
  C   -1.24061758786573     -0.25558181686445      1.19603934463961
  N   -1.41171444795633     -0.49356409804302      2.33469110600952
  C   -1.31030632829882     -1.07488034461417     -1.06493212167283
  N   -1.60250648143099     -1.95221052493083     -1.79039617651094
  N   1.28450827872991     -0.86928834942924      0.02842267137313
  H   2.17022918829563     -0.94767177462410     -0.45308596752157
  H   1.44657740206613     -0.90234873650926      1.02774878957610
  C   0.94855392501035      1.53405846804716      0.40564271292611
  N   1.31223672589263      2.44490452505470      1.05317105343774
