13
Coordinates from ORCA-job run
  C   -0.94405514404687     -0.02175139939768     -0.21171535408437
  C   0.56825706885026      0.30573452151457     -0.39625086095510
  Br  -2.03161462147642      1.42003975582640     -0.96565794198614
  H   0.73873355221882      0.36896018258720     -1.47545880716367
  C   -1.24060642507741     -0.15325122148460      1.21245859517948
  N   -1.41962668038314     -0.24998405016875      2.37058781963703
  C   -1.25178795795563     -1.25974462690863     -0.92338268506340
  N   -1.49576660199357     -2.23502183815553     -1.53191458454995
  N   1.32184054640311     -0.80192920240210      0.14485139567422
  H   2.21691252816384     -0.89987572009429     -0.31567232932582
  H   1.47126792889027     -0.70015800307619      1.14187670653040
  C   0.87745743691751      1.61290220614412      0.20899633812847
  N   1.18798836948923      2.61407939561548      0.74028170797884
