15

C	0.0	0.0	0.0
C	-0.336126	0.243347	-1.486103
Cl	1.846639	0.0	0.0
H	0.046063	1.241191	-1.737102
H	0.250732	-0.476422	-2.060888
N	-0.505782	1.059738	0.796424
H	-0.118917	1.957618	0.53779
H	-0.384016	0.896503	1.786904
N	-0.462587	-1.291607	0.418513
H	-0.163166	-1.47675	1.369696
H	-1.482135	-1.234257	0.416051
N	-1.717225	0.143068	-1.874945
H	-2.342058	0.656977	-1.259386
H	-2.042862	-0.813432	-1.827951
Br	-4.536973	0.0	0.0
