15

C	0.0	0.0	0.0
C	-0.33326	-0.296588	-1.476704
Cl	1.846636	0.0	0.0
H	0.259629	0.396844	-2.076828
H	0.041753	-1.305607	-1.689961
N	-0.462288	1.306654	0.369731
H	-0.147952	1.535589	1.306548
H	-1.481091	1.244618	0.389474
N	-0.51037	-1.026178	0.834197
H	-0.117745	-1.933613	0.626625
H	-0.421897	-0.813376	1.817805
N	-1.712275	-0.201665	-1.873018
H	-2.033749	0.756914	-1.84704
H	-2.337653	-0.695939	-1.242637
Br	-4.517918	0.0	0.0
