15

C	0.0	0.0	0.0
C	-0.480713	-0.212337	-1.427748
Cl	1.830058	0.0	0.0
H	-0.06639	0.587239	-2.05312
H	-1.57125	-0.095877	-1.369847
N	-0.463957	1.27109	0.454491
H	-0.127117	1.474778	1.386238
H	-0.18699	2.013583	-0.174668
N	-0.458652	-1.087896	0.818603
H	-1.479785	-0.993835	0.831456
H	-0.119125	-0.973918	1.766432
N	-0.041283	-1.50966	-1.948972
H	-0.696539	-1.782408	-2.673144
H	-0.16536	-2.173243	-1.188684
Br	-4.005186	0.0	0.0
