15

C	0.0	0.0	0.0
C	-0.420993	0.185972	-1.450768
Cl	1.884884	0.0	0.0
H	-1.513884	0.237862	-1.390959
H	-0.036675	1.145031	-1.828689
N	-0.452848	1.077149	0.780748
H	-0.093014	1.965347	0.46579
H	-0.245693	0.924432	1.757888
N	-0.453997	-1.213017	0.593922
H	-1.467996	-1.08466	0.680767
H	-0.300487	-1.948503	-0.088888
N	-0.030359	-0.970041	-2.248383
H	0.919465	-0.865911	-2.580367
H	-0.647933	-1.057431	-3.04218
Br	-3.928177	0.0	0.0
