15

C	0.0	0.0	0.0
C	-0.326262	-0.205562	-1.499543
Cl	1.847983	0.0	0.0
H	0.071684	-1.186897	-1.788544
H	0.248823	0.536552	-2.062337
N	-0.451594	1.227173	0.58985
H	-0.165051	2.01363	0.019998
H	-1.470615	1.182633	0.615106
N	-0.536226	-1.049252	0.767473
H	-0.398236	-0.896132	1.756187
H	-0.209063	-1.958817	0.480063
N	-1.711926	-0.117235	-1.882248
H	-2.316456	-0.665534	-1.276686
H	-2.060557	0.827439	-1.784953
Br	-4.544964	0.0	0.0
