15

C	0.0	0.0	0.0
C	-0.354392	-0.40869	-1.443155
Cl	1.846333	0.0	0.0
H	0.258145	-1.280316	-1.683115
H	-0.020204	0.40829	-2.096527
N	-0.507987	1.294054	0.280627
H	-0.361669	1.572795	1.241058
H	-0.149298	1.997119	-0.350224
N	-0.448825	-0.998099	0.928936
H	-1.467519	-0.946075	0.928418
H	-0.124701	-0.774471	1.863315
N	-1.732817	-0.716463	-1.710637
H	-2.385028	-0.030427	-1.338877
H	-1.997151	-1.593428	-1.282152
Br	-4.573928	0.0	0.0
