15

C	0.0	0.0	0.0
C	-0.353949	0.26281	-1.476735
Cl	1.846492	0.0	0.0
H	-0.014794	-0.61336	-2.045863
H	0.256107	1.108709	-1.801872
N	-0.449693	1.085129	0.825192
H	-0.12581	0.955222	1.77706
H	-1.468205	1.030292	0.830327
N	-0.508075	-1.259782	0.408883
H	-0.362995	-1.439608	1.393003
H	-0.143184	-2.022418	-0.145679
N	-1.732613	0.53729	-1.77593
H	-2.382639	-0.112189	-1.341348
H	-2.002379	1.451493	-1.437971
Br	-4.566938	0.0	0.0
