12
Coordinates from ORCA-job run
  C   -0.83331199282106      0.13924251540597      0.20372587732788
  C   0.59923716020552      0.02647165946814      0.73319926648956
  Cl  -1.85539124074581      0.48223013513328      1.64261523697864
  H   0.67367957952728     -0.78917061610170      1.45323161182543
  H   0.90352052689957      0.96059355559811      1.20661778161293
  C   -1.28526095637501     -1.11861993767950     -0.39219838777023
  N   -1.65240663966487     -2.15136043105042     -0.81566209608485
  C   -0.97439002081082      1.25149718157433     -0.73667238901081
  N   -1.08819355693695      2.17753576221824     -1.45074948511875
  N   1.59040103308087     -0.25692159157982     -0.35496919998584
  O   1.16964752005454     -0.36828236264492     -1.50321111924800
  O   2.75246858758675     -0.35221587034171      0.01607290298404
