12
Coordinates from ORCA-job run
  C   -0.81448513205229      0.22838984762831      0.20772680755149
  C   0.61415747974331      0.02104872910020      0.71901861170260
  Cl  -1.76765321005140      0.75788540662305      1.63807726023283
  H   1.01239468954168      0.95429835728870      1.11873150814248
  H   0.63108693888730     -0.74587640877551      1.49414541536866
  C   -1.39224748734043     -1.01903872399922     -0.29353944116865
  N   -1.84706848795547     -2.04202253988038     -0.65011507471984
  C   -0.87622872478174      1.28533520187095     -0.80238136093075
  N   -0.91078155162518      2.17054537804190     -1.57417078305520
  N   1.54992922731617     -0.42776954765944     -0.36228277691680
  O   1.09587220467470     -0.57271155930715     -1.49388377623981
  O   2.70502405364337     -0.61108414093141     -0.00332638996701
