12
Coordinates from ORCA-job run
  C   -0.84340888314916      0.11729891924037      0.17200558610136
  C   0.54791677635325     -0.13247869619680      0.76157834033701
  Cl  -1.95823832243384      0.19578006022717      1.58046464523069
  H   0.56233344266178     -1.07407491643160      1.31168429526774
  H   0.83066343263560      0.68434556256339      1.42657949697552
  C   -1.26728406088646     -0.98696156882523     -0.68968833507287
  N   -1.61840602294869     -1.90365608116618     -1.33545331669380
  C   -0.90693217502844      1.39622625191508     -0.53627269823715
  N   -0.96231129987816      2.44833235843187     -1.05642123752430
  N   1.60808428210114     -0.22475040777727     -0.29385775984776
  O   1.26676174844487     -0.09509047965006     -1.46627184387344
  O   2.73982108212812     -0.42397100233075      0.12565282733698
