12
Coordinates from ORCA-job run
  C   -0.76261902893544      0.13082808948002      0.03023306534736
  C   0.74501607741418      0.33068397023318      0.22029717151126
  Cl  -1.44222457564697     -0.69968931024951      1.46160685730038
  H   0.93088589326990      0.94484887101052      1.09987561140001
  H   1.17775956271682      0.79902237184476     -0.66743304244789
  C   -1.10058675054522     -0.60982104980498     -1.18829830582630
  N   -1.40786854158482     -1.12985315341889     -2.19632263904146
  C   -1.35725755069376      1.46954375669437     -0.05753966967544
  N   -1.78805155227132      2.56089664231038     -0.12603782734244
  N   1.47796398929031     -0.95761386332507      0.43060289450587
  O   2.48723495280407     -0.88170930272074      1.12097386630618
  O   1.04174752418225     -1.95713702205403     -0.12795798203751
