12
Coordinates from ORCA-job run
  C   -0.75756939357397      0.11535972629100      0.11081814116500
  C   0.75531585017084      0.36033927684789      0.11327331329077
  Cl  -1.24410792879308     -0.64155585153555      1.65680376997132
  H   1.06964479637041      0.78394844789771     -0.84407431941289
  H   1.02225776927319      1.03050081967686      0.92875561536035
  C   -1.21145699703341     -0.70557056265313     -1.01511570297327
  N   -1.61847163283485     -1.29453325725926     -1.94691836895886
  C   -1.39728591587632      1.43258958037301      0.01467964378421
  N   -1.86629109967342      2.50722453587837     -0.06703509340694
  N   1.54503496233828     -0.89589018169139      0.31082758577842
  O   1.07918395952417     -1.93622704719636     -0.13874254169223
  O   2.62274563010818     -0.75618548662915      0.87672795709412
