15

C	-0.434522	0.00727	-1.440661
C	0.0	0.0	0.0
Cl	-2.25005	0.523966	-1.593884
H	1.08954	0.0	0.0
H	0.083572	0.844093	-1.901085
N	-0.152226	-1.188396	-2.115638
H	-0.290143	-1.091034	-3.11037
H	-0.697764	-1.952392	-1.744366
N	-0.471248	-1.14475	0.797702
O	0.005504	-1.257791	1.922684
O	-1.26867	-1.947014	0.293397
N	-0.419057	1.260918	0.654099
O	-0.050527	2.281329	0.076987
O	-1.080151	1.232901	1.688737
F	2.451723	0.0	0.0
