15

C	-0.542488	0.021332	-1.415206
C	0.0	0.0	0.0
Cl	0.225628	1.322058	-2.370594
H	1.087904	0.0	0.0
H	-0.188205	-0.902822	-1.878939
N	-1.975424	0.221707	-1.45402
H	-2.399721	-0.551667	-0.953645
H	-2.289619	0.185703	-2.416963
N	-0.39359	-1.25362	0.69148
O	-1.03712	-2.111398	0.069891
O	0.006383	-1.389269	1.841331
N	-0.560545	1.121455	0.79056
O	-1.522821	0.905873	1.530392
O	-0.038274	2.217329	0.611952
F	2.468773	0.0	0.0
