15

C	-0.27648	0.094848	-1.490377
C	0.0	0.0	0.0
Cl	0.16617	-1.519563	-2.273498
H	1.087616	0.0	0.0
H	-1.328533	0.232943	-1.749073
N	0.56199	1.154543	-1.908664
H	0.584902	1.242516	-2.914295
H	1.498974	0.980682	-1.525718
N	-0.670117	-1.087501	0.735022
O	-1.527608	-1.766151	0.174039
O	-0.339668	-1.201149	1.915825
N	-0.523335	1.254957	0.6279
O	0.281703	2.06865	1.061907
O	-1.751296	1.38383	0.64739
F	2.538574	0.0	0.0
