15

C	-0.267732	0.191405	-1.494302
C	0.0	0.0	0.0
Cl	-0.502651	-1.51717	-2.289315
H	1.086795	0.0	0.0
H	-1.225717	0.659147	-1.715777
N	0.836316	0.894952	-1.962413
H	0.87512	1.0211	-2.960426
H	1.716612	0.584593	-1.514332
N	-0.656298	-1.185834	0.588394
O	-1.874837	-1.102902	0.761372
O	0.034914	-2.164048	0.842546
N	-0.487951	1.163369	0.788534
O	-1.001291	2.11776	0.20824
O	-0.306101	1.089051	2.00131
F	2.574127	0.0	0.0
