15

C	-0.265006	0.109876	-1.503412
C	0.0	0.0	0.0
Cl	-0.416542	-1.633599	-2.212029
H	1.087081	0.0	0.0
H	-1.235499	0.532883	-1.751824
N	0.822689	0.837666	-1.993341
H	0.882864	0.884882	-2.99833
H	1.702916	0.552764	-1.527072
N	-0.650212	-1.158125	0.649275
O	-1.866673	-1.065463	0.835234
O	0.042526	-2.126197	0.934599
N	-0.504876	1.199996	0.720336
O	-1.149636	2.052983	0.10982
O	-0.221005	1.24788	1.91511
F	2.573992	0.0	0.0
