15

C	-0.435578	0.010771	-1.440302
C	0.0	0.0	0.0
Cl	-2.262291	0.503743	-1.580091
H	1.089553	0.0	0.0
H	0.065862	0.860525	-1.895369
N	-0.137784	-1.172392	-2.128041
H	-0.286073	-1.069022	-3.1209
H	-0.662764	-1.951058	-1.758011
N	-0.467592	-1.145588	0.795786
O	-1.235709	-1.96836	0.278047
O	-0.012705	-1.244394	1.930834
N	-0.414229	1.263342	0.65504
O	-0.044316	2.281758	0.075151
O	-1.070925	1.239788	1.691978
F	2.45014	0.0	0.0
