15

C	-0.495288	0.035964	-1.42309
C	0.0	0.0	0.0
Cl	-2.353749	-0.451938	-1.459696
H	1.089724	0.0	0.0
H	-0.571727	1.066764	-1.752472
N	0.286316	-0.740171	-2.279064
H	-0.128737	-0.849859	-3.192203
H	0.540465	-1.624656	-1.860415
N	-0.418668	-1.246728	0.67192
O	-0.029267	-2.273885	0.111199
O	-1.096284	-1.220883	1.69225
N	-0.426567	1.177722	0.781926
O	-0.007748	1.238076	1.935378
O	-1.098796	2.054676	0.230555
F	2.438063	0.0	0.0
