15

C	-0.307892	0.108845	-1.498595
C	0.0	0.0	0.0
Cl	-0.312245	-1.560634	-2.191363
H	1.088227	0.0	0.0
H	-1.304612	0.509584	-1.684865
N	0.705785	0.889531	-2.144008
H	1.590317	0.680635	-1.661942
H	0.480118	1.863752	-1.982452
N	-0.666108	-1.142925	0.662034
O	-1.898289	-1.091661	0.715105
O	0.024304	-2.068187	1.071844
N	-0.469388	1.207783	0.718012
O	-0.505871	1.143135	1.945151
O	-0.739623	2.215499	0.0625
F	2.53179	0.0	0.0
