15

C	-0.286337	0.12387	-1.506412
C	0.0	0.0	0.0
Cl	-0.422294	-1.542388	-2.200192
H	1.088043	0.0	0.0
H	-1.246642	0.602251	-1.700845
N	0.787527	0.825216	-2.143827
H	0.617644	1.815377	-2.020005
H	1.651774	0.586369	-1.634745
N	-0.681537	-1.131774	0.659888
O	-1.913033	-1.06894	0.707534
O	0.00064	-2.05997	1.080721
N	-0.444159	1.220848	0.712344
O	-0.538852	1.150457	1.93479
O	-0.623294	2.248308	0.05446
F	2.539746	0.0	0.0
