15

C	-0.483478	-0.02629	-1.434009
C	0.0	0.0	0.0
Cl	0.147008	1.492279	-2.255922
H	1.087856	0.0	0.0
H	0.077606	-0.823981	-1.914429
N	-1.877649	-0.232943	-1.592716
H	-2.383986	0.546271	-1.194844
H	-2.115549	-0.339994	-2.569305
N	-0.448416	-1.254663	0.652037
O	-0.145543	-2.28932	0.063589
O	-1.056161	-1.200059	1.720537
N	-0.524151	1.128863	0.801018
O	0.102153	1.421016	1.813912
O	-1.548915	1.709324	0.422667
F	2.471028	0.0	0.0
