16
Coordinates from ORCA-job run
  C   0.89750150312082     -0.63781605580350      0.14973568644417
  C   -0.37105643743580     -0.37749429158981     -0.67152427191016
  Cl  0.75645960519389     -2.26270820250496      0.89182952162893
  H   -0.46698590702520     -1.18058507913360     -1.40520600337199
  H   1.73190799596654     -0.71037833043889     -0.54951399238322
  C   1.17869234035382      0.40085228842259      1.21657100496712
  H   1.23465566006532      1.39814480787571      0.77306246616791
  H   2.13256146937187      0.18590119541249      1.69984437189750
  H   0.40339610661987      0.40093544832358      1.98317699066722
  N   -0.06902510142373      0.84482638136121     -1.50416912055695
  O   -0.58763655080006      1.91397842446875     -1.19072481064058
  O   0.72470376827895      0.68111939914151     -2.42905646126723
  C   -1.64796267506284     -0.19414794235403      0.11617033229009
  H   -1.59076317891816      0.66492339871267      0.78161606093566
  H   -1.84273926562755     -1.09351713557476      0.70143989476832
  H   -2.48670933267775     -0.03603430631897     -0.56325166963679
