16
Coordinates from ORCA-job run
  C   0.53411483298349     -0.42350305142518      0.71030053760255
  C   -0.35641582856679     -0.19564765710002     -0.51372767892231
  Cl  -0.27774366051295      0.08837490776164      2.22129075305865
  H   0.19493753214417     -0.59393665130609     -1.36968848364125
  H   0.64592264257693     -1.50809378556431      0.79424589546516
  C   1.89900416219265      0.23378252584102      0.61841408438190
  H   1.81682066297427      1.32030686669972      0.64721575137280
  H   2.39107068084463     -0.04787501518957     -0.31559005827235
  H   2.51909033661226     -0.08616438285333      1.45660834561700
  N   -0.45208437852565      1.27515040785990     -0.80055796328962
  O   -1.37306639236022      1.90303284807138     -0.28494871503442
  O   0.42801376428384      1.75316499631252     -1.51709293890421
  C   -1.73671222292542     -0.80976295347549     -0.42491049157017
  H   -2.31314098342473     -0.35957250953429      0.37977433384434
  H   -2.27548512858082     -0.66673624979326     -1.36341426250898
  H   -1.64332601971567     -1.88252029630465     -0.23991910919908
