16

C	0.0	0.0	0.0
C	-0.419147	0.053294	-1.518357
Br	2.062369	0.0	0.0
H	0.475387	0.346749	-2.072637
N	-0.514993	1.023607	0.738735
H	-0.970157	0.701915	1.582433
H	-1.093256	1.631925	0.168881
N	-0.262983	-1.363119	0.688859
O	-0.756866	-1.324968	1.809122
O	0.092586	-2.367348	0.091967
N	-1.419072	1.088436	-1.707351
H	-1.526539	1.270271	-2.698091
H	-2.322428	0.76038	-1.326198
C	-0.816463	-1.24871	-2.094162
N	-1.141448	-2.164648	-2.755715
Cl	-3.781752	0.0	0.0
