13
Coordinates from ORCA-job run
  C   -0.76071003604552     -0.15197299216226      0.20048450115833
  C   0.61860737139733     -0.21645416439253      0.82578532014110
  Cl  -1.95072254902175     -0.30545761755032      1.50859442824650
  H   0.76475169504984     -1.16907658388739      1.33424555037503
  H   0.75157910657339      0.60774685775461      1.52551773563288
  C   -0.98608446111258     -1.18670915249687     -0.79645342496309
  N   -1.14977110886955     -2.07881715440230     -1.54391610733125
  N   -0.99423678428129      1.23377733799534     -0.43469249263405
  O   -1.71100789567660      1.26624137474850     -1.42006678498846
  O   -0.47885154592818      2.17109102475398      0.15338423745855
  N   1.69805171971480     -0.09362395942501     -0.20418448622404
  O   2.83082013259140     -0.34147445162702      0.18495764505526
  O   1.36657435560871      0.26472948069126     -1.33165612192676
