13
Coordinates from ORCA-job run
  C   -0.74711896790571     -0.15447800127027      0.23968547203396
  C   0.62602647251273      0.05332777474249      0.84713911682138
  Cl  -1.93592819715694     -0.05770378780784      1.55442302775478
  H   0.84066291682929     -0.72131810645206      1.58287409589573
  H   0.68568460800920      1.03793991579299      1.30929699410242
  C   -0.88045653817277     -1.42592120002646     -0.45378742863796
  N   -0.97810152564272     -2.49097487837126     -0.94119027658867
  N   -1.08184186921536      0.99768083314572     -0.72939994309563
  O   -1.79236701410924      0.71878788675432     -1.67974420865271
  O   -0.64528656737335      2.09192915777710     -0.40996284945716
  N   1.70333020978122     -0.00921603575444     -0.18998263228979
  O   1.35615260558067      0.01356445107399     -1.36841040368691
  O   2.84824386686298     -0.05361800960429      0.23805903580056
