13
Coordinates from ORCA-job run
  C   -0.58600262970486      0.06986042114707      0.16537474775031
  C   0.85909751004949      0.29497295561506     -0.25586913855484
  Cl  -0.87400328633605      0.74426268109974      1.77322368463105
  H   1.09392293320161      1.35494670035463     -0.23098863991014
  H   1.03340747444036     -0.12795014253387     -1.24578520188044
  C   -1.01782143932993     -1.31888726552635      0.10926515505117
  N   -1.39653469120771     -2.42926212947083      0.03182403701153
  N   -1.50242036022374      0.85172860976059     -0.82019809773276
  O   -2.69615308228486      0.63077793366809     -0.71668653588338
  O   -0.94512973699766      1.62389383129380     -1.58788172933032
  N   1.78142650478627     -0.39439028111888      0.69607088699153
  O   2.51935237189052      0.32095579914813      1.36668172810929
  O   1.73085843171654     -1.62090911343717      0.71596910374701
