17

C	0.0	0.0	0.0
C	-0.581094	0.029055	-1.396556
F	1.394706	0.0	0.0
H	-1.677149	0.156138	-1.149842
H	-0.317166	0.922287	0.487311
C	-0.500309	-1.185094	0.791524
H	-1.595147	-1.11849	0.727205
H	-0.161079	-1.097233	1.827736
H	-0.113233	-2.122323	0.382728
C	-0.294392	-1.197026	-2.233054
H	-0.650891	-1.063187	-3.253593
H	0.774124	-1.423722	-2.270019
H	-0.829583	-2.040109	-1.793916
N	-0.091331	1.267107	-2.075109
O	0.44061	1.17717	-3.185616
O	-0.256717	2.337204	-1.491591
F	-2.898351	0.0	0.0
