17

C	0.0	0.0	0.0
C	-0.313187	0.020066	-1.529824
F	1.393152	0.0	0.0
H	-0.193435	1.047785	-1.879567
H	-0.3495	0.945368	0.419369
C	-0.595262	-1.148092	0.760555
H	-0.285994	-2.1022	0.330717
H	-0.276797	-1.103539	1.806845
H	-1.686712	-0.997741	0.686241
C	-1.611678	-0.57558	-2.019586
H	-2.449695	-0.185292	-1.389616
H	-1.592768	-1.657682	-1.870286
H	-1.71949	-0.365742	-3.090243
N	0.815423	-0.693553	-2.237926
O	1.511579	-0.037872	-3.015724
O	0.956102	-1.897416	-2.036402
F	-3.233927	0.0	0.0
