17

C	0.0	0.0	0.0
C	-0.435624	0.290343	-1.45527
F	1.395786	0.0	0.0
H	0.493348	0.289399	-2.038825
H	-0.319197	0.857618	0.593023
C	-0.47213	-1.25689	0.688952
H	-1.566568	-1.214977	0.637632
H	-0.058616	-2.142928	0.210807
H	-0.129321	-1.215242	1.728708
C	-1.178478	1.60426	-1.581558
H	-0.564474	2.395349	-1.138454
H	-1.379442	1.855805	-2.624057
H	-2.104069	1.443431	-1.013777
N	-1.214151	-0.814689	-2.119875
O	-2.168846	-0.524217	-2.829164
O	-0.750734	-1.952134	-2.020454
F	-2.769019	0.0	0.0
