14

C	-0.455278	-0.038368	-1.468756
C	0.0	0.0	0.0
F	-0.037645	-1.231855	-2.007641
H	1.092417	0.0	0.0
C	-1.920891	0.051519	-1.632896
N	-3.075644	0.148472	-1.826313
C	0.156674	1.081492	-2.205943
N	0.583667	1.971845	-2.842958
N	-0.533281	-1.244917	0.669462
O	0.26721	-2.130742	0.928189
O	-1.74914	-1.267651	0.872767
C	-0.53418	1.169996	0.673119
N	-0.952249	2.129159	1.208029
Br	3.289994	0.0	0.0
