14

C	-0.461454	-0.032377	-1.469696
C	0.0	0.0	0.0
F	-0.146413	1.203813	-1.997766
H	1.092474	0.0	0.0
C	0.218169	-1.060619	-2.273165
N	0.679568	-1.873464	-2.985079
C	-1.922757	-0.204339	-1.578885
N	-3.090142	-0.285068	-1.679564
N	-0.422219	-1.236678	0.727302
O	-0.737708	-2.203152	0.034598
O	-0.361244	-1.205148	1.947672
C	-0.529977	1.173884	0.670351
N	-0.969101	2.133305	1.185424
Br	3.222243	0.0	0.0
