14

C	-0.468098	-0.026105	-1.468279
C	0.0	0.0	0.0
F	-0.143006	1.207246	-1.999222
H	1.094695	0.0	0.0
C	0.202696	-1.062769	-2.268672
N	0.709497	-1.841005	-2.988736
C	-1.931785	-0.187464	-1.56853
N	-3.101143	-0.271192	-1.652954
N	-0.421296	-1.242437	0.720714
O	-0.733823	-2.205297	0.02237
O	-0.357824	-1.218196	1.94132
C	-0.524268	1.169192	0.682995
N	-0.960079	2.122452	1.214332
Br	3.222679	0.0	0.0
