14

C	-0.470777	0.000321	-1.467268
C	0.0	0.0	0.0
F	-0.142502	1.238791	-1.978904
H	1.094676	0.0	0.0
C	0.188655	-1.028988	-2.286302
N	0.696563	-1.817581	-2.993301
C	-1.936809	-0.14994	-1.565822
N	-3.106995	-0.21475	-1.650991
N	-0.428744	-1.249518	0.702025
O	-0.36747	-1.245926	1.922368
O	-0.758428	-2.197902	-0.009138
C	-0.520186	1.160588	0.700226
N	-0.939574	2.111237	1.248983
Br	3.224464	0.0	0.0
