14

C	-0.448875	0.095078	-1.465651
C	0.0	0.0	0.0
F	0.059985	-0.971314	-2.160971
H	1.091462	0.0	0.0
C	-1.918066	0.12691	-1.618106
N	-3.076475	0.245448	-1.777687
C	0.089454	1.339475	-2.048686
N	0.463724	2.325634	-2.567032
N	-0.468402	-1.27828	0.640092
O	-1.23253	-1.999659	0.005804
O	-0.037209	-1.484423	1.764648
C	-0.510664	1.115931	0.778548
N	-0.943494	2.019003	1.393673
Br	3.241975	0.0	0.0
