14

C	-0.443966	-0.108136	-1.468006
C	0.0	0.0	0.0
F	0.216871	-1.131476	-2.089399
H	1.104756	0.0	0.0
C	-1.900369	-0.326239	-1.594207
N	-3.061041	-0.459543	-1.718424
C	-0.106493	1.153118	-2.158654
N	0.124915	2.14493	-2.745325
N	-0.429111	-1.191146	0.803629
O	-0.81141	-2.184233	0.19035
O	-0.306783	-1.086496	2.016512
C	-0.521652	1.207289	0.614442
N	-0.953092	2.198933	1.075405
Br	3.225323	0.0	0.0
