14

C	-0.442176	-0.273033	-1.447346
C	0.0	0.0	0.0
F	-0.060162	-1.552785	-1.771262
H	1.104961	0.0	0.0
C	-1.894026	-0.13431	-1.670176
N	-3.031504	0.022415	-1.915233
C	0.237641	0.675354	-2.348994
N	0.707318	1.430026	-3.116407
N	-0.501478	-1.099034	0.901069
O	-1.584838	-1.607147	0.612901
O	0.200729	-1.373755	1.862928
C	-0.5278	1.266885	0.475271
N	-0.981276	2.282769	0.851971
Br	3.269684	0.0	0.0
