12

C	-0.521335	-0.127284	-1.42088
C	0.0	0.0	0.0
Br	-0.385051	1.630476	-2.289207
H	1.08811	0.0	0.0
H	-1.58275	-0.379739	-1.462436
H	-0.362491	0.907421	0.48045
C	0.208606	-1.093768	-2.236491
N	0.749637	-1.853657	-2.949994
N	-0.485539	-1.124451	0.800196
O	-0.861491	-2.14753	0.211149
O	-0.455979	-1.007346	2.02523
F	2.500566	0.0	0.0
