12

C	-0.388315	0.007167	-1.466139
C	0.0	0.0	0.0
Br	0.153579	-1.701226	-2.252412
H	1.091341	0.0	0.0
H	0.192419	0.769189	-1.98245
H	-0.421342	-0.837236	0.552354
C	-1.811741	0.188492	-1.731163
N	-2.961698	0.3356	-1.922976
N	-0.455531	1.235521	0.637194
O	-0.558276	2.246607	-0.068258
O	-0.647712	1.21848	1.853127
F	2.511906	0.0	0.0
