12

C	-0.564111	0.050129	-1.402602
C	0.0	0.0	0.0
Br	0.548908	1.094972	-2.64264
H	1.087914	0.0	0.0
H	-1.533017	0.550105	-1.439981
H	-0.31271	-0.905824	0.52296
C	-0.700124	-1.293769	-1.949637
N	-0.873907	-2.377054	-2.370194
N	-0.485214	1.125137	0.800687
O	-0.401093	1.016618	2.024736
O	-0.91068	2.133225	0.224295
F	2.492623	0.0	0.0
