12

C	-0.400237	0.067524	-1.462109
C	0.0	0.0	0.0
Br	0.150313	-1.598879	-2.324374
H	1.091379	0.0	0.0
H	0.16721	0.85815	-1.949025
H	-0.417576	-0.861296	0.519063
C	-1.828216	0.242554	-1.708402
N	-2.980042	0.382623	-1.890317
N	-0.455436	1.205296	0.693992
O	-0.564531	2.246318	0.03395
O	-0.641395	1.13421	1.908494
F	2.512653	0.0	0.0
