12

C	-0.390962	0.011654	-1.465046
C	0.0	0.0	0.0
Br	0.170426	-1.681527	-2.26688
H	1.091329	0.0	0.0
H	0.178571	0.784791	-1.977489
H	-0.419778	-0.840907	0.548398
C	-1.817943	0.175118	-1.721581
N	-2.973605	0.304855	-1.893809
N	-0.458867	1.230737	0.644092
O	-0.568066	2.244898	-0.055614
O	-0.647389	1.207323	1.860111
F	2.511602	0.0	0.0
