12

C	-0.458836	0.087368	-1.435127
C	0.0	0.0	0.0
Br	0.350511	-1.243045	-2.621964
H	1.088234	0.0	0.0
H	-0.068666	1.035253	-1.812097
H	-0.320727	0.896066	0.53658
C	-1.906435	0.076538	-1.628607
N	-3.072379	0.147337	-1.754
N	-0.556039	-1.136965	0.735747
O	-0.48405	-1.081583	1.964102
O	-1.032048	-2.088052	0.108766
F	2.51296	0.0	0.0
