12

C	-0.454933	0.1298	-1.432683
C	0.0	0.0	0.0
Br	0.245497	-1.266142	-2.614611
H	1.088224	0.0	0.0
H	0.026576	1.039241	-1.799972
H	-0.302324	0.891488	0.555253
C	-1.895653	0.24986	-1.634339
N	-3.047	0.433158	-1.78523
N	-0.578123	-1.143036	0.717793
O	-1.251299	-1.964567	0.088421
O	-0.348275	-1.215988	1.924263
F	2.520189	0.0	0.0
