12

C	-0.390198	-0.018757	-1.442951
C	0.0	0.0	0.0
Br	-2.357406	-0.142188	-1.744469
H	1.093614	0.0	0.0
H	-0.001397	-0.949809	-1.858057
H	-0.358385	-0.888493	0.516966
C	0.119512	1.075804	-2.26006
N	0.547669	1.885839	-2.994757
N	-0.506911	1.155567	0.736189
O	-0.682395	2.212616	0.126842
O	-0.68141	1.015101	1.948035
F	2.494245	0.0	0.0
