17

C	-0.439403	0.062079	-1.467317
C	0.0	0.0	0.0
Cl	0.25176	-1.357592	-2.343931
H	1.095566	0.0	0.0
C	-1.95101	0.036523	-1.681641
H	-2.354142	-0.880004	-1.246017
H	-2.41135	0.898432	-1.192136
H	-2.193399	0.062548	-2.745906
C	0.125278	1.265856	-2.086219
N	0.493318	2.259882	-2.593667
C	-0.55278	-1.180631	0.63083
N	-1.018845	-2.115639	1.173805
C	-0.365974	1.261332	0.787185
H	0.040887	1.152229	1.794522
H	-1.44063	1.457376	0.864048
H	0.134363	2.118819	0.333429
F	2.524866	0.0	0.0
