17

C	-0.251265	-0.028212	-1.524713
C	0.0	0.0	0.0
Cl	0.245025	1.562718	-2.225334
H	1.096743	0.0	0.0
C	0.650887	-1.096511	-2.136724
H	0.304494	-2.085236	-1.826117
H	0.650746	-1.036582	-3.226788
H	1.644789	-0.905302	-1.711749
C	-1.666631	-0.195382	-1.867698
N	-2.80384	-0.340349	-2.133681
C	-0.474556	-1.257528	0.553984
N	-0.865426	-2.261759	1.026801
C	-0.595504	1.182204	0.751195
H	-0.399217	1.058787	1.818293
H	-0.110522	2.102597	0.427871
H	-1.677879	1.271938	0.60497
F	2.590827	0.0	0.0
