17

C	-0.444498	0.036555	-1.466033
C	0.0	0.0	0.0
Cl	0.259931	-1.390159	-2.323093
H	1.095628	0.0	0.0
C	-1.955341	-0.002913	-1.682625
H	-2.192452	0.007423	-2.748298
H	-2.419642	0.865501	-1.208519
H	-2.355774	-0.914173	-1.234527
C	0.097176	1.235752	-2.114971
N	0.433205	2.220422	-2.660612
C	-0.554773	-1.166189	0.654465
N	-1.022257	-2.087818	1.217977
C	-0.362786	1.277105	0.762158
H	-1.437504	1.481404	0.828601
H	0.145165	2.123968	0.295605
H	0.03742	1.184548	1.77378
F	2.520365	0.0	0.0
