17

C	-0.21037	0.096409	-1.513347
C	0.0	0.0	0.0
Cl	-1.947075	0.453424	-1.977806
H	1.098071	0.0	0.0
C	0.709304	1.174266	-2.085836
H	1.692204	0.977572	-1.636433
H	0.737001	1.119708	-3.173067
H	0.35198	2.162811	-1.791611
C	0.10765	-1.19125	-2.140891
N	0.358005	-2.21079	-2.670912
C	-0.594723	-1.194011	0.563355
N	-1.076484	-2.140638	1.068928
C	-0.414488	1.252059	0.769126
H	-0.24627	1.076937	1.834479
H	-1.463294	1.521603	0.615414
H	0.230006	2.082922	0.477626
F	2.581709	0.0	0.0
