17

C	-0.216265	0.092686	-1.51318
C	0.0	0.0	0.0
Cl	-1.948732	0.478717	-1.969265
H	1.098089	0.0	0.0
C	0.719829	1.148229	-2.095481
H	0.743212	1.090945	-3.184949
H	1.702543	0.937958	-1.648286
H	0.383216	2.14381	-1.803157
C	0.074931	-1.201721	-2.13618
N	0.321483	-2.232369	-2.643733
C	-0.5944	-1.190481	0.570864
N	-1.075031	-2.137261	1.077407
C	-0.411252	1.255281	0.766653
H	-1.462358	1.520316	0.624627
H	0.225645	2.086726	0.462165
H	-0.230203	1.086913	1.830061
F	2.583023	0.0	0.0
