17

C	-0.246403	-0.038497	-1.525691
C	0.0	0.0	0.0
Cl	0.230276	1.558256	-2.229967
H	1.096789	0.0	0.0
C	0.671009	-1.098529	-2.131508
H	0.664885	-1.045646	-3.221666
H	1.664486	-0.892882	-1.709479
H	0.340095	-2.091026	-1.814769
C	-1.658014	-0.227441	-1.874157
N	-2.792611	-0.401179	-2.134601
C	-0.471489	-1.256514	0.559308
N	-0.857818	-2.261879	1.033496
C	-0.600749	1.185385	0.742896
H	-0.42003	1.063233	1.812462
H	-0.109041	2.103133	0.424468
H	-1.680572	1.279402	0.582726
F	2.592682	0.0	0.0
