16

C	0.0	0.0	0.0
C	-0.615842	0.024054	-1.415341
Cl	1.779928	0.0	0.0
H	-1.711169	0.150357	-1.267542
C	-0.395182	1.252774	0.654342
N	-0.624355	2.264149	1.20601
C	-0.509312	-1.208713	0.776405
H	-1.603538	-1.205182	0.744216
H	-0.167236	-1.141557	1.8103
H	-0.105245	-2.120572	0.331707
N	-0.442449	-1.308125	-2.11127
O	-1.467219	-1.856665	-2.502121
O	0.703291	-1.733174	-2.241472
C	-0.048798	1.057929	-2.267844
N	0.402053	1.88984	-2.964577
Br	-3.766213	0.0	0.0
