16

C	0.0	0.0	0.0
C	-0.300274	0.153172	-1.515074
Cl	1.789913	0.0	0.0
H	0.197979	-0.697051	-1.987385
C	-0.438777	1.105111	0.849408
N	-0.639988	1.951105	1.639726
C	-0.490679	-1.343649	0.515508
H	-1.582949	-1.343127	0.487637
H	-0.144076	-1.480098	1.541697
H	-0.081672	-2.141614	-0.109322
N	0.436747	1.357777	-2.077795
O	1.167121	1.148768	-3.040935
O	0.21965	2.43998	-1.548024
C	-1.639288	0.247362	-2.116111
N	-2.3001	0.337607	-3.092456
Br	-3.627865	0.0	0.0
