16

C	0.0	0.0	0.0
C	-0.583616	-0.028411	-1.425472
Cl	1.784329	0.0	0.0
H	-1.687423	-0.088653	-1.277145
C	-0.401958	1.277934	0.602764
N	-0.614969	2.310175	1.122855
C	-0.474239	-1.159422	0.873653
H	-0.059795	-2.097464	0.5081
H	-1.566114	-1.188052	0.851977
H	-0.124054	-0.984134	1.892127
N	-0.144122	-1.267488	-2.158548
O	0.689575	-1.147148	-3.054357
O	-0.66223	-2.319468	-1.795648
C	-0.211144	1.14764	-2.196885
N	0.072699	2.108578	-2.809024
Br	-3.701149	0.0	0.0
