16

C	0.0	0.0	0.0
C	-0.306151	0.033944	-1.524899
Cl	1.78997	0.0	0.0
H	0.17299	-0.86179	-1.927094
C	-0.441596	1.168867	0.756771
N	-0.677139	2.078705	1.462374
C	-0.486348	-1.297224	0.623343
H	-1.579355	-1.28928	0.598121
H	-0.083843	-2.143832	0.061256
H	-0.133586	-1.353216	1.655033
N	0.459225	1.173251	-2.185979
O	0.282213	2.297204	-1.736499
O	1.169342	0.869071	-3.138483
C	-1.639904	0.121417	-2.140034
N	-2.296112	0.19944	-3.120737
Br	-3.593111	0.0	0.0
