17

C	0.0	0.0	0.0
C	-0.223308	-0.033703	-1.566836
Br	1.938138	0.0	0.0
H	0.413914	0.767255	-1.939875
N	-0.423719	1.345502	0.55407
O	-0.539421	1.425602	1.765826
O	-0.484454	2.273102	-0.243479
C	-0.503808	-1.079079	0.826837
N	-0.610553	-1.98751	1.568447
C	-1.560183	0.065068	-2.280048
H	-2.206198	-0.765865	-2.022782
H	-1.325073	0.087688	-3.35352
H	-2.062948	0.978236	-1.985379
N	0.415843	-1.283101	-2.11599
O	0.081888	-2.36013	-1.630369
O	1.170746	-1.14656	-3.078524
F	-2.269938	0.0	0.0
