15

C	-0.559277	-0.059727	-1.435254
C	0.0	0.0	0.0
F	-0.015621	-1.207982	-1.992282
H	1.098798	0.0	0.0
N	-1.985734	-0.170504	-1.49921
H	-2.279811	-0.694402	-0.679421
H	-2.419168	0.743003	-1.497113
C	-0.12432	1.098443	-2.239714
N	0.143918	2.03735	-2.890739
N	-0.52675	-1.191543	0.694805
H	-0.337522	-1.0774	1.684922
H	0.059388	-1.962868	0.387717
C	-0.516247	1.206082	0.643821
N	-0.969383	2.159666	1.158723
Br	3.439288	0.0	0.0
