15

C	-0.314384	-0.040884	-1.500429
C	0.0	0.0	0.0
F	-0.081394	1.244183	-2.020715
H	1.103965	0.0	0.0
N	0.521806	-1.025066	-2.069936
H	1.492332	-0.842018	-1.80836
H	0.421756	-1.064239	-3.075184
C	-1.734752	-0.332665	-1.79366
N	-2.855873	-0.532953	-2.076137
N	-0.549335	-1.208145	0.627844
H	-0.057518	-1.988733	0.203478
H	-0.274978	-1.195126	1.60509
C	-0.545133	1.194607	0.633696
N	-0.968604	2.146516	1.174157
Br	3.464719	0.0	0.0
