15

C	-0.453837	-0.016358	-1.468618
C	0.0	0.0	0.0
F	-1.884936	-0.150117	-1.447964
H	1.094941	0.0	0.0
N	-0.03472	1.11125	-2.180866
H	-0.379462	1.129223	-3.129611
H	-0.227431	1.974462	-1.691666
C	0.003559	-1.248887	-2.140394
N	0.310807	-2.224988	-2.714953
N	-0.454908	-1.143676	0.764067
H	-1.354282	-1.468161	0.434325
H	0.233376	-1.881146	0.68733
C	-0.489769	1.250607	0.595708
N	-0.880541	2.270964	1.026926
Br	3.419347	0.0	0.0
