16

C	-0.255832	-0.053266	-1.510688
C	0.0	0.0	0.0
Cl	0.052953	1.581105	-2.249878
H	1.094662	0.0	0.0
H	-0.326789	-0.977315	0.384189
C	0.753981	-1.021894	-2.121167
H	0.5077	-2.040311	-1.799915
H	0.748299	-0.974599	-3.210072
H	1.722872	-0.743841	-1.684644
C	-1.641581	-0.38138	-1.8559
N	-2.752371	-0.684555	-2.100679
C	-0.670832	1.122615	0.765458
H	-0.474037	0.997793	1.83268
H	-0.262776	2.089802	0.469504
H	-1.757271	1.148104	0.623041
F	2.722117	0.0	0.0
