16

C	-0.245588	-0.092204	-1.513823
C	0.0	0.0	0.0
Cl	-0.024904	1.565954	-2.223386
H	1.094583	0.0	0.0
H	-0.432428	0.923618	0.391924
C	0.815439	-1.001423	-2.134014
H	0.611756	-2.037335	-1.847188
H	0.815703	-0.929484	-3.224354
H	1.771565	-0.69238	-1.68075
C	-1.607964	-0.499289	-1.8687
N	-2.696738	-0.872783	-2.111243
C	-0.504925	-1.221599	0.758
H	-0.290203	-1.088701	1.821635
H	-1.580812	-1.396771	0.646867
H	0.030037	-2.120216	0.442392
F	2.729875	0.0	0.0
