16

C	-0.248667	-0.073007	-1.513882
C	0.0	0.0	0.0
Cl	0.001825	1.586878	-2.20797
H	1.094574	0.0	0.0
H	-0.430009	0.920643	0.401739
C	0.794199	-0.996865	-2.142941
H	1.756924	-0.707429	-1.691688
H	0.570754	-2.031318	-1.864576
H	0.793355	-0.917427	-3.232701
C	-1.62041	-0.448941	-1.869894
N	-2.717296	-0.795423	-2.11671
C	-0.509493	-1.226723	0.746047
H	-1.586015	-1.397585	0.631069
H	0.02375	-2.124375	0.42472
H	-0.297119	-1.103103	1.811555
F	2.727243	0.0	0.0
