11
Coordinates from ORCA-job run
  C   -0.91459834921541     -0.32744422578582      0.11920755970892
  C   0.50716170884844     -0.52143796688948     -0.38634814063792
  Br  -1.72280242732495     -2.08403770070314      0.36286936384895
  H   1.13777401390467     -1.02743654554467      0.34202057826936
  H   -1.51470988700175      0.19395720768592     -0.62507345612129
  H   0.50445528074498     -1.06795302126247     -1.33087704191507
  C   -0.93759076724393      0.41087907371131      1.37442223615291
  N   -0.92794466206601      1.01413590820225      2.38236062851686
  N   1.13441908682061      0.81173743482993     -0.66491574927181
  O   2.32781104554988      0.92685695817642     -0.41362603606226
  O   0.40602495698347      1.66874287757976     -1.16003994248866
