11
Coordinates from ORCA-job run
  C   -0.89461967715994     -0.31892313813127      0.24375454955565
  C   0.38373047694812     -0.43798332683340     -0.57142336463540
  Br  -1.74840980936498     -2.07108058789819      0.29123795207682
  H   1.11340335652432     -1.09421592405254     -0.10057130226935
  H   -1.59598208163130      0.35882066654963     -0.24042752237392
  H   0.16429793363411     -0.78910321584790     -1.58121146662736
  C   -0.62459687596356      0.14021684012944      1.59904576794147
  N   -0.37842101684045      0.51136162738153      2.68598822117816
  N   1.03495417468698      0.90512832248719     -0.72274987381262
  O   2.25013202127813      0.90835765774286     -0.87531388100655
  O   0.29551149788857      1.88642107847264     -0.72832908002691
