11
Coordinates from ORCA-job run
  C   -0.75015423082729     -0.37321575823957      0.25436709902138
  C   0.44320049223956      0.51667266395561     -0.05000061392377
  Br  -0.18393665565286     -1.95316583596549      1.24261004523609
  H   0.11369892451048      1.42315732454823     -0.56482001279383
  H   -1.18536526539205     -0.73756742403856     -0.67713986551077
  H   1.01190308568543      0.76948540873001      0.84219857870536
  C   -1.74158520641265      0.36753467336263      1.02047063675837
  N   -2.53145819427059      0.99763799804130      1.61966954476365
  N   1.37820332637933     -0.17760722488024     -0.98935002553335
  O   0.86785313321402     -0.77284044618562     -1.93371617712964
  O   2.57764059052663     -0.06209137932829     -0.76428920959348
