11

C	-0.558007	0.012912	-1.427007
C	0.0	0.0	0.0
Cl	-0.050703	-1.46733	-2.289338
H	1.092767	0.0	0.0
H	-1.650252	-0.010589	-1.404536
H	-0.325646	-0.924545	0.485807
C	-0.160303	1.195238	-2.186449
N	0.078869	2.158536	-2.812922
C	-0.532617	1.136637	0.743431
N	-0.996466	2.050773	1.316221
Cl	3.300641	0.0	0.0
