11

C	-0.457952	-0.020823	-1.461304
C	0.0	0.0	0.0
Cl	0.036016	1.494088	-2.268188
H	1.092763	0.0	0.0
H	0.054975	-0.831542	-1.982871
H	-0.360359	0.906237	0.492327
C	-1.904078	-0.185763	-1.611131
N	-3.064912	-0.321988	-1.726636
C	-0.498943	-1.177112	0.702173
N	-0.899557	-2.132736	1.254539
Cl	3.295304	0.0	0.0
