11

C	-0.557355	-0.002891	-1.425637
C	0.0	0.0	0.0
Cl	-0.052263	-1.493526	-2.272332
H	1.092729	0.0	0.0
H	-1.649877	-0.023351	-1.405428
H	-0.326089	-0.91908	0.495742
C	-0.157045	1.170473	-2.20051
N	0.084974	2.126392	-2.837625
C	-0.532128	1.144973	0.730913
N	-0.996568	2.065563	1.292966
Cl	3.299236	0.0	0.0
