11

C	-0.556017	0.004365	-1.425481
C	0.0	0.0	0.0
Cl	0.086431	-1.359258	-2.382797
H	1.092745	0.0	0.0
H	-1.64066	-0.127013	-1.41213
H	-0.32098	0.920799	0.499661
C	-0.271585	1.268504	-2.101898
N	-0.042628	2.288792	-2.635244
C	-0.528211	-1.138147	0.743092
N	-0.995601	-2.039577	1.33155
Cl	3.297756	0.0	0.0
