11

C	-0.558555	0.006635	-1.425202
C	0.0	0.0	0.0
Cl	0.071285	-1.359806	-2.386073
H	1.092745	0.0	0.0
H	-1.644626	-0.118749	-1.406612
H	-0.318947	0.920669	0.500928
C	-0.270628	1.271599	-2.101637
N	-0.044545	2.294413	-2.631636
C	-0.528687	-1.136694	0.743223
N	-0.997115	-2.036929	1.333048
Cl	3.297833	0.0	0.0
