11

C	-0.458299	-0.057256	-1.457858
C	0.0	0.0	0.0
Cl	-0.083789	1.457638	-2.323364
H	1.092843	0.0	0.0
H	0.115386	-0.844593	-1.952582
H	-0.311899	-0.929577	0.489327
C	-1.88712	-0.346525	-1.590501
N	-3.029331	-0.608487	-1.67589
C	-0.5707	1.126339	0.724261
N	-1.055461	2.017149	1.315354
Cl	3.292481	0.0	0.0
