11

C	-0.434459	0.035259	-1.459069
C	0.0	0.0	0.0
Cl	-2.193522	0.412245	-1.625463
H	1.09453	0.0	0.0
H	0.100296	0.849259	-1.953587
H	-0.320121	0.930191	0.477338
C	-0.161388	-1.211484	-2.169481
N	0.034176	-2.217703	-2.743022
C	-0.557382	-1.131461	0.725985
N	-1.01471	-2.040702	1.311051
Cl	3.283945	0.0	0.0
