11

C	-0.458603	-0.053767	-1.457883
C	0.0	0.0	0.0
Cl	-0.0808	1.46134	-2.32097
H	1.09292	0.0	0.0
H	0.112982	-0.841388	-1.954114
H	-0.312098	-0.930485	0.487412
C	-1.887913	-0.339263	-1.590616
N	-3.030672	-0.597719	-1.674935
C	-0.570577	1.124939	0.726585
N	-1.057251	2.014168	1.318394
Cl	3.293164	0.0	0.0
