11

C	-0.464792	-0.029439	-1.458607
C	0.0	0.0	0.0
Cl	0.0544	1.466354	-2.286531
H	1.092797	0.0	0.0
H	0.027542	-0.857311	-1.973961
H	-0.356792	0.910494	0.487435
C	-1.916063	-0.164533	-1.594821
N	-3.082838	-0.267302	-1.690043
C	-0.502582	-1.169982	0.710962
N	-0.928788	-2.114197	1.263773
Cl	3.305951	0.0	0.0
