19

C	-0.276887	0.012426	-1.488741
C	0.0	0.0	0.0
F	-1.683095	0.016368	-1.74335
H	1.095748	0.0	0.0
C	0.331492	1.261877	-2.090664
H	1.380757	1.274324	-1.77963
H	0.254085	1.244052	-3.18272
H	-0.160631	2.147965	-1.694879
C	0.325458	-1.22761	-2.11068
H	1.374362	-1.246003	-1.800384
H	-0.171303	-2.119416	-1.729047
H	0.248383	-1.1915	-3.202284
N	-0.468556	-1.246056	0.610908
H	-1.45198	-1.159259	0.852955
H	0.05686	-1.389134	1.467451
N	-0.467903	1.236142	0.631054
H	-1.451354	1.149335	0.874211
H	0.058629	1.364288	1.48786
F	2.738164	0.0	0.0
