19

C	-0.415474	-0.013285	-1.469247
C	0.0	0.0	0.0
F	-0.16957	1.292958	-1.984678
H	1.101245	0.0	0.0
C	0.517513	-0.950508	-2.208059
H	0.41233	-0.822928	-3.290561
H	1.53592	-0.726297	-1.872227
H	0.284419	-1.982352	-1.937455
C	-1.890717	-0.269202	-1.696659
H	-2.14995	-1.265454	-1.335738
H	-2.128558	-0.197027	-2.762613
H	-2.480192	0.470629	-1.149282
N	-0.434476	-1.249765	0.625322
H	0.294602	-1.532036	1.270276
H	-1.27703	-1.053678	1.157641
N	-0.593904	1.162339	0.68913
H	-0.003592	1.323055	1.501845
H	-0.428467	1.962209	0.085289
F	2.763705	0.0	0.0
