19

C	-0.250062	-0.032092	-1.498445
C	0.0	0.0	0.0
F	-1.630281	0.067915	-1.813988
H	1.102033	0.0	0.0
C	0.48216	1.146993	-2.110036
H	0.451172	1.099989	-3.203773
H	1.513481	1.095629	-1.746021
H	0.027683	2.075662	-1.766476
C	0.279475	-1.335281	-2.066805
H	0.261314	-1.317206	-3.160564
H	-0.328793	-2.176519	-1.726574
H	1.310573	-1.436487	-1.713446
N	-0.554363	-1.201631	0.681543
H	0.041071	-1.983517	0.418975
H	-0.341788	-1.055844	1.665779
N	-0.534669	1.211629	0.587197
H	-1.513396	1.053808	0.807446
H	-0.032681	1.404313	1.445776
F	2.764883	0.0	0.0
