19

C	-0.295739	0.014129	-1.490076
C	0.0	0.0	0.0
F	-1.678417	-0.169215	-1.754646
H	1.102033	0.0	0.0
C	0.115475	1.346559	-2.087309
H	-0.528325	2.141855	-1.703928
H	0.02881	1.324017	-3.178999
H	1.158305	1.526019	-1.802434
C	0.481352	-1.125234	-2.119714
H	0.097574	-2.073587	-1.742346
H	0.397288	-1.098785	-3.210613
H	1.52199	-1.013831	-1.799351
N	-0.513047	-1.211783	0.606806
H	0.040658	-1.425387	1.42519
H	-1.475207	-1.05684	0.885948
N	-0.548047	1.202836	0.682838
H	0.068831	1.975518	0.443029
H	-0.36177	1.043555	1.670609
F	2.763166	0.0	0.0
