19

C	-0.404006	0.015694	-1.473878
C	0.0	0.0	0.0
F	-0.171614	-1.294906	-1.985684
H	1.101257	0.0	0.0
C	-1.874237	0.294325	-1.714643
H	-2.121661	1.293836	-1.352946
H	-2.103136	0.229202	-2.783319
H	-2.479796	-0.439124	-1.174834
C	0.548113	0.941295	-2.205439
H	0.324308	1.976462	-1.942859
H	1.560369	0.7081	-1.860473
H	0.45165	0.81002	-3.286367
N	-0.603842	-1.157093	0.684747
H	-0.013327	-1.328869	1.497293
H	-0.452267	-1.958418	0.077349
N	-0.429988	1.253278	0.621581
H	-1.271722	1.062812	1.15577
H	0.300091	1.538052	1.263134
F	2.76909	0.0	0.0
