19

C	-0.408822	0.069546	-1.470186
C	0.0	0.0	0.0
F	-0.050319	-1.162895	-2.048861
H	1.100893	0.0	0.0
C	-1.89792	0.221816	-1.692725
H	-2.127762	0.235322	-2.763146
H	-2.260692	1.139104	-1.22661
H	-2.404583	-0.631701	-1.2346
C	0.458155	1.109806	-2.165181
H	0.121274	2.129653	-1.950945
H	1.479873	0.967847	-1.793561
H	0.41828	0.961296	-3.248457
N	-0.566205	-1.161688	0.662924
H	0.153099	-1.574498	1.24242
H	-1.333585	-0.860956	1.253989
N	-0.469221	1.239126	0.68763
H	-0.045646	1.179374	1.61313
H	0.028057	2.012597	0.251303
F	2.754307	0.0	0.0
