19

C	-0.389247	-0.068301	-1.477165
C	0.0	0.0	0.0
F	-0.046992	1.173655	-2.044165
H	1.100894	0.0	0.0
C	0.506493	-1.087669	-2.167936
H	0.485036	-0.921731	-3.248777
H	0.179396	-2.115131	-1.975313
H	1.518776	-0.93799	-1.773694
C	-1.872406	-0.245887	-1.722027
H	-2.403856	0.58793	-1.257384
H	-2.226596	-1.17831	-1.279104
H	-2.085209	-0.243503	-2.79603
N	-0.48216	-1.232258	0.686598
H	-0.077695	-2.024084	0.191264
H	0.015181	-1.228105	1.575921
N	-0.564756	1.165726	0.657266
H	-1.33827	0.864342	1.240393
H	0.151457	1.571447	1.246156
F	2.76134	0.0	0.0
