19

C	-0.403285	-0.103095	-1.471238
C	0.0	0.0	0.0
F	-0.187361	1.180089	-2.054914
H	1.096059	0.0	0.0
C	0.56183	-1.053676	-2.150821
H	0.349306	-2.076087	-1.831786
H	1.571203	-0.791281	-1.813699
H	0.467582	-0.983048	-3.239615
C	-1.867641	-0.41321	-1.698121
H	-2.094857	-0.408286	-2.769056
H	-2.10065	-1.394787	-1.284203
H	-2.485726	0.338026	-1.199754
N	-0.428656	-1.216231	0.692265
H	-1.274012	-0.99828	1.210275
H	0.300132	-1.45807	1.353095
N	-0.602551	1.196821	0.617366
H	9.6e-05	1.425287	1.404748
H	-0.468323	1.955526	-0.045336
F	2.766774	0.0	0.0
