19

C	-0.308284	0.001884	-1.482505
C	0.0	0.0	0.0
F	-1.723912	0.027176	-1.704807
H	1.10989	0.0	0.0
C	0.303458	1.237266	-2.111726
H	-0.181968	2.13363	-1.728797
H	0.220377	1.202903	-3.203123
H	1.353101	1.247035	-1.804324
C	0.25522	-1.256373	-2.10742
H	0.151115	-1.232383	-3.196901
H	1.310797	-1.291377	-1.82344
H	-0.251454	-2.129786	-1.699671
N	-0.432669	-1.249289	0.649832
H	0.246878	-1.444519	1.375471
H	-1.325684	-1.098625	1.110492
N	-0.475284	1.229102	0.628788
H	-0.018565	1.306962	1.528766
H	-1.47451	1.157129	0.792496
F	2.732017	0.0	0.0
