16
Coordinates from ORCA-job run
  C   0.57445972032838      0.53203669747981      0.03613912875972
  C   -0.79504846345374     -0.02031159189229     -0.41360510408489
  Br  0.74996804672197      2.41374187702982     -0.42707782020758
  H   -0.91839556306816      0.20063092751579     -1.47683834193613
  N   0.75273762663991      0.34248723812550      1.41372918724963
  H   1.67642883706144      0.61892920188436      1.71961844894618
  H   0.58657567623374     -0.64099848395778      1.60990189997070
  N   1.67952520690624     -0.16516375413064     -0.80969495313246
  O   2.75397217925129     -0.36015840999569     -0.25502896231620
  O   1.39747322587562     -0.46483473650943     -1.96591236955773
  N   -1.89682922035787      0.55897152265656      0.31525294942161
  H   -2.12439773283611      1.46927330088302     -0.06144576848231
  H   -1.62984029192952      0.67935978832375      1.28643796482128
  N   -0.74776632521215     -1.44879229807338     -0.11089105387591
  H   -1.70269306586048     -1.75395202531161      0.03184203991652
  H   -0.35816985630057     -1.96221925402778     -0.89242724549243
