16
Coordinates from ORCA-job run
  C   0.69539368839320      0.38704621235609      0.32827913142604
  C   -0.61241622589281     -0.31280813756676     -0.12034575143844
  Br  0.28360886164427      2.06472611420779      1.20751113901680
  H   -0.24840037417665     -1.20880299023369     -0.64900913932794
  N   1.52638872214551     -0.39055308378495      1.18172809327413
  H   0.92998772630972     -0.74714571212263      1.92163652134665
  H   1.90044261779336     -1.17081194514649      0.65244240567644
  N   1.48774565849551      0.64903230862790     -0.95796148484079
  O   1.37546880903317      1.72405205961635     -1.53215600568591
  O   2.12222026212776     -0.31984248070248     -1.36987216278027
  N   -1.43992779446227      0.55602666404172     -0.93394956253587
  H   -0.89930460707496      1.17108410409062     -1.52955755452863
  H   -2.06188680997299      0.00711759134275     -1.51374751441733
  N   -1.29351963242026     -0.77151006282498      1.07269069199658
  H   -1.92681737106943     -0.03688782728748      1.36943037770075
  H   -1.83898353087314     -1.59972281461377      0.87288081511780
