16
Coordinates from ORCA-job run
  C   0.64462907058580      0.34255164781816      0.26259952883114
  C   -0.60065206790765     -0.41337405900252     -0.24345090988246
  Br  0.07460838086826      2.07115850475068      1.11257442734830
  H   -0.17676922725997     -1.25223512562586     -0.81505892999284
  N   1.40340057955609     -0.49139372192082      1.08071077487199
  H   2.19719554558179     -0.02108602563484      1.49300474290470
  H   0.79804978413845     -0.93210971095242      1.76270049645913
  N   1.56613059732167      0.78430416268989     -0.87022543664944
  O   2.68354805765548      1.15518799973835     -0.54134227130879
  O   1.14162441876940      0.71562841579428     -2.02086177596772
  N   -1.50735578223549      0.42628168456474     -0.99781802202391
  H   -2.27739024469879     -0.14689425047035     -1.32236926643196
  H   -1.03647592645982      0.80784640728704     -1.80860789996532
  N   -1.24839908191495     -0.96762913915534      0.93184585972415
  H   -1.89938287125851     -0.27439789643769      1.28604553774674
  H   -1.76376123274176     -1.80383889344329      0.69025314433628
