16
Coordinates from ORCA-job run
  C   0.71359445030838      0.44076235511227      0.40555474439232
  C   -0.77056681817010      0.18254444853014      0.04909529560179
  Br  0.81591542550185      1.74531091790217      1.83592683657297
  H   -1.28366237428967      1.14727505858215     -0.00950356143332
  N   1.48254075817457     -0.69350964303015      0.75619635888119
  H   1.14469063739697     -1.06331505005932      1.63562293614715
  H   1.40710864296570     -1.38891018911196      0.02119734459524
  N   1.33839216500218      1.08812834719754     -0.83631212118815
  O   0.71977952045640      2.04275689703980     -1.30122747642533
  O   2.35106633390499      0.58894607143568     -1.30467541387893
  N   -1.34173327847769     -0.59212563534594      1.12399178688501
  H   -1.19439829538483     -1.57912488375005      0.95042504110164
  H   -2.33215762471013     -0.41643292294329      1.21665546830946
  N   -0.76522113222895     -0.56612843701062     -1.20923571883696
  H   -1.67499647516248     -0.99260692789063     -1.33841782740779
  H   -0.61135193528720      0.05642959334223     -1.99529369331629
