16
Coordinates from ORCA-job run
  C   0.69930843276288      0.43531395109305      0.25928477423031
  C   -0.56940618810158     -0.31333591228654     -0.20306794863465
  Br  0.25148170155869      2.22231765799533      0.84364717666655
  H   -0.19444531903034     -1.25886974877811     -0.61511823637919
  N   1.44767162323208     -0.20096854885074      1.29876309527976
  H   1.68530710098283     -1.14472231412325      1.01289019821263
  H   0.88435633135343     -0.21815220924327      2.14013885861695
  N   1.62185083859787      0.48710442278533     -0.95942876450333
  O   2.04130646182461     -0.62575587635992     -1.27796173657829
  O   1.86053571249092      1.53680633013623     -1.52809465541249
  N   -1.17960038224699      0.40491678957430     -1.28635833780884
  H   -1.59647676241979      1.27029173638764     -0.96649944734387
  H   -1.87469934516649     -0.15790139107049     -1.75826844415667
  N   -1.40535767469180     -0.54100413513738      0.97723537628043
  H   -2.37829116423169     -0.41054003878338      0.73671369807942
  H   -1.29254136691464     -1.48450071333879      1.32512439345128
