16
Coordinates from ORCA-job run
  C   0.67671881037788      0.30877738328718      0.22563160397124
  C   -0.57254204578538     -0.42192748022759     -0.27455896523868
  Br  0.07584849076955      2.08709105977129      0.97152224298531
  H   -0.18680829870743     -1.30487540939656     -0.78800044813461
  N   1.40220985779768     -0.47045912722789      1.12321228363052
  H   2.15834825427620      0.02979169594624      1.57138315144168
  H   0.77205166500537     -0.91101277954385      1.78270721571899
  N   1.62996932734152      0.62390835471634     -0.92854560596396
  O   1.55406083151502     -0.10803434260107     -1.90595697385596
  O   2.46899267597805      1.49358633552206     -0.73555146745411
  N   -1.25886632052233      0.38804958257578     -1.25313071203116
  H   -1.83470513845520      1.09259040111350     -0.81066406641192
  H   -1.83488597485657     -0.18760285327635     -1.85199587055362
  N   -1.29023497451169     -0.88600293682070      0.90927918366822
  H   -1.81484352601849     -0.11872336585856      1.31514608183241
  H   -1.94331363420416     -1.61515651797982      0.65152234639565
