16
Coordinates from ORCA-job run
  C   0.57433681339293      0.34936730334734      0.33330343958049
  C   -0.89075955391489      0.03103304789051     -0.02946228802231
  Br  0.55662204954641      1.44596498611573      2.05028388140975
  H   -1.45476928740274      0.96720815477407     -0.00215949102100
  N   1.33896624042113     -0.80102804794450      0.37349114564146
  H   2.31056484706829     -0.65270641923268      0.60476515100099
  H   0.87745088682168     -1.50324241065488      0.93939128399338
  N   1.19084199540082      1.32371014001205     -0.65458638382886
  O   2.40705641334077      1.27410539200400     -0.78928282762979
  O   0.42919984028732      2.09604558896352     -1.22681044121230
  N   -1.33318717779802     -0.97302312440170      0.92926389663269
  H   -2.16941182809399     -1.39807376419512      0.54793610325311
  H   -1.56008684909331     -0.54045223675675      1.81655495506200
  N   -1.02749996010319     -0.53888108841973     -1.34788707673722
  H   -0.92303279847718      0.17576614590582     -2.05524555549452
  H   -0.32529163139602     -1.25579366740768     -1.48855579262787
