16
Coordinates from ORCA-job run
  C   0.59061771419677      0.54303624504307      0.08534841294031
  C   -0.77632859388623      0.16764456464616     -0.52421240721936
  Br  1.00660216704232      2.41247593167992     -0.17661564020113
  H   -0.75898011772039      0.47552307044137     -1.57141715458000
  N   0.65350107603839      0.22644404952623      1.46560283426218
  H   1.43537650452001      0.68646783456470      1.91352727014604
  H   0.77611066641813     -0.77288427147691      1.58108872512063
  N   1.65308593291067     -0.23808854736581     -0.74200142325691
  O   1.60303030662395     -0.12544762415068     -1.95970634402563
  O   2.43214627361493     -0.94924053250442     -0.11397852091792
  N   -1.78027390041964      0.91915175239089      0.17906723300448
  H   -1.69653342194229      0.75026111815478      1.17466497429691
  H   -2.69147617691333      0.61221200838942     -0.13726322712330
  N   -1.02228031754229     -1.26752575099315     -0.50628827145577
  H   -0.39458236800660     -1.79384799276177     -1.10096427089979
  H   -1.02801574493441     -1.64618185558380      0.43214780990926
