16
Coordinates from ORCA-job run
  C   0.54368634246748      0.46818832292927      0.27473370215508
  C   -0.90017357612271     -0.08072026869791      0.09751954361032
  Br  0.52145868493029      2.46862082422845      0.15725219662417
  H   -1.40744551054388      0.20713466809163      1.03517512768100
  N   1.09297897479089     -0.02344077149674      1.46801826544361
  H   0.62877951798930      0.37913478879212      2.27153834457018
  H   2.09382094876659      0.11537264547447      1.52213634489357
  N   1.43094064186194      0.02591273326648     -0.88227234348317
  O   2.51261788005402     -0.47490211652457     -0.59810915124064
  O   1.00101086166611      0.21550278919043     -2.01047248539035
  N   -0.72287680171733     -1.50622057245200     -0.08734850040980
  H   -1.62709697085652     -1.91732718688085     -0.27950248000793
  H   -0.31116771403636     -1.92882579265557      0.73367181383917
  N   -1.71070382290713      0.39711499108470     -0.98374956185769
  H   -1.93469806646422      1.37546113067325     -0.86340271763647
  H   -1.20913138987847      0.28099381497683     -1.85518809879104
