16
Coordinates from ORCA-job run
  C   0.65500809133672      0.37012794857671      0.30701135986307
  C   -0.82090641828289     -0.04607972051788      0.08820019608431
  Br  0.86371462853216      2.39123627422601      0.14574154787703
  H   -1.25623395716408      0.04872608709163      1.09726734195509
  N   1.13180084126383     -0.12407513632811      1.51555572829013
  H   2.13510484959189     -0.02997564479341      1.59947157992232
  H   0.65126424481996      0.27253822864599      2.31027547342440
  N   1.57003230658830     -0.14921726281933     -0.79707309611161
  O   1.09837365470773     -0.25181434741415     -1.91852469441997
  O   2.72683994785175     -0.39290565274948     -0.47182735500500
  N   -0.80892425957317     -1.45269923536043     -0.24703264661372
  H   -0.86302118395632     -1.54924474074008     -1.25357549785709
  H   -1.57324160317185     -1.94455359890346      0.19192073034337
  N   -1.51861649115410      0.72906121747878     -0.91626142836590
  H   -2.48053891648423      0.41314674281472     -0.94558128451174
  H   -1.51065573490571      1.71772884079250     -0.70356795487468
