16
Coordinates from ORCA-job run
  C   0.68089742716395      0.49949004587607      0.33269153393750
  C   -0.80627162905819      0.10189629327016      0.18665013634383
  Br  0.77554373623667      2.43233539422808      0.68593157112373
  H   -1.30094348530117      0.61525807565644      1.01547451809901
  N   1.35066671506889     -0.27735563368877      1.28069881479587
  H   0.72489161369715     -0.86719856339915      1.80994143618967
  H   2.06511311535647      0.19523015165714      1.80942854006333
  N   1.40815821559445      0.26784946414107     -1.01801156776662
  O   2.37932983982178      0.94429016584203     -1.30645606503919
  O   0.99761564640161     -0.70658711989508     -1.64943318854273
  N   -0.95173188974072     -1.32408689241600      0.44935101509565
  H   -1.93347379143478     -1.55067204732232      0.54770831481419
  H   -0.56778486518581     -1.85443222708936     -0.32359334156277
  N   -1.33837723313624      0.66407737619849     -1.03729576943661
  H   -1.14622354387303      0.05669025484747     -1.82284235542604
  H   -2.33640987161102      0.80321526209370     -0.96024359268881
