16
Coordinates from ORCA-job run
  C   0.66849224235890      0.33444787951483      0.29595102590698
  C   -0.81030691270468      0.14035334553252     -0.05271363749695
  Br  0.76949056094001      1.46953250794433      1.98825530831714
  H   -1.27934484209385      1.12709101404710     -0.09208976595096
  N   1.32092685639715     -0.87992560636843      0.36903928223305
  H   2.31631597994773     -0.81349325018571      0.52287374558996
  H   0.84174768535171     -1.50264056574279      1.00643404041134
  N   1.33110810178046      1.22822392525491     -0.73915952944890
  O   0.68579267216797      2.18773805622964     -1.13220042450588
  O   2.47163395262699      0.92817975890930     -1.07158050067177
  N   -1.37167394820955     -0.75257670408432      0.96542203451214
  H   -2.27404428557066     -1.08076491031645      0.64321078782271
  H   -1.51494257676685     -0.24748498068577      1.83359512620143
  N   -0.84067423620394     -0.42177263932423     -1.37724283419864
  H   -1.75141314718153     -0.32140281653677     -1.80373996798062
  H   -0.56310810283989     -1.39450501418815     -1.35605469074104
