16
Coordinates from ORCA-job run
  C   0.62639176923936      0.27801928638934      0.20289016854057
  C   -0.63410213035371     -0.51217336906102     -0.22366710234972
  Br  0.01518849953329      2.12330871123696      0.83632930904086
  H   -0.23060628394837     -1.41425674556199     -0.69423089756955
  N   1.38133470847811     -0.43284847604881      1.11610433681562
  H   0.79230764579398     -0.84046332436778      1.83053376999126
  H   2.19123955317475      0.06067015525981      1.46421172659763
  N   1.55301867080780      0.60559056332102     -0.96095658663305
  O   2.63007962731817      1.10420240747252     -0.66540240602251
  O   1.18229872115648      0.30867936722670     -2.09291146135719
  N   -1.54275968391660      0.09808497753426     -1.16124993044882
  H   -1.85534944834302      0.99807714997149     -0.81618997031750
  H   -1.08250320792543      0.24000354279727     -2.05075651083910
  N   -1.27747599760348     -0.90669753306711      1.01956584989533
  H   -1.97502637320688     -1.60699011288294      0.79651471301893
  H   -1.77303607020446     -0.10520660021972      1.39821499163724
