16
Coordinates from ORCA-job run
  C   0.57741947312354      0.38649420942697      0.35302377117952
  C   -0.65796814146810     -0.32232073220041     -0.22469529827228
  Br  0.15955215211556      2.14712858984417      1.01217518884638
  H   -0.27310666541709     -1.29738186494638     -0.56248341504304
  N   1.14320639470569     -0.38930033298565      1.40420826709535
  H   1.52413899215554     -1.24464129329784      1.01238639206563
  H   1.87615021492935      0.11630978331329      1.88665467737083
  N   1.55758428441981      0.51744350853607     -0.84986773042345
  O   2.02563938990348     -0.56920931662961     -1.19013658644628
  O   1.78697530404874      1.59444013476539     -1.36769254335539
  N   -1.10596393789049      0.37718445743390     -1.40149608911537
  H   -1.68398788917789      1.15988864741443     -1.11626475956993
  H   -1.65706397109386     -0.23186231885030     -1.99139886223534
  N   -1.66221238744394     -0.41646237803900      0.82043029096034
  H   -2.37648083567849     -1.07757542826944      0.53910654454486
  H   -1.23288237723183     -0.74913566551559      1.67705015239817
