16
Coordinates from ORCA-job run
  C   0.61080302622551      0.33900276128067      0.18426911351207
  C   -0.65992162948882     -0.45597888437564     -0.22742625198411
  Br  0.13997276599148      2.27361469905992      0.51617702159671
  H   -0.25795626050487     -1.34693404923663     -0.72485478635004
  N   1.25317695851749     -0.28186532315837      1.25290742019387
  H   0.61741434269557     -0.32207468090402      2.04051263935529
  H   2.12837102718745      0.16597263965487      1.49246342596011
  N   1.61294482133040      0.42011798798510     -0.95891140865244
  O   2.77278603367056      0.66888950102343     -0.65647487014919
  O   1.19143743012903      0.23440876938902     -2.09683546920681
  N   -1.58221438269646      0.16940990172018     -1.13587168479148
  H   -1.13853663055950      0.29745491793730     -2.03529506100880
  H   -1.84427610466387      1.08359308585595     -0.78478192494844
  N   -1.34943418755021     -0.78400794299727      1.01713029800619
  H   -2.34333873042672     -0.72190768849544      0.83532633210136
  H   -1.15022847985703     -1.74069569473908      1.28066520636572
