16
Coordinates from ORCA-job run
  C   0.69299455938576      0.40157482374979      0.30408254739792
  C   -0.55014479118171     -0.37369871264527     -0.17258948520304
  Br  0.13358275412893      2.13403973787402      1.00361490738518
  H   -0.14644870756524     -1.32354763834359     -0.53855893379259
  N   1.49650527382297     -0.25318608554782      1.28147536805985
  H   0.87253676522511     -0.59070559082420      2.00708681277284
  H   1.94561257569249     -1.04840874619734      0.83809527576621
  N   1.57091501260798      0.59770832268887     -0.93403381640267
  O   2.05642696151735     -0.45611706985903     -1.34207092402141
  O   1.71271012841781      1.69867013091872     -1.43284127627942
  N   -1.13681842065927      0.30487655781002     -1.30557013808552
  H   -1.56938081159298      1.17712574318756     -1.02562879082401
  H   -1.83171687453880     -0.27769537723019     -1.75439318885941
  N   -1.35464082546712     -0.67918462414927      1.00165796372948
  H   -1.90416987682494      0.12924945648707      1.26943696760043
  H   -1.98896372296835     -1.44170092791935      0.79923671075617
