16
Coordinates from ORCA-job run
  C   0.63319163323883      0.41318439767125      0.34057994044302
  C   -0.85247694568596      0.10666602565736      0.07183003134024
  Br  0.93293553184822      2.36727491808225      0.48842576076676
  H   -1.35417618524330      0.36155496595137      1.02034307815623
  N   1.06404532860351     -0.31629128133634      1.47023436425923
  H   2.07462331604526     -0.33663772505048      1.52984757483012
  H   0.67395915938258      0.08510426800105      2.31356421624804
  N   1.49104318165507     -0.02011540166289     -0.84723802257241
  O   2.54372134231784     -0.59417747882017     -0.59294267204678
  O   1.08095043309987      0.26684046543609     -1.96112341864509
  N   -0.88318792054061     -1.31802052037889     -0.24787424658684
  H   -1.83637109340854     -1.60016519734581     -0.43909923905860
  H   -0.52361026294054     -1.85943413719757      0.52938335848569
  N   -1.44943138244464      0.93083296158280     -0.93773260319386
  H   -1.13688888978023      0.63647765618651     -1.85330100748687
  H   -2.45732724614736      0.87490608322346     -0.88289711493888
