16
Coordinates from ORCA-job run
  C   0.66646640816657      0.33448232274202      0.07859312412331
  C   -0.77843285963530      0.12305680750350     -0.41808394055546
  Br  1.12988138054435      2.29869228827110     -0.20572838275183
  H   -0.85414944606156      0.54631121227643     -1.42328322916558
  N   0.82231936365032     -0.12997737175693      1.37081650649383
  H   1.75190146785174     -0.01755016378112      1.74875276567479
  H   0.08443860157909      0.23663641074665      1.96044852162404
  N   1.67163870404635     -0.35790468415232     -0.82395482317039
  O   2.73664510742582     -0.68174333822139     -0.31334447925939
  O   1.34976141718253     -0.52364902040384     -1.99578491008967
  N   -1.64023291835119      0.75357259307678      0.57340322982795
  H   -1.65512167549890      1.75796296977372      0.44346517467263
  H   -2.57388207536431      0.38978179811670      0.42741385523662
  N   -1.14697358147160     -1.27058574313299     -0.48772591082582
  H   -0.84880175270209     -1.74799179920493      0.35506945925082
  H   -0.71645814136182     -1.71009428185339     -1.29005696108586
