16
Coordinates from ORCA-job run
  C   0.64931213979793      0.51521850413505      0.38720089108687
  C   -0.83907886161080      0.17206579346569      0.18432863571086
  Br  0.99374546950186      2.42195988760645      0.35772045304537
  H   -1.28996760348185      0.46433125693584      1.13664304714175
  N   1.09552614229314     -0.03047737345048      1.60290297031857
  H   2.09347559223007      0.08908903480420      1.71839451056401
  H   0.84269571632173     -1.01361066258005      1.61567926448360
  N   1.47231507256561     -0.04056450925947     -0.81994643281041
  O   2.64007630721147     -0.32757550104658     -0.59657920316307
  O   0.90437119149821     -0.15798235336806     -1.90435304195418
  N   -0.88640206487803     -1.29562947399054      0.12113905391005
  H   -0.77364122088532     -1.59549809485249     -0.84067585434445
  H   -1.78561627265267     -1.62602022863652      0.44804681532402
  N   -1.48240233638896      0.94125343479850     -0.84853013644926
  H   -1.15062370033849      0.66777574234016     -1.76292241066903
  H   -2.48478557118388      0.81866454309830     -0.79704856219470
