16
Coordinates from ORCA-job run
  C   0.66527211998113      0.48894419142373      0.36093834433683
  C   -0.79208679284088      0.01244387623252      0.15195399632729
  Br  0.65233251354310      2.43696408127343      0.65557333465458
  H   -1.35541820559612      0.47083815058423      0.97716900360172
  N   1.30140345591470     -0.20483386226656      1.37977851183680
  H   1.89879227304225      0.32431395922556      1.99014205574847
  H   0.71394599252387     -0.90357261418220      1.81042161199840
  N   1.40134341023318      0.23334542702801     -0.99929404128646
  O   1.56332773445085     -0.95952726690539     -1.22442745863784
  O   1.71298627960985      1.15895161419221     -1.72919104665844
  N   -0.86031760901450     -1.41617510442045      0.35684544769726
  H   -1.82216090305906     -1.70954695033762      0.46881568791486
  H   -0.45019510202223     -1.89345309859267     -0.43789374899747
  N   -1.23324646696407      0.41901400134420     -1.17160294411302
  H   -2.18716133615262      0.11308470567681     -1.31787155162977
  H   -1.20781736364944      1.42820888972420     -1.27135720279320
