16
Coordinates from ORCA-job run
  C   0.59209626096358      0.35060151809070      0.29957919438012
  C   -0.90584383271532      0.04776253655868      0.04623167315532
  Br  0.85959524505670      2.34873008209593      0.33740763815884
  H   -1.37254861328791      0.30692171992891      1.01410268402092
  N   1.01794950127095     -0.28648995309701      1.47615706480967
  H   2.01081248919375     -0.15967296402063      1.63052875876142
  H   0.49134538190111      0.03411296315593      2.27842519870610
  N   1.54124764835662     -0.12745051073182     -0.79509531521216
  O   2.73098388554369     -0.12784093288796     -0.49562190154441
  O   1.06897915468343     -0.48371727670396     -1.86548281937587
  N   -1.17286511685304     -1.35156470211455     -0.19179636786696
  H   -0.77348846535836     -1.60739284354946     -1.08712198708105
  H   -0.75373423258659     -1.91915127997216      0.53356082605918
  N   -1.44653013100400      0.78296510485033     -1.07069395358564
  H   -1.50929748347259      1.77039114425052     -0.86569285542091
  H   -2.37670169169200      0.42179539414655     -1.24248783796457
