16
Coordinates from ORCA-job run
  C   0.64397629114449      0.53518289955697      0.37551569874708
  C   -0.84239896848538      0.16395877569084      0.19972111020461
  Br  0.97622171470443      2.44081314844656      0.28250871639309
  H   -1.28213533798187      0.42933390437625      1.16507114646335
  N   1.10846256352257      0.02737090862979      1.60007274413060
  H   2.10770308767339      0.15224466337081      1.69775627597606
  H   0.87091639530257     -0.95925123183430      1.63517110977317
  N   1.44540918102603     -0.05842762616562     -0.82949373601710
  O   0.91489774991152     -0.03597185471184     -1.93813801303541
  O   2.55625008698029     -0.50795688114843     -0.58407246051520
  N   -0.85048747794091     -1.30364241762279      0.11641825402298
  H   -1.72213459880330     -1.66949759139237      0.47745916247640
  H   -0.76151251348025     -1.59263695664000     -0.85123165681450
  N   -1.52325482584086      0.92759453502845     -0.81215135574024
  H   -2.50976970336935      0.70503542273992     -0.80708282947913
  H   -1.13314364436339      0.74585030167576     -1.72652416658575
