16
Coordinates from ORCA-job run
  C   0.67196183504612      0.51366341206568      0.32925657814516
  C   -0.80845222446484      0.09125893924879      0.18233316623494
  Br  0.73424223327906      2.45183780032772      0.66141738717932
  H   -1.31462731059721      0.60793102655158      1.00211352654094
  N   1.35091384125607     -0.24283446432696      1.28781758827030
  H   2.05561800690621      0.24870852775591      1.81266179817823
  H   0.72993234969103     -0.82963751017223      1.82623351116073
  N   1.40689158379502      0.27868837654085     -1.01629074426593
  O   2.36446925545037      0.97076088676354     -1.31292443955098
  O   1.01680979977140     -0.71210621573748     -1.63495587808270
  N   -0.93342452786682     -1.33314191479119      0.46384116900959
  H   -0.53594745016247     -1.86799220627862     -0.29911767059298
  H   -1.91233780942881     -1.57336525122493      0.55824545946326
  N   -1.34330266117293      0.62846188974069     -1.05149336309954
  H   -2.34345586761832      0.75488004701084     -0.98050471231717
  H   -1.13929105388388      0.01288665652581     -1.82763337627317
