16
Coordinates from ORCA-job run
  C   0.58499111278555      0.26841822016876      0.33358380337656
  C   -0.68661658603163     -0.37451504287501     -0.26761052493420
  Br  0.17822576979745      1.91880616643025      1.25761165336697
  H   -0.32193599697340     -1.30599132563622     -0.71869172926461
  N   1.20092691188871     -0.63217349593760      1.24373776069140
  H   1.96984884691367     -0.19630764123373      1.73851690873543
  H   1.54783621885779     -1.43327262917944      0.72598101697516
  N   1.50401132562166      0.58413369608646     -0.87879758527205
  O   1.98341845771337     -0.43590866998206     -1.37263361635654
  O   1.66687822506086      1.72505314728677     -1.27300525510017
  N   -1.16809786346841      0.46214499448345     -1.33547029719133
  H   -1.94514027715712     -0.00422753406792     -1.78685795821809
  H   -1.50411481448065      1.34624653695043     -0.96923630933636
  N   -1.68881397515143     -0.73284915278106      0.71267117109415
  H   -2.05276871254294      0.10780206739022      1.14831204005916
  H   -1.26764864283349     -1.29735933710331      1.44288892137452
