16
Coordinates from ORCA-job run
  C   0.66184240985835      0.50870732767949      0.34053590047705
  C   -0.78893942748907     -0.00186468735711      0.16772752933098
  Br  0.61300105141349      2.45944731255843      0.60598048081049
  H   -1.34602675216901      0.45764376224366      0.99653418271911
  N   1.33248427179901     -0.15664286126496      1.35614543486677
  H   0.76861568887909     -0.86104906895772      1.80843226307802
  H   1.93129011526483      0.39367038169757      1.94606441889821
  N   1.37597054593481      0.24748256465332     -1.03084101519048
  O   1.55822915194520     -0.94497827756725     -1.24166271376015
  O   1.65425051814245      1.16824471669633     -1.78007610917279
  N   -0.82293115742571     -1.42810327267777      0.39550414715597
  H   -1.77579841152623     -1.73945085127679      0.53272825639291
  H   -0.41986922687221     -1.90918257007429     -0.40052035708445
  N   -1.26454563855086      0.37480699695583     -1.15298615779508
  H   -2.21456234951716      0.04659446220112     -1.27438583861444
  H   -1.26301078968697      1.38267406449013     -1.26818042211213
