16
Coordinates from ORCA-job run
  C   0.67603535606628      0.44504906963553      0.28200267170329
  C   -0.53589131084747     -0.40209784888264     -0.15074075023118
  Br  0.05639659911936      2.21184162850787      0.82784165679542
  H   -0.09935724414807     -1.36650587326808     -0.43088711802407
  N   1.47820474483960     -0.10447840909016      1.32332440499672
  H   1.95655576815804     -0.92049772620189      0.95443621453636
  H   0.84897720415350     -0.39969431646927      2.06284881734676
  N   1.57178965053719      0.56472041437882     -0.95313595074609
  O   1.69379118527939      1.62502515628556     -1.53788431616513
  O   2.09271687023360     -0.50485586498104     -1.26527248655041
  N   -1.11927305070783      0.16510660661402     -1.34481553841659
  H   -1.57899099125694      1.04533688654947     -1.14446450824978
  H   -1.79060464263777     -0.47083715588004     -1.75541895578925
  N   -1.35390585721045     -0.63438144460777      1.03109747600412
  H   -1.93173644919175      0.17629982120271      1.22137712319373
  H   -1.96170783238670     -1.43003094379308      0.88169125959608
