16
Coordinates from ORCA-job run
  C   0.72565770437853      0.40593317669345      0.36337194299112
  C   -0.79350565208137      0.18040536508844      0.18230346360965
  Br  1.02300753889698      2.29939159350423      0.80882656564513
  H   -1.24249026746109      0.70560223051576      1.02954120486380
  N   1.29153725267175     -0.48214954410199      1.28037862487200
  H   0.59738997406463     -1.02314413549640      1.77536780139462
  H   2.04706680656112     -0.11733239297982      1.83664066376350
  N   1.44631579673833      0.15936495116059     -0.98829964881049
  O   0.94046407184426     -0.73016901139415     -1.67359519549987
  O   2.49277408766013      0.73469215792705     -1.22899011755553
  N   -1.09680836258259     -1.23196074897595      0.37510969478663
  H   -2.09879826038136     -1.35377703794928      0.45321053622415
  H   -0.76228986645068     -1.76456981383077     -0.41897285730264
  N   -1.24256466625310      0.85351996698906     -1.01842256796997
  H   -2.22031365547028      1.09816422601112     -0.94463183036286
  H   -1.10544250213525      0.26702901683865     -1.83083828064924
