16
Coordinates from ORCA-job run
  C   0.66371612506697      0.32640434271260      0.23813623385260
  C   -0.55684283842598     -0.43844513628031     -0.28163744549979
  Br  0.00817368378621      2.10927120694400      0.92634114023767
  H   -0.14005077105018     -1.32497558742759     -0.76372111405715
  N   1.37656903831008     -0.41887543832864      1.17353738286913
  H   2.11118472450226      0.10464399898466      1.63082014905968
  H   0.73626204098366     -0.85696289500180      1.82476113780239
  N   1.64464873693141      0.63472935460592     -0.89437305272401
  O   2.46245667809935      1.52319323654938     -0.69564524778475
  O   1.61045643892401     -0.11892410030085     -1.85760681396777
  N   -1.22868264725551      0.33663234636829     -1.29745571811045
  H   -1.83093759066351      1.03923702580506     -0.88844877023997
  H   -1.77452462637698     -0.26245108821105     -1.90150456256621
  N   -1.30028268311255     -0.89005768907493      0.89094227383381
  H   -1.85159549492827     -0.12493514335779      1.26406277285109
  H   -1.93055081479098     -1.63848443398694      0.63179163444371
