16
Coordinates from ORCA-job run
  C   0.69129233138780      0.32686258796429      0.36614162891111
  C   -0.80904104886485      0.28368607266485     -0.03197708502485
  Br  0.87555793551880      1.40003359486392      1.99953506116356
  H   -1.12527201257635      1.32011025125750     -0.16302959293671
  N   1.36246292157779     -0.90251682186230      0.54492338045788
  H   1.62354708360929     -1.32869472512012     -0.33289967037286
  H   0.87643362987706     -1.52577092500397      1.17196675055255
  N   1.39333320399168      1.09044768292877     -0.75958584990719
  O   0.99010158174573      2.22454910280127     -0.97321802358422
  O   2.25696411349743      0.49526477828408     -1.39076766277829
  N   -1.69302684625748     -0.33251177747340      0.93509211556290
  H   -1.69765842720232      0.17569976792447      1.81106884239736
  H   -1.42849683311698     -1.29401804009478      1.11721300819497
  N   -0.83644917900666     -0.36714486080559     -1.32476666274646
  H   -0.74635954557528     -1.37082001567258     -1.21080802067174
  H   -1.73438890860566     -0.19517667265643     -1.75988821921801
