16
Coordinates from ORCA-job run
  C   0.63903364408797      0.51863085339290      0.29898689969410
  C   -0.85364847791900      0.09076126695275      0.11145626099780
  Br  0.70364921080308      2.44717461785069      0.51924482877323
  H   -1.37664919704833      0.56116024457293      0.96064352723609
  N   1.35448804417309     -0.07160158535560      1.38558842669047
  H   1.34890017044931     -1.07956524072282      1.29148808810879
  H   0.95765158160101      0.21139726587921      2.27205123888924
  N   1.37600124324736      0.11114379661292     -0.97250828890975
  O   1.59213297297088     -1.10030731636981     -1.03016335404744
  O   1.64052809999695      0.93072976570248     -1.83309145850773
  N   -1.10533027349549     -1.32439540380003      0.19309829902705
  H   -0.54702029645653     -1.82580585936783     -0.48730406023780
  H   -0.93517801301916     -1.68928758292771      1.11974775886460
  N   -1.29285677754364      0.51235039391585     -1.19812205247116
  H   -1.26099903501015      1.51876979964547     -1.29882543223333
  H   -2.24270289683735      0.19084498401860     -1.33329068187417
