16
Coordinates from ORCA-job run
  C   0.69978839572845      0.22161475885100      0.25174076550350
  C   -0.66732973955141     -0.29913586128875     -0.23638836404595
  Br  0.44942278287637      1.98533799416767      1.17872463810655
  H   -0.40436525149235     -1.17210078942944     -0.85192107853759
  N   1.33311554199668     -0.75730986336398      1.01430947616816
  H   0.68260627147603     -1.11785233755761      1.70183173458913
  H   2.20459181883557     -0.43964641622054      1.41545617553047
  N   1.64902823787967      0.54964147449052     -0.89717337292201
  O   1.18490555478047      0.60255667356533     -2.03329831256705
  O   2.82228951143459      0.71394761567214     -0.59596068695831
  N   -1.44447486883459      0.70764081896424     -0.92856079363816
  H   -2.30630304587691      0.28097729017955     -1.24802462416828
  H   -0.93957665032582      1.04105734476770     -1.74010933604234
  N   -1.36398061598620     -0.78636286414721      0.94035205793122
  H   -2.01457654037670     -1.51895928193973      0.68917294920277
  H   -1.88314140256386     -0.01140655671089      1.33984877184789
