16
Coordinates from ORCA-job run
  C   0.56231866243730      0.53477918957832      0.11074247383144
  C   -0.77757892217256      0.00782310851772     -0.44570235811141
  Br  0.71964519694660      2.45508943251687     -0.16040966365544
  H   -0.86347748536371      0.32852621109744     -1.48701782661961
  N   0.69038281861130      0.21441719633826      1.46970056659318
  H   1.59588479787453      0.47425997950943      1.83815037542463
  H   0.53616471909395     -0.78605830057333      1.56257329279604
  N   1.71319683288105     -0.05939567598472     -0.75267155945748
  O   1.48138128785535     -0.25390304385064     -1.94209456962997
  O   2.77010849269686     -0.28643667869146     -0.17685355883400
  N   -1.91789128597538      0.49720345477562      0.28950316228720
  H   -1.69232309467995      0.52616151191698      1.27802181016240
  H   -2.14830358568986      1.43600714529966     -0.00681135523145
  N   -0.71490743836354     -1.44237114898927     -0.27994255329898
  H   -1.66869143294067     -1.77418590610875     -0.20533626975956
  H   -0.28590956321129     -1.87191647535213     -1.09085196649696
