16
Coordinates from ORCA-job run
  C   0.66474484668320      0.35206512861469      0.24945941012280
  C   -0.53627499155374     -0.46246019394324     -0.24311312577204
  Br  -0.01886970571929      2.14431044101451      0.85496954008519
  H   -0.09527217470520     -1.37898538423266     -0.64022593438264
  N   1.37749869640561     -0.34204480889597      1.22411304193215
  H   0.72809521096946     -0.77434494468094      1.87107984576555
  H   2.07667688171124      0.21609655346563      1.69523360412798
  N   1.61267775553461      0.59928406220356     -0.93787623623395
  O   2.14215347265229      1.69234272291714     -1.06856280672573
  O   1.81422331828193     -0.39303672929130     -1.62514757886889
  N   -1.16300716596895      0.22936962388224     -1.34460944632985
  H   -1.73232050416373      1.00140812263313     -1.02152454979187
  H   -1.73578865440536     -0.40385114614296     -1.88612252829965
  N   -1.31770060243678     -0.83126759601756      0.93102110814389
  H   -1.88385727695662     -0.04614304289069      1.23290669640867
  H   -1.93297910632864     -1.60374280863557      0.70939895981840
