16
Coordinates from ORCA-job run
  C   0.58299088942504      0.41226409422354      0.35377272084677
  C   -0.89892525671172      0.02342606407667      0.06883638632813
  Br  0.66451637896983      2.38940059812405      0.61164316206295
  H   -1.45644240299108      0.41971401171163      0.93513850103186
  N   1.08598416029051     -0.30359494702485      1.45505150854157
  H   2.05910691099032     -0.09388389884338      1.64103875990352
  H   0.53908313314253     -0.10247525809848      2.28335798812599
  N   1.40977552117783      0.06318220676166     -0.88589794643991
  O   1.71946489269842      0.94200405422572     -1.67332383494231
  O   1.63651483978438     -1.13803598318034     -1.01245599535547
  N   -1.14316434909227     -1.39351110828384      0.00205954072153
  H   -0.63098664571488     -1.77457869264436     -0.78617142689080
  H   -0.79915850844073     -1.85108551143944      0.83675258952999
  N   -1.28378707026002      0.57007699755720     -1.21010000797738
  H   -1.26242983954822      1.58136991505706     -1.20752277737655
  H   -2.22454265371994      0.25672745777718     -1.41317916810991
