14
Coordinates from ORCA-job run
  C   -0.56758989254495      0.19974569917509      0.10394333890651
  C   0.92532047753426      0.42411752322026     -0.07648102053387
  Br  -1.22852466616060      0.99093399012915      1.71160245225273
  H   1.17730176879806      0.05982972590756     -1.07351270765818
  H   1.11443445366034      1.50099062577986     -0.05016500695475
  N   -1.37761215745543      0.75851304353574     -1.05535018071561
  O   -0.82760374105186      1.61383594744664     -1.73866352802574
  O   -2.51115283491401      0.31999520709852     -1.18639610731985
  N   -0.82172476596127     -1.30733909024439      0.06284940760683
  O   -1.29495364362688     -1.87113530042575      1.02979317325109
  O   -0.48091539973320     -1.80424816398881     -1.00440636829104
  N   1.61686633848405     -0.36815223020574      0.92308549523886
  H   1.75901337890431      0.15577916574209      1.77542880845427
  H   2.51514068406720     -0.67286614317023      0.57727224378876
