14
Coordinates from ORCA-job run
  C   -0.59632949286490      0.20429719744137      0.05177400796674
  C   0.92047242690536      0.37996596471732      0.01504007261101
  Br  -1.42554331662048      1.14435760211119      1.47862536761226
  H   1.27333075808122     -0.17336246690308     -0.86297960045194
  H   1.08959684045459      1.44589133580611     -0.16092589026902
  N   -1.12846566365241      0.66021362424687     -1.31049654722115
  O   -1.00571280844837     -0.17594793155523     -2.19955166017289
  O   -1.52197283117762      1.80910567647936     -1.42309120151604
  N   -0.98736317010217     -1.26803114297890      0.13085269771583
  O   -2.18406252350722     -1.51083922377262      0.14505024607986
  O   -0.06940385293845     -2.08098756791993      0.13912727569203
  N   1.51712382387527     -0.02558696042938      1.26438865933063
  H   2.28755982279218      0.57470914299125      1.51562469903730
  H   1.82976998720297     -0.98378525023433      1.21956187358538
