14
Coordinates from ORCA-job run
  C   -0.57623193551340      0.03202198290053      0.20178933945337
  C   0.90857843915605     -0.22430106657930      0.40699441115083
  Br  -1.27863184273361      1.27052383670463      1.47443965482355
  H   1.05614741346143     -0.57231337007999      1.43316608168996
  H   1.18139768010096     -1.03615680722750     -0.26875507871676
  N   -0.77213950362123      0.51675499647752     -1.23490577205653
  O   -1.23197618414345      1.62143970551843     -1.44716416832425
  O   -0.39890050902859     -0.31224796082960     -2.05689770555200
  N   -1.39816364350119     -1.24376139346354      0.29309744268777
  O   -2.51206096177608     -1.20898900237991     -0.20937431800237
  O   -0.87883846827873     -2.18196894411224      0.88566905356823
  N   1.62234361093659      0.98335964004438      0.03709205272924
  H   1.74848424259259      1.59572052705096      0.83088886270101
  H   2.52899166234866      0.75891785597563     -0.34603985615206
