14
Coordinates from ORCA-job run
  C   -0.35702587651978     -0.45018948168443     -0.04625832290039
  C   0.77883268402567      0.19678498302220      0.75791166638160
  Br  0.05485605334618     -2.23527841927283     -0.58638073308103
  H   1.00593050759082     -0.46611749819142      1.59280357447236
  H   0.38430192419737      1.12854383488521      1.16747675039855
  N   -1.66415736241286     -0.49625038404460      0.73203025755076
  O   -2.68860139598507     -0.59133623039482      0.07164124711121
  O   -1.56334186773865     -0.46530786520640      1.95191220965158
  N   -0.64716097684117      0.45193391548927     -1.24119750311892
  O   -0.43332063751910      0.05312188802874     -2.37311141302657
  O   -1.02890568240114      1.56833598012994     -0.90429040749841
  N   1.97245371125983      0.47408412648032      0.00290734898496
  H   1.82938434540694      1.18688391418136     -0.69909727334584
  H   2.35775457359096     -0.35520876342252     -0.42734740157993
