14
Coordinates from ORCA-job run
  C   -0.54454556145987      0.08642378616410      0.16920634246717
  C   0.90829003858201     -0.12551071721438      0.61585407394551
  Br  -1.31562319916273      1.66639597472107      0.91526967079498
  H   1.19551669353822     -1.12713468595416      0.29067609132676
  H   0.92011197566274     -0.11126642251168      1.70569005772489
  N   -0.55816591938773      0.11363747638218     -1.35551895476372
  O   -0.17579711854171     -0.94376694849509     -1.84686256729880
  O   -0.86483248460165      1.13547492620030     -1.94524188765106
  N   -1.44247129003918     -1.08392296250163      0.54457414221664
  O   -2.47053809127745     -1.21238489586847     -0.10434669801191
  O   -1.06334387852972     -1.77055845035643      1.48483457555456
  N   1.84672963074007      0.83348943935925      0.09470025875757
  H   1.60231843005024      1.78354651211677      0.33749396352502
  H   1.96235077442678      0.75657696795817     -0.90632906858760
