14
Coordinates from ORCA-job run
  C   -0.61859165584143      0.08693659034985      0.10926451641951
  C   0.84471444311015     -0.03689407976351      0.52752211616116
  Br  -1.50471192302034      1.55636007321455      0.92604727446902
  H   1.22744527370652     -0.94734052926179      0.05122416757362
  H   0.83040932263572     -0.19521011782723      1.60894532205129
  N   -0.75848322843022      0.19192248894870     -1.40561643431015
  O   -1.88916558447900      0.34553200759080     -1.84002133295166
  O   0.27217910254207      0.07029319910228     -2.05918815714537
  N   -1.29437841711326     -1.24076592688179      0.46588337733775
  O   -1.75823955904578     -1.35419645201984      1.58865410835502
  O   -1.20204758785341     -2.11093638285126     -0.39300814063101
  N   1.57146775231026      1.16516972266294      0.19904667607863
  H   2.03506979924462      1.07483673028814     -0.69243470312491
  H   2.24433226223408      1.39629267644820      0.91368120971708
