14
Coordinates from ORCA-job run
  C   -0.67243967685192      0.17530189958153      0.23432222721460
  C   0.73190877697386      0.45636950007728      0.80361325235131
  Br  -2.02891245633865      0.86027521517103      1.39239530615348
  H   0.72466090091576      0.04806979855336      1.81811822481397
  H   0.81613214790252      1.54157769962467      0.88466418843641
  N   -0.89078729211502      0.78467226240893     -1.14358805928757
  O   -0.00697086929618      1.52566100789810     -1.56180696362965
  O   -1.93420925922876      0.49218943037745     -1.70642773243788
  N   -0.80405840436224     -1.32681378541098      0.04438900791573
  O   -1.16821979566493     -1.98787173562916      1.00419130144190
  O   -0.39571538737880     -1.74525146390550     -1.03465460686898
  N   1.85507524286860     -0.06434960789061      0.07884114607538
  H   1.89996113713316      0.31171392693691     -0.85673526492952
  H   1.87357493544264     -1.07354414779302      0.04267797275080
