14
Coordinates from ORCA-job run
  C   -0.60187612752413      0.20768639300015     -0.00629949964131
  C   0.89186616504410      0.49044403405011      0.12122524249024
  Br  -1.62885628328623      1.05988953384945      1.35320354186364
  H   1.36267813586098      0.17807720320931     -0.81401650330574
  H   1.01473391099303      1.56900315441291      0.21405297303439
  N   -1.13794494476909      0.66699631718534     -1.35371538711892
  O   -2.05829722504693      0.02338544542454     -1.83817829502720
  O   -0.60788248862365      1.66961204549071     -1.81590532346947
  N   -0.79990490877817     -1.30741717042352      0.00153829649163
  O   -1.63039895007724     -1.81148268874633      0.73349082779997
  O   -0.05336248300280     -1.88254669900646     -0.78524475725993
  N   1.38288759714271     -0.22239718236524      1.28380888667505
  H   1.92164950884789      0.37472178538662      1.89164793685442
  H   1.94470809321954     -1.01697217146763      1.01539206061318
