14
Coordinates from ORCA-job run
  C   -0.67356167524853      0.18082555750731      0.23597095821603
  C   0.73162196062196      0.46224023513021      0.79937686304285
  Br  -2.03152946866352      0.81764124693473      1.42020874759977
  H   0.82678582932805      1.54777364880268      0.86476765461528
  H   0.72576725102538      0.06645956084969      1.81812294185568
  N   -0.90801799374091      0.81357392465461     -1.12927846062197
  O   0.00523883422540      1.49898700029159     -1.57905751069915
  O   -1.98391628760476      0.58346568600965     -1.65846970406815
  N   -0.78273065983880     -1.32045217781487      0.02080131292198
  O   -1.01981641334355     -2.00091576319207      1.00696600921118
  O   -0.48344766095595     -1.71600210140235     -1.10058236744474
  N   1.84426746328670     -0.08552720780621      0.07797095989167
  H   1.87740978305395      0.24676803986125     -0.87412621538101
  H   1.87392903785460     -1.09483764982622      0.09632881086054
