14
Coordinates from ORCA-job run
  C   -0.52031938346539      0.17382298047559      0.03543305078867
  C   1.00617649825944      0.37556647257227      0.00550433755778
  Br  -1.33037631013470      0.86617033094400      1.61643923220822
  H   1.35675266513764     -0.12301180788367     -0.90104714918440
  H   1.15592481308281      1.45233527252873     -0.12190815437991
  N   -1.08319873442938      0.82797026594587     -1.22493039825597
  O   -1.65931158259776      1.89880214749232     -1.13716913045674
  O   -0.80409690094088      0.20941989578123     -2.24727425008811
  N   -0.92515649726922     -1.28996460319283     -0.09864522257464
  O   -0.02910907705964     -2.12214007814621     -0.01057020052642
  O   -2.11359650529604     -1.50406170056569     -0.28342108317492
  N   1.76913694823552     -0.08185559455253      1.13098800434812
  H   1.66710682703241     -1.07868535503512      1.25408828819276
  H   1.50906723944519      0.39563177363604      1.98251267554555
