14
Coordinates from ORCA-job run
  C   -0.52017989538702      0.04888529071109      0.24354045805311
  C   0.98169293835699     -0.16057405137934      0.48020472310949
  Br  -1.22202618342574      1.51255826770977      1.24938139555572
  H   1.13125553013276     -0.26365243872610      1.55493829092569
  H   1.24526833165255     -1.11088854740404      0.01228860516388
  N   -0.72776829515207      0.23892270040991     -1.25548074208069
  O   -0.39031861863649     -0.74630785043563     -1.90442623464061
  O   -1.12674357027694      1.30740930109537     -1.68583205399389
  N   -1.33936208191381     -1.18483316555294      0.59531015336453
  O   -2.43894727313887     -1.27735743445303      0.06918622105045
  O   -0.82999046585805     -1.95519982581664      1.39932443142829
  N   1.82720887730533      0.88046665968025     -0.04252747171496
  H   1.59855574950633      1.78901553689784      0.33641885457474
  H   1.81335495683503      0.91955555726352     -1.05232663079572
