14
Coordinates from ORCA-job run
  C   -0.71356188207077      0.15038218395435      0.20155680335042
  C   0.67889562282467      0.41954985566553      0.75449504285336
  Br  -2.06769204781914      0.99157324970891      1.26108112741475
  H   0.74085054481659      1.50062817210003      0.88831929639723
  H   0.73713989205438     -0.05163431186595      1.74201435700167
  N   -0.74599431469267      0.68776316708445     -1.23043809544252
  O   -0.80803363174277     -0.12868031310958     -2.13483508385338
  O   -0.62888692809848      1.89894130132861     -1.32206416635274
  N   -1.02491755296115     -1.33831380482230      0.11935621735543
  O   -0.11026242182401     -2.10002220008558      0.42171983346877
  O   -2.14705262416164     -1.65051602773558     -0.24501293866347
  N   1.66841594845918     -0.00827377390893     -0.20912459772250
  H   2.47804982552501      0.59359343292973     -0.19693813994463
  H   1.94704956969080     -0.96499093124368     -0.05112965586243
