14
Coordinates from ORCA-job run
  C   -0.51289179156625      0.15184595324533      0.12658794132124
  C   0.98011492644089      0.41368378274747     -0.14579915157377
  Br  -1.07366702495340      0.76142350058030      1.84388444190385
  H   1.07064509928041      1.49873787319813     -0.25767992265208
  H   1.19255998413112     -0.04387692491896     -1.11474043471317
  N   -1.29739077541260      0.82285413405516     -0.99910726013462
  O   -1.88806528625769      1.86615276029729     -0.77754981144007
  O   -1.16877162080962      0.24941418515324     -2.07624736142745
  N   -0.88540739138611     -1.32178075623212      0.00618750848585
  O   -2.08017410824705     -1.57619621543175      0.00763452500506
  O   0.04052074729493     -2.12075234871212     -0.08090901463939
  N   1.93365518245788     -0.04700716184684      0.82206953514098
  H   1.88506898547983     -1.05008994704121      0.92583212841604
  H   1.80280307354761      0.39559116490614      1.72083687630747
