14
Coordinates from ORCA-job run
  C   -0.61940660289745      0.23502571542524      0.36570597873157
  C   0.88779180562731      0.31902197578263      0.56238496688658
  Br  -1.56044555982640      1.21938313720104      1.71082401211942
  H   1.11450786010917      1.38162668778475      0.66210681327367
  H   1.12264029403862     -0.17211473786144      1.51342334079330
  N   -0.92877333482258      0.79677476896144     -1.02298571383914
  O   -1.30458971646555      0.00896317673116     -1.87535608853994
  O   -0.69087541606874      1.98620188439876     -1.15554608668722
  N   -1.12571207303246     -1.20127845151931      0.38057437437595
  O   -0.26804971071966     -2.07663109758661      0.46111502325038
  O   -2.33270224637566     -1.36398500694070      0.30318048152777
  N   1.55498424233865     -0.21066249965408     -0.60596471927794
  H   1.73136970487738     -1.19972750418037     -0.51211175699040
  H   2.41926075321735      0.27740195145754     -0.78735062562397
