14
Coordinates from ORCA-job run
  C   -0.53588805029832      0.09753905960129      0.13746104836824
  C   0.91451230637433     -0.15436924222147      0.57541950838280
  Br  -1.26319066212571      1.67455994969621      0.93769548685077
  H   0.89598319257941     -0.21819610332561      1.66443639216701
  H   1.19861364919268     -1.13340965265683      0.18382306041770
  N   -0.64686042152465      0.17442589258767     -1.38444239520850
  O   0.19431358234177     -0.48441855720412     -1.98910055245986
  O   -1.55895815297153      0.82164062995581     -1.87166761411387
  N   -1.38860446825109     -1.10337213702614      0.54574639285812
  O   -1.37292710407760     -1.36284917136979      1.74001696279022
  O   -1.96531338065966     -1.71676814438174     -0.34276056904062
  N   1.88144701346589      0.82059918206365      0.15420865043674
  H   1.98031994048986      0.83880530498436     -0.85082974112762
  H   1.66655255546463      1.74581298929671      0.49899336967888
