14
Coordinates from ORCA-job run
  C   -0.67561697342204      0.17719270468142      0.23407840493560
  C   0.72306828908242      0.41839302771942      0.83089645554464
  Br  -2.02863953082560      1.02735141941175      1.28184391236227
  H   0.72336956216689     -0.04968644807184      1.81713284599328
  H   0.80030041070998      1.49903027297159      0.97497939773847
  N   -0.65799595495523      0.71079620278227     -1.18981123832214
  O   -0.77866753904339      1.91862166018630     -1.32478723694868
  O   -0.38328449252389     -0.11024333926098     -2.05809901273731
  N   -1.02990615127519     -1.29956049854654      0.11895628403535
  O   -2.10639604644591     -1.56259374873388     -0.39335630215337
  O   -0.20157961949357     -2.09640944534598      0.54893381692999
  N   1.84584881365582     -0.04493748523590      0.06691096982683
  H   1.96707002538109      0.45098593341422     -0.80450399948408
  H   1.80342920698866     -1.03894025597192     -0.10117429772084
