17

C	0.0	0.0	0.0
C	-0.393233	-0.138041	-1.576032
Cl	1.810914	0.0	0.0
H	-0.149468	0.865583	-1.923402
N	-0.336596	1.391924	0.545053
O	-0.38098	2.274482	-0.297731
O	-0.370504	1.551925	1.749089
N	-0.32067	-1.180741	0.923644
O	-0.320633	-2.257325	0.354584
O	-0.4339	-0.985992	2.120193
N	-1.793881	-0.224264	-2.443746
O	-2.364985	-1.287918	-2.60142
O	-1.987776	0.80416	-3.08669
N	0.280336	-1.246858	-2.178026
H	0.126785	-1.245911	-3.173019
H	1.262855	-1.265299	-1.977199
Cl	-2.748654	0.0	0.0
