14

C	-0.459207	0.057457	-1.436259
C	0.0	0.0	0.0
Cl	0.25489	1.418957	-2.248012
H	1.093993	0.0	0.0
H	-0.308037	0.932997	0.478039
N	-0.141401	-1.253154	-2.167874
O	-0.863676	-2.181431	-1.821738
O	0.774544	-1.276846	-2.969664
N	-1.980693	0.190373	-1.57939
O	-2.432016	0.004401	-2.702226
O	-2.606501	0.516608	-0.579084
C	-0.535217	-1.117715	0.762461
N	-0.939621	-1.990493	1.435393
Br	3.384807	0.0	0.0
