14

C	-0.455266	-0.00118	-1.426125
C	0.0	0.0	0.0
Cl	-0.016967	1.431984	-2.298064
H	1.094669	0.0	0.0
H	-0.352303	-0.916381	0.47758
N	0.160014	-1.250006	-2.095175
O	1.194204	-1.113354	-2.724735
O	-0.424867	-2.294561	-1.829958
N	-1.967809	-0.234848	-1.582814
O	-2.394581	-0.276539	-2.729673
O	-2.608235	-0.363637	-0.549018
C	-0.485779	1.157537	0.71728
N	-0.836549	2.103853	1.325852
Br	2.74919	0.0	0.0
