16
Coordinates from ORCA-job run
  C   -0.62518499324086     -0.07283537375743      0.24648277954520
  C   0.67051682073238      0.04192345576751     -0.07380559761557
  N   -0.99180610010614     -0.37126571127031      1.64313773721467
  O   -1.82374529948161      0.37766552479251      2.14896984015081
  O   -0.48252974495557     -1.35718963264063      2.16867692824472
  C   -1.81408616409814      0.07199347352348     -0.64102482486835
  H   -2.40609835981566      0.93154605090604     -0.32109834474943
  H   -2.44722128085228     -0.81571144225647     -0.55972224057316
  H   -1.52964126241305      0.20017890385027     -1.68322375161012
  C   1.27364459625944      0.29554767224783     -1.41322490752752
  H   0.51609408843012      0.48922450586602     -2.16961480735205
  H   1.94197525158315      1.15930764371114     -1.36085454542705
  H   1.87059040676183     -0.56740441272457     -1.71427324251557
  N   1.68380028874627     -0.09953597458561      0.98796807911432
  O   2.58887872337199     -0.89811835964017      0.75996130398070
  O   1.57381302907813      0.61467367621038      1.98064559398839
