16
Coordinates from ORCA-job run
  C   -0.63791638152397     -0.16478015614533      0.12763642749783
  C   0.62709922596926      0.17072943144409     -0.16830367390251
  N   -1.53111668629557      0.92778211277890      0.55402258176646
  O   -2.13649430299975      0.75416445889273      1.61016546159369
  O   -1.62613881749734      1.91255417033608     -0.17696496357876
  C   -1.29904347032943     -1.50102785636819      0.13941999861401
  H   -2.08327521748412     -1.52887897980601     -0.62254979342081
  H   -0.59631487502447     -2.30324800998170     -0.06911533831094
  H   -1.76378297878368     -1.66012953274650      1.11322466986410
  C   1.30887844078144      1.49504873938854     -0.10212605374770
  H   2.22207046956044      1.39763820640161      0.48612257005372
  H   1.58411013432824      1.81631813105320     -1.11089279119883
  H   0.66976368411750      2.25853715767792      0.33322239449528
  N   1.52034887416770     -0.92146771137183     -0.59525133530288
  O   1.15409620976401     -1.63276913115563     -1.52967993174281
  O   2.58671569124975     -1.01947103039788      0.00906977732017
