16
Coordinates from ORCA-job run
  C   -0.62645024228271     -0.18590201768826      0.15295292162358
  C   0.63684882859399      0.17908271380200     -0.11411232896395
  N   -0.95288524393776     -1.61378065547569     -0.01482110347765
  O   -1.92989859651606     -1.87005141189372     -0.71602411633403
  O   -0.25046689853869     -2.43700492992378      0.57010471516497
  C   -1.79739669768057      0.63963485926974      0.56558257199610
  H   -1.56755526958297      1.70172996609526      0.56008773583898
  H   -2.63051074396602      0.43790390313845     -0.10871122984468
  H   -2.10223181837307      0.36296373363038      1.57903176539871
  C   1.78719243621134     -0.63275373949852     -0.60455961784800
  H   2.21154736914986     -0.15221235097541     -1.48685025138072
  H   1.49252771134008     -1.65070447098890     -0.84511764030833
  H   2.56095877605390     -0.67622277456667      0.16741605207230
  N   0.96417256343468      1.60641741725859      0.05655633195246
  O   1.50557569735350      2.15879377837040     -0.89930936776758
  O   0.69957212874050      2.13210597944613      1.13677356187785
