16
Coordinates from ORCA-job run
  C   0.67169612203662      0.00629378769946     -0.07501477613209
  C   -0.62757768249505     -0.03890091438352      0.24836836646049
  N   1.67901088788478     -0.16845877161950      0.98757080246408
  O   2.54149212594032     -1.01601526850465      0.77151533960844
  O   1.60835567954205      0.56730704640672      1.96793752183220
  C   1.28425075521657      0.21174228690266     -1.41842819000390
  H   0.53523436795122      0.42613973923249     -2.17770778619630
  H   1.98975124872071      1.04617999487433     -1.38008565557785
  H   1.84221502540732     -0.68151345857632     -1.70551547900454
  C   -1.80938400024408      0.15142231908715     -0.64008404293779
  H   -1.52065203692583      0.24360095375988     -1.68491532073802
  H   -2.48883496225853     -0.69931161088961     -0.54038147687525
  H   -2.35396209373262      1.04761725793571     -0.33681359621869
  N   -1.00604379929093     -0.29780562609532      1.64977528495615
  O   -1.80036897002621      0.49828370911024      2.14403548001374
  O   -0.54418266772635     -1.29858144493970      2.19074352834933
