16
Coordinates from ORCA-job run
  C   -0.62545619148512     -0.08008265243701      0.24549362282747
  C   0.67016792691044      0.03898262418380     -0.07413658709737
  N   -0.99003752687832     -0.42568058106249      1.63155043850887
  O   -1.82561983294155      0.30264828297103      2.16130719514609
  O   -0.47671854597644     -1.42584434424165      2.12535453842521
  C   -1.81496418900240      0.09947359991997     -0.63497031777722
  H   -2.40223531944415      0.95105777593906     -0.28613082557328
  H   -1.53085958009083      0.26122238615478     -1.67259207529957
  H   -2.45301173544127     -0.78679958541498     -0.58218818385644
  C   1.27143981753326      0.34000978524965     -1.40455140851249
  H   1.87792655240321     -0.50742433773316     -1.72988552800302
  H   0.51277070166570      0.54728269822561     -2.15613075006556
  H   1.93050263036603      1.20889667988976     -1.32529470095575
  N   1.68591980876787     -0.13797300459274      0.97995670171974
  O   2.58574390237319     -0.93507086516032      0.72754861057182
  O   1.58343158124039      0.55030153810867      1.99166926994151
