10
Coordinates from ORCA-job run
  C   0.48821363066141     -0.53240984751230      0.18089815364097
  C   -0.45292348785875      0.59679692246693     -0.26154933416998
  Br  -0.04408077148559     -1.23703226547439      1.91679441274440
  H   -0.45859575721333      1.38763341360067      0.49255405283413
  H   0.43190533045512     -1.37252566507237     -0.51397823390787
  H   -0.07512364461015      1.02555659764062     -1.19566670567811
  C   1.86074731699065     -0.04820577179445      0.24732234327379
  N   2.95884051531858      0.36849272460258      0.27452546256565
  C   -1.81243248816939      0.10790911123809     -0.47539311630549
  N   -2.89755064408854     -0.29621521969536     -0.66350703499750
