10
Coordinates from ORCA-job run
  C   0.51523626216614     -0.53983766527560      0.02377671507487
  C   -0.48028720186511      0.62381726986561     -0.08310859892950
  Br  -0.00396990832052     -1.76689459887003      1.44436688690379
  H   -0.53927429561014      1.14601615488529      0.87495717547902
  H   0.51719436999857     -1.12860369195441     -0.89553665009060
  H   -0.11337635069296      1.33421593836769     -0.83129852092141
  C   1.85666119131382     -0.03177111024951      0.27971146373571
  N   2.92632318867211      0.41428160533509      0.47123753176776
  C   -1.80860336790710      0.16065100999880     -0.47527026063227
  N   -2.86990388775481     -0.21187491210293     -0.80883574238737
