10
Coordinates from ORCA-job run
  C   0.63624415845686     -0.53581727330392     -0.01926610434140
  C   -0.85498623729290     -0.20890175821248     -0.18208279273106
  Br  0.82801804746616     -2.37244715948355      0.60535824035809
  H   -1.35489723436165     -0.27625314856165      0.78721835906607
  H   1.14352395701626     -0.49061741202851     -0.98459839671742
  H   -1.31192125442212     -0.94396829237170     -0.84914440636078
  C   1.28780531299358      0.37172851181852      0.91532732771597
  N   1.79367527862054      1.11849691510259      1.66805776570796
  C   -1.02689561919902      1.13173961784267     -0.74020979562173
  N   -1.14256640927770      2.20503999919802     -1.20066019707570
