10
Coordinates from ORCA-job run
  C   0.61545418951983     -0.55984766189071      0.01438130750508
  C   -0.86867895808848     -0.19273269242006     -0.12402182988802
  Br  0.76823271706497     -2.32359153274385      0.83139167085344
  H   -1.38089788343204     -0.97725466138022     -0.68624190576462
  H   1.08117089515643     -0.64168070569001     -0.96925703602408
  H   -1.32741682136678     -0.13292966142262      0.86589939831126
  C   1.34021315620529      0.41656517518570      0.81630931401240
  N   1.90530275262117      1.21959538563721      1.46127096990057
  C   -1.01711278546288      1.08496863662090     -0.81969312419562
  N   -1.11526726221750      2.10590771810365     -1.39003876471042
