10
Coordinates from ORCA-job run
  C   0.50322756314609     -0.23692842567009      0.49752036664756
  C   -0.50039101123827      0.17701336497311     -0.58783082324398
  Br  0.68235215414735      1.15881280201352      1.84383002562647
  H   -0.51285160271842     -0.59106315618415     -1.36815985177866
  H   0.14984353371557     -1.12290938530343      1.02864406896381
  H   -0.17942721325449      1.11562423852631     -1.04613833985243
  C   1.80342001191893     -0.51427809723345     -0.09897877568881
  N   2.83283410752533     -0.74546948048473     -0.61549095577349
  C   -1.84743015416281      0.32837487464771     -0.04460916538466
  N   -2.93157738907927      0.42982326471520      0.39221345048420
