10
Coordinates from ORCA-job run
  C   0.54445999532620     -0.48998834122512      0.14672542030003
  C   -0.52108715690776      0.54795409404310     -0.23254884213257
  Br  0.24843391050076     -1.15883164639306      1.95153645274600
  H   -0.27519768999716      0.96274512324889     -1.21573895001990
  H   0.48304654325728     -1.36018636691951     -0.50972296088237
  H   -0.50846409441286      1.36774013370171      0.48998854861807
  C   1.87422665262881      0.09787928516571      0.05096332333702
  N   2.93053434766148      0.60108098687317     -0.05422088261159
  C   -1.85524969817241     -0.04360602406097     -0.28313824963741
  N   -2.92270280988435     -0.52678724443392     -0.34284385971727
