10
Coordinates from ORCA-job run
  C   0.54386119238584     -0.66007428223453      0.19830189568417
  C   -0.70393416777825     -0.19508787047370     -0.56216014743692
  Br  0.09845912722363     -1.12227118155129      2.03708464584391
  H   -1.45445354455650     -0.98902477238604     -0.53483197763950
  H   0.92004979142715     -1.57845075163932     -0.25700595088484
  H   -0.43070049098101     -0.02161998531617     -1.60848645572607
  C   1.59401913527997      0.34960450434390      0.17942700793964
  N   2.43622826697255      1.16699822478070      0.12786607645010
  C   -1.27278172185143      1.03031231979266     -0.00701559191674
  N   -1.73074758812194      2.01861379468379      0.42882049768626
