10
Coordinates from ORCA-job run
  C   0.55965152100267     -0.65718571611752      0.15945099000515
  C   -0.67961006192483     -0.16764454346623     -0.59933728198565
  Br  0.07417913387687     -1.29053534312148      1.93639523395911
  H   -0.38135910377603      0.10163575168087     -1.61823550421232
  H   0.98065545081131     -1.52064134644483     -0.35958820089690
  H   -1.40419623260664     -0.98341471196586     -0.66256960200168
  C   1.57514770793830      0.38229936878303      0.26239480350759
  N   2.39250115451278      1.22479634685120      0.30755478371159
  C   -1.30514048904061      0.98867661026203      0.03694225189359
  N   -1.80982908079381      1.92301358353880      0.53599252601952
