10
Coordinates from ORCA-job run
  C   0.54861325471557     -0.66048135277088      0.18139762292791
  C   -0.70279812365569     -0.18572518978980     -0.56688327289641
  Br  0.10684679920707     -1.17166664753426      2.00849882761243
  H   -0.43119384228167      0.01615352677322     -1.60848743539379
  H   0.93093708824590     -1.56478103066330     -0.29644568420867
  H   -1.44728305067191     -0.98571805764458     -0.55948017480385
  C   1.59180199960539      0.35645083132480      0.18834013929232
  N   2.42897288875922      1.18007091166146      0.15830563603955
  C   -1.28042086143597      1.02129660318161      0.01849411500079
  N   -1.74547615248792      1.99540040546172      0.47826022642973
