10
Coordinates from ORCA-job run
  C   0.62505598236288     -0.54863224266519     -0.00438976922870
  C   -0.86427769386620     -0.20225180559916     -0.14102307796590
  Br  0.80216050634866     -2.34255141340041      0.73957224737753
  H   -1.33258113126291     -0.19311079226909      0.84610078091646
  H   1.10042922822427     -0.58110362485484     -0.98626568899275
  H   -1.35706618655002     -0.97110473843162     -0.74096028271081
  C   1.32516493511618      0.40483432805865      0.84561361914499
  N   1.86879473639707      1.18796475488696      1.53224475342517
  C   -1.02911233821586      1.10114886363776     -0.78323130784046
  N   -1.13956803855405      2.14480667063693     -1.30866127412552
