10
Coordinates from ORCA-job run
  C   0.57751618725129     -0.64953982255491      0.12422135791069
  C   -0.71647904528760     -0.17969364236365     -0.55146651341263
  Br  0.22164462737655     -1.27636473854953      1.93380648760979
  H   -1.43221645359515     -1.00548627917473     -0.56259907424608
  H   0.97237024420875     -1.51167002264388     -0.41720222659194
  H   -0.49101308352639      0.08853486456541     -1.58912752626729
  C   1.58443371950842      0.40298795792202      0.15158690380258
  N   2.38963674121365      1.25842974825015      0.13881594148022
  C   -1.31291614506722      0.97122148880232      0.12122532530059
  N   -1.79297679208229      1.90158044574680      0.65073932441408
