10
Coordinates from ORCA-job run
  C   0.56673234646018     -0.65373606843549      0.15033228915388
  C   -0.71249023268506     -0.18574657320069     -0.55422985107211
  Br  0.18220279895900     -1.21627141027869      1.97497492324414
  H   -0.47175262843945      0.04668310672464     -1.59706995838783
  H   0.95314758102876     -1.53888223335785     -0.35899233996100
  H   -1.44072167647587     -1.00062940274029     -0.54773415312436
  C   1.58986484127743      0.38337865467496      0.15518453470035
  N   2.40704616509973      1.22698993660340      0.12656053352612
  C   -1.29877488851757      0.99415115278108      0.07606899090353
  N   -1.77325430670715      1.94406283722893      0.57490503101729
