15

C	0.0	0.0	0.0
C	-0.34786	0.28117	-1.482134
F	1.391714	0.0	0.0
H	0.235584	1.178135	-1.729848
H	-0.331359	-1.0016	0.290163
C	-0.550911	1.042748	0.934152
H	-0.244159	2.043454	0.614909
H	-0.181168	0.871093	1.947591
H	-1.642366	0.974047	0.938988
N	-1.718618	0.514244	-1.871954
H	-2.032605	1.403788	-1.503958
H	-2.365026	-0.154246	-1.454849
C	0.222604	-0.810016	-2.299049
N	0.652764	-1.692949	-2.941797
Cl	-4.240859	0.0	0.0
