15

C	0.0	0.0	0.0
C	-0.352492	0.4748	-1.431598
F	1.39997	0.0	0.0
H	0.290121	1.351307	-1.58862
H	-0.326849	-1.031039	0.158813
C	-0.537852	0.910818	1.068314
H	-0.148193	0.611706	2.043417
H	-1.628855	0.840232	1.083217
H	-0.233721	1.945095	0.87695
N	-1.709843	0.850456	-1.752195
H	-2.403088	0.191298	-1.393334
H	-1.940606	1.718993	-1.285581
C	0.113499	-0.552665	-2.384008
N	0.466282	-1.400349	-3.116315
Cl	-4.225536	0.0	0.0
