16

C	0.0	0.0	0.0
C	-0.42088	-0.041087	-1.482461
Cl	1.790893	0.0	0.0
H	0.188996	-0.80468	-1.969453
H	-0.298752	-0.973145	0.394878
C	-0.582125	1.092658	0.864549
H	-1.674437	1.011329	0.808956
H	-0.265918	0.941909	1.900457
H	-0.26649	2.078891	0.531038
N	0.07694	1.234472	-2.17616
O	-0.433852	2.30175	-1.846143
O	0.917288	1.104838	-3.069447
N	-1.791319	-0.202852	-1.765976
H	-1.973265	-1.136185	-2.110225
H	-2.509478	-0.009563	-0.991985
H	-3.616153	0.0	0.0
