16

C	0.0	0.0	0.0
C	-0.569533	0.040079	-1.41367
Cl	1.788377	0.0	0.0
H	-0.354413	-0.898631	-1.929673
H	-0.296734	-0.959539	0.433785
C	-0.455015	1.132095	0.909517
H	0.022185	1.032981	1.888034
H	-0.192433	2.0798	0.443339
H	-1.539706	1.078285	1.043293
N	-0.049173	1.109146	-2.261889
O	-0.448752	2.315751	-1.825612
O	-0.001295	0.827892	-3.541991
N	-2.016137	0.214469	-1.237497
H	-2.066766	1.245792	-1.305453
H	-2.492148	-0.157087	-2.057307
H	-3.082499	0.0	0.0
