16

C	0.0	0.0	0.0
C	-0.420453	-0.040323	-1.484719
Cl	1.790797	0.0	0.0
H	0.195943	-0.796867	-1.97384
H	-0.298213	-0.973768	0.394919
C	-0.580158	1.094207	0.864743
H	-0.264189	0.944159	1.900988
H	-0.261533	2.079775	0.530498
H	-1.673019	1.016776	0.807258
N	0.069465	1.243282	-2.173551
O	-0.456599	2.30289	-1.84598
O	0.923733	1.126826	-3.054626
N	-1.789421	-0.21046	-1.772528
H	-2.503548	-0.015108	-0.997056
H	-1.96364	-1.148623	-2.105985
H	-3.610214	0.0	0.0
