13
Coordinates from ORCA-job run
  C   -0.72393982484983     -0.46373048018906      0.11555470620201
  C   0.41983241178432      0.50980295595894     -0.07220087358552
  Cl  -1.17205088364744     -1.27829585571131     -1.38757619276247
  H   0.51900682835276      1.06932701279351      0.86500253408488
  H   -0.51818559234920     -1.22573147622088      0.86482898211531
  H   0.13501991807179      1.21986893491165     -0.85176062621284
  N   -1.92133502433552      0.28901503008302      0.64015950440909
  O   -2.38864732431285      1.16760233979217     -0.07290125437951
  O   -2.29379318883920     -0.01208427798372      1.77181221405168
  C   1.73196237624856     -0.18922480602841     -0.40599447748164
  H   1.66680577473028     -0.72600696015058     -1.35295679367081
  H   2.53692172932824      0.54300132298981     -0.48930562115302
  H   2.00840279981810     -0.90254374024514      0.37433789838283
