13
Coordinates from ORCA-job run
  C   -0.82077605391181      0.02181818180050     -0.27933134378455
  C   0.53615117081586      0.03086229695983      0.39108985520277
  Cl  -1.07279994163676      1.43141566561932     -1.31508585523730
  H   0.63275636270298      0.96589241673333      0.94725481961662
  H   -0.99784007689500     -0.87182261179686     -0.87469970035400
  H   0.53746107343073     -0.78882240558875      1.11865536484170
  N   -1.88907249646731      0.00050466023446      0.78597449262623
  O   -1.93504946845904      0.95298667463898      1.55370659366149
  O   -2.59326138920010     -1.00580912259899      0.82349111479764
  C   1.67831946561918     -0.14825722900102     -0.60160023057515
  H   2.63238883693904     -0.18801553177460     -0.07319677603206
  H   1.56932254234458     -1.07827788720725     -1.16495824284931
  H   1.72139997471765      0.67852489198104     -1.31130009191408
