13
Coordinates from ORCA-job run
  C   -0.87710594987252     -0.66111868123890      0.16584958419824
  C   0.61190693017179     -0.53223000474940      0.44317197347329
  Cl  -1.22195511111180     -1.45843601285532     -1.36387366553790
  H   0.71468951863872     -0.18380389306051      1.47475515906473
  H   -1.39121595577473     -1.20607315668941      0.95566505634064
  H   1.03580655847193     -1.53850819181463      0.39144410916565
  N   -1.47652799580031      0.73055047071307      0.20276018236558
  O   -1.74020289381790      1.30978371516675     -0.84014291157258
  O   -1.57638485280039      1.18532440695139      1.33945511087816
  C   1.33545468134004      0.40832606045767     -0.51309668676558
  H   0.99329815391305      1.43821534455254     -0.39570532265337
  H   2.40709427598001      0.39091446314367     -0.30722407848049
  H   1.18514264066209      0.11605547942308     -1.55305851047637
