13
Coordinates from ORCA-job run
  C   -0.86968656975908     -0.66458152677052      0.19164928068422
  C   0.62294670155237     -0.52036201580679      0.44197754351887
  Cl  -1.23440457071637     -1.49080069289868     -1.31758420756609
  H   1.05322363332013     -1.52440504814814      0.40063688600400
  H   -1.36627965520890     -1.19836230447458      1.00005597190930
  H   0.73971037067601     -0.15356144951284      1.46567224404007
  N   -1.47797197922782      0.72387011594697      0.21394781569367
  O   -1.56339087003561      1.19770250899825      1.34412681646154
  O   -1.76019498062918      1.28367333588641     -0.83468885623991
  C   1.32361906766954      0.40885942645760     -0.54193031307503
  H   2.39913888910443      0.39964401387975     -0.35688437694347
  H   1.15456100825014      0.10049886857170     -1.57436190341504
  H   0.97872895500432      1.43882476787087     -0.43361690107213
