18

C	-0.379641	-0.00577	-1.468024
C	0.0	0.0	0.0
F	0.178901	1.041915	-2.122539
H	1.09768	0.0	0.0
C	-0.052152	-1.250512	-2.176681
N	0.193641	-2.244423	-2.751622
N	-1.902805	0.177652	-1.602727
O	-2.312625	1.307077	-1.831645
O	-2.586306	-0.820922	-1.397395
C	-0.457587	-1.245521	0.749331
H	-0.019354	-1.213063	1.749359
H	-0.098729	-2.157897	0.268473
H	-1.545237	-1.302375	0.843796
C	-0.470589	1.285824	0.672028
H	-1.553559	1.295149	0.837743
H	-0.196308	2.16363	0.085592
H	0.028185	1.364961	1.640144
Br	3.499191	0.0	0.0
