18

C	-0.513353	0.051097	-1.425178
C	0.0	0.0	0.0
F	-1.880144	0.156101	-1.458273
H	1.095043	0.0	0.0
C	0.047695	1.150675	-2.222512
N	0.435311	2.070284	-2.842845
N	-0.169378	-1.256386	-2.145975
O	-1.049155	-2.108159	-2.184436
O	0.971889	-1.344078	-2.575393
C	-0.474889	-1.262852	0.713786
H	-0.156839	-1.202349	1.755924
H	-0.015342	-2.158146	0.290647
H	-1.56206	-1.372714	0.680289
C	-0.45091	1.265963	0.728199
H	-0.103232	2.165242	0.213838
H	0.001245	1.269731	1.720798
H	-1.537489	1.312752	0.833336
Br	3.518906	0.0	0.0
