18

C	-0.523228	0.015289	-1.418677
C	0.0	0.0	0.0
F	-1.897945	0.032126	-1.43232
H	1.109068	0.0	0.0
C	-0.065523	1.154143	-2.22704
N	0.179776	2.105983	-2.870266
N	-0.108224	-1.260408	-2.159181
O	1.007261	-1.247751	-2.662107
O	-0.913576	-2.183561	-2.150319
C	-0.459054	-1.25586	0.737846
H	-0.129721	-1.17812	1.77592
H	-1.546113	-1.370915	0.719207
H	-0.001647	-2.155866	0.323743
C	-0.457393	1.272693	0.713476
H	0.004942	1.296651	1.700818
H	-1.542819	1.304698	0.830984
H	-0.129157	2.169528	0.184425
Br	3.534774	0.0	0.0
