18

C	-0.516514	0.049767	-1.422203
C	0.0	0.0	0.0
F	-1.88554	0.152677	-1.444012
H	1.095039	0.0	0.0
C	0.023654	1.156187	-2.22317
N	0.356751	2.093403	-2.847578
N	-0.177982	-1.25157	-2.153979
O	-1.054816	-2.106243	-2.18756
O	0.957993	-1.331614	-2.598677
C	-0.472885	-1.265174	0.711032
H	-1.560396	-1.374281	0.680146
H	-0.015057	-2.15931	0.284226
H	-0.152985	-1.209301	1.753529
C	-0.449438	1.263712	0.733518
H	-1.535512	1.303726	0.851561
H	-0.113022	2.165965	0.21706
H	0.014557	1.268173	1.721349
Br	3.522162	0.0	0.0
