15
Coordinates from ORCA-job run
  C   -0.34246258238784      0.06893558619478     -0.34422771264780
  C   0.68340166835542     -0.79554564071064      0.37997123056356
  Cl  -0.64689669871053     -0.60743666481616     -1.97928663811516
  H   0.27660231104541     -1.80520870434111      0.48639377568235
  H   0.76883532063350     -0.36569802680596      1.39520389281083
  N   0.23806212155092      1.39296756519232     -0.53878835393985
  H   0.23609326782319      1.88000166709330      0.35262330027011
  H   -0.32989994344982      1.92805052526361     -1.18557967988248
  C   -1.67259441874214      0.07728708988178      0.39654544337837
  H   -2.39795640547290      0.69297256013157     -0.13877755734724
  H   -1.53175948695824      0.49437202300834      1.39883189618374
  H   -2.07924065118208     -0.93151752492447      0.49126673023884
  N   1.93412862034125     -0.85206101522454     -0.35323168030047
  H   2.65372972002479     -1.27230599336362      0.22013253681183
  H   2.20895715712906      0.09518655342080     -0.58307718370662
