15
Coordinates from ORCA-job run
  C   -0.28844651432273      0.31310678227336     -0.33224713305428
  C   1.07381198398390     -0.21292649589074      0.10388873903025
  Cl  -0.78546549882813     -0.72930663722626     -1.80516602296762
  H   1.37411019605349      0.40347489827699      0.95629047678817
  H   1.78571287918241     -0.02086733342478     -0.71434593521121
  N   -0.16742749791262      1.68065600762060     -0.68804775037453
  H   -1.05825223463693      2.06601806835826     -0.97576158945821
  H   0.49849276349437      1.81005584982205     -1.44009361146788
  C   -1.36339877364251      0.11601706079793      0.71289380103478
  H   -2.33200100064871      0.44939695605392      0.33372401955611
  H   -1.10327155024607      0.71028859802896      1.59251725519441
  H   -1.42625346210718     -0.93213234998171      0.99431073206527
  N   1.00999211479357     -1.60128898965241      0.53011490774600
  H   1.86403286943270     -1.85079403287544      1.01121960706502
  H   0.92036372540444     -2.20369838218074     -0.27829749594627
