15
Coordinates from ORCA-job run
  C   -0.40233212096235      0.18885853255733     -0.42208415097310
  C   1.02581062456461     -0.17848537420433     -0.01577958136474
  Cl  -0.92108696418858     -1.04882075535189     -1.64592959042469
  H   1.65407611311189     -0.10553438802667     -0.91781810212151
  H   1.35829412551336      0.60056303656860      0.68007427973906
  N   -0.49571040417314      1.47345109337883     -1.07558824259288
  H   0.21106635306736      1.56082611938150     -1.79733200068676
  H   -0.35976493941727      2.21011382211740     -0.39257051333427
  C   -1.36598387616710      0.13900359975582      0.74402926440251
  H   -2.37167401287750      0.37740800781756      0.39762537120379
  H   -1.06279752270767      0.87746015555126      1.49421672641424
  H   -1.34796948744188     -0.84360822849064      1.20938220784804
  N   1.09872906192733     -1.46175585116770      0.66713736617859
  H   2.01588196158780     -1.58200957857490      1.07757683490645
  H   0.96146108816314     -2.20747019131217     -0.00393986919471
