14
Coordinates from ORCA-job run
  C   0.91429801548226      0.15887660871558      0.22662052964824
  C   -0.61758631661182      0.01534460497279      0.30235836517736
  Br  1.46796364605644      1.57390333022676     -0.93758523251493
  H   -0.82044061757506     -0.90537072240921      0.85252900590028
  H   1.28349986559487      0.38280103373821      1.22719474505498
  N   1.55521038649971     -1.17608335511308     -0.12419654068738
  O   1.35140196362701     -2.02877927951165      0.73493752671331
  O   2.18562380720999     -1.30598475324685     -1.15827980260940
  N   -1.11519039567179     -0.23805794781837     -1.10690605223864
  O   -1.75099294890983      0.64635677360636     -1.66224725561824
  O   -0.78683957630263     -1.32140465573036     -1.58479133206621
  N   -1.33169690451255      1.09732203014324      0.87392435256060
  H   -1.25610681694488      1.10895074155553      1.88064008382824
  H   -1.07914410794171      1.99112559087105      0.47580160685178
