14
Coordinates from ORCA-job run
  C   0.96753441111259      0.05381716085005      0.33465069453945
  C   -0.55633496936356      0.03898281339512      0.33092003152296
  Br  1.67612428970171      1.51156977206237     -0.68696275410730
  H   -0.87891844633976     -0.91073127635880      0.76268243274782
  H   1.29475776738214      0.17490145129895      1.36659301492600
  N   1.52829595538169     -1.29389157825234     -0.09922770167446
  O   2.32999112227392     -1.35934566618017     -1.01299476086270
  O   1.11271646468230     -2.21974258550100      0.58947441904711
  N   -1.03214338032519     -0.03140531935802     -1.13169670237970
  O   -1.82538312454403      0.82037560579012     -1.51323752904408
  O   -0.58011139049937     -0.96026205554755     -1.79280750375894
  N   -1.07493528447458      1.12889178933039      1.06349376506186
  H   -2.07324075319235      1.03806517645134      1.19296195115645
  H   -0.88835266179549      2.00777471201955      0.59715064282553
