14
Coordinates from ORCA-job run
  C   0.88019294197822      0.09519731113830      0.35802589774335
  C   -0.63420510684147      0.06562623627509      0.19515233553612
  Br  1.67138102329828      1.50749850145293     -0.67095176960958
  H   -1.00588076702198     -0.86250233534513      0.63360779958865
  H   1.11003057741156      0.29044432005534      1.40765127433424
  N   1.52021101234349     -1.26021476034218      0.10565969780479
  O   0.90620419196077     -2.19372480806492      0.60816422688617
  O   2.55018936585848     -1.31531816602918     -0.54162120701432
  N   -0.94553848240823     -0.14830642112942     -1.31836811696064
  O   -1.87497478699889      0.47368493157642     -1.80172309266716
  O   -0.16774818618413     -0.88622649376914     -1.91885708492351
  N   -1.28833221804668      1.21323358158593      0.67443091479279
  H   -0.69773230853215      1.98638119107669      0.93292002362047
  H   -2.02279725681728      1.03422691151925      1.33690910086863
