14
Coordinates from ORCA-job run
  C   0.63980717943775     -0.74463977397885      0.15701124408095
  C   -0.43603786982528      0.32842196115387      0.21027964782729
  Br  0.50087513421595     -1.99794120136508      1.60394410452601
  H   -0.41333647818635      0.84210163813687      1.17024010495646
  H   0.61524344723396     -1.29458552433972     -0.78182214475078
  N   1.96621173189666     -0.03777194356377      0.21590062889082
  O   2.72504369400756     -0.24250984459500     -0.72490347840870
  O   2.16274744535411      0.69095757894786      1.17873984384891
  N   -1.77964511266457     -0.38544991764940      0.14818222193384
  O   -1.98817685197359     -1.03070292078099     -0.87812123337443
  O   -2.55266193257394     -0.23652584759716      1.08849150113022
  N   -0.23535096161459      1.23109613580967     -0.86592831270974
  H   -0.77526874843644      2.07925844467407     -0.76220776226122
  H   -0.43045067687124      0.79729121514765     -1.75980636568964
