15

C	0.0	0.0	0.0
C	-0.621531	0.215652	-1.364667
Br	1.945058	0.0	0.0
H	-1.739453	0.159216	-1.060865
H	-0.354998	-0.591658	-2.047115
C	-0.481204	1.013153	1.013489
H	-0.167776	2.007244	0.689692
H	-0.067257	0.802946	1.997652
H	-1.574767	0.912121	0.991689
N	-0.38447	-1.409346	0.456079
O	-0.498436	-1.600144	1.659541
O	-0.481148	-2.272551	-0.408436
C	-0.267373	1.501115	-1.928101
N	-0.00359	2.544571	-2.402281
F	-2.845251	0.0	0.0
