15

C	0.0	0.0	0.0
C	-0.647301	-0.0954	-1.361459
Br	1.933394	0.0	0.0
H	-1.752702	-0.200153	-1.047263
H	-0.541285	0.875739	-1.848868
C	-0.516247	1.220983	0.732057
H	-0.187792	2.116734	0.199924
H	-0.13888	1.244789	1.752021
H	-1.611062	1.104415	0.690734
N	-0.3809	-1.238877	0.822079
O	-0.166465	-1.188472	2.028922
O	-0.841886	-2.198479	0.22137
C	-0.152872	-1.129097	-2.249428
N	0.225727	-1.920015	-3.030774
F	-2.900198	0.0	0.0
