15

C	0.0	0.0	0.0
C	-0.630658	-0.044513	-1.374993
Br	1.938289	0.0	0.0
H	-0.516973	0.94777	-1.821494
H	-1.737114	-0.159892	-1.068168
C	-0.490269	1.213039	0.765629
H	-0.144537	2.113954	0.253031
H	-0.104285	1.204494	1.782863
H	-1.586036	1.123418	0.735546
N	-0.387521	-1.262947	0.773038
O	-0.358582	-1.201029	1.996604
O	-0.645286	-2.264456	0.118779
C	-0.123592	-1.03482	-2.304114
N	0.278062	-1.78024	-3.119526
F	-2.857669	0.0	0.0
