15

C	0.0	0.0	0.0
C	-0.362929	0.190447	-1.474768
Br	1.947156	0.0	0.0
H	0.143965	1.108437	-1.796088
H	0.094286	-0.625048	-2.0403
C	-0.421111	1.107849	0.943682
H	-0.002576	0.934544	1.933888
H	-1.513757	1.068355	0.942181
H	-0.041628	2.055887	0.552136
N	-0.439435	-1.3588	0.498233
O	-0.543456	-1.501553	1.710044
O	-0.569046	-2.245606	-0.336643
C	-1.771019	0.299224	-1.909943
N	-2.547983	0.490946	-2.780402
F	-2.567982	0.0	0.0
