15

C	0.0	0.0	0.0
C	-0.634971	-0.123929	-1.365934
Br	1.950444	0.0	0.0
H	-1.741567	-0.228186	-1.050099
H	-0.531203	0.843793	-1.866535
C	-0.495593	1.245444	0.702625
H	-0.146741	2.12297	0.152699
H	-0.118264	1.284308	1.722378
H	-1.590904	1.147862	0.66554
N	-0.376589	-1.222706	0.845715
O	-0.704532	-2.240881	0.252584
O	-0.273201	-1.109923	2.062043
C	-0.122162	-1.160026	-2.240219
N	0.280017	-1.948994	-3.013497
F	-2.866445	0.0	0.0
