15

C	0.0	0.0	0.0
C	-0.626007	0.01909	-1.3785
Br	1.940321	0.0	0.0
H	-0.368714	-0.880522	-1.937281
H	-1.745006	0.013639	-1.064015
C	-0.47699	1.150353	0.859833
H	-0.05202	1.089914	1.859926
H	-0.168374	2.086181	0.388852
H	-1.570029	1.049347	0.862952
N	-0.38557	-1.327834	0.65646
O	-0.481971	-2.308247	-0.072866
O	-0.500491	-1.340942	1.874792
C	-0.262094	1.204014	-2.125664
N	0.010631	2.163641	-2.749069
F	-2.846614	0.0	0.0
