15

C	0.0	0.0	0.0
C	-0.574789	0.002501	-1.403276
Br	1.958803	0.0	0.0
H	-0.145906	-0.796019	-2.009496
H	-1.679753	-0.142825	-1.143209
C	-0.450598	1.180086	0.831061
H	-0.054202	2.09281	0.381931
H	-1.546092	1.138532	0.784157
H	-0.079168	1.090301	1.850183
N	-0.40403	-1.309628	0.664921
O	-0.522545	-1.312478	1.882757
O	-0.510888	-2.291371	-0.061077
C	-0.41184	1.289269	-2.05343
N	-0.344278	2.335432	-2.58607
F	-2.778923	0.0	0.0
