15

C	0.0	0.0	0.0
C	-0.623826	0.196839	-1.364673
Br	1.94788	0.0	0.0
H	-1.742949	0.148033	-1.059656
H	-0.362257	-0.618966	-2.038819
C	-0.478809	1.026111	1.00333
H	-1.572056	0.92593	0.987799
H	-0.05947	0.829193	1.988376
H	-0.166654	2.01632	0.665749
N	-0.372632	-1.406563	0.477663
O	-0.455181	-1.586632	1.686463
O	-0.48717	-2.276173	-0.37816
C	-0.264295	1.472346	-1.948181
N	0.007243	2.504378	-2.442393
F	-2.851842	0.0	0.0
