15

C	0.0	0.0	0.0
C	-0.624465	0.212737	-1.361965
Br	1.950777	0.0	0.0
H	-1.745584	0.159262	-1.052498
H	-0.360603	-0.5959	-2.043683
C	-0.476045	1.016399	1.014088
H	-0.167427	2.009913	0.681174
H	-0.053163	0.813714	1.995911
H	-1.569327	0.914937	1.000532
N	-0.379574	-1.408827	0.462381
O	-0.494095	-1.594055	1.666925
O	-0.474188	-2.276703	-0.397962
C	-0.270505	1.497385	-1.928339
N	-0.008243	2.542287	-2.400412
F	-2.845865	0.0	0.0
