12

C	0.0	0.0	0.0
C	-0.533016	-0.002333	-1.412147
F	1.375958	0.0	0.0
H	-1.642478	-0.00965	-1.293875
H	-0.36612	-0.894518	0.503831
H	-0.367579	0.883953	0.514814
C	-0.064976	-1.14032	-2.190464
N	0.302366	-2.097053	-2.76333
N	-0.183349	1.270945	-2.136714
O	-0.098625	2.290959	-1.461768
O	-0.06446	1.214061	-3.358292
Cl	-3.354359	0.0	0.0
