12

C	0.0	0.0	0.0
C	-0.238927	-0.133579	-1.5103
F	1.377606	0.0	0.0
H	0.372899	0.647444	-1.970718
H	-0.382944	-0.844378	0.56193
H	-0.387792	0.939745	0.382358
C	-1.521507	-0.130319	-2.21702
N	-2.213652	-0.229683	-3.166468
N	0.461362	-1.412476	-1.958771
O	0.316166	-2.413268	-1.269991
O	1.10981	-1.341652	-2.998855
Cl	-3.108935	0.0	0.0
