12

C	0.0	0.0	0.0
C	-0.280243	-0.134895	-1.516633
F	1.37768	0.0	0.0
H	-0.017045	0.80937	-1.994788
H	-0.375247	-0.851128	0.559906
H	-0.397353	0.930933	0.39088
C	-1.524851	-0.619708	-2.119778
N	-2.176196	-1.059495	-2.997772
N	0.762982	-1.112856	-2.050598
O	0.753933	-2.238904	-1.574148
O	1.521214	-0.704418	-2.924467
Cl	-3.079944	0.0	0.0
