12

C	0.0	0.0	0.0
C	-0.419037	0.525267	-1.379393
F	1.375248	0.0	0.0
H	0.522691	0.689631	-1.920486
H	-0.361678	0.653052	0.789079
H	-0.373214	-1.00733	0.146769
C	-1.126069	1.799854	-1.393269
N	-1.465408	2.921531	-1.467406
N	-1.098801	-0.498184	-2.263499
O	-1.769381	-0.066924	-3.190223
O	-0.788914	-1.667761	-2.079914
Cl	-3.032573	0.0	0.0
