12

C	0.0	0.0	0.0
C	-0.238217	-0.119735	-1.514374
F	1.377718	0.0	0.0
H	0.305811	0.708387	-1.973323
H	-0.383485	-0.850834	0.551759
H	-0.387948	0.934939	0.39203
C	-1.525073	-0.225864	-2.208101
N	-2.204681	-0.331686	-3.166356
N	0.548722	-1.342994	-1.974164
O	1.286344	-1.194814	-2.944733
O	0.36967	-2.387994	-1.360843
Cl	-3.068717	0.0	0.0
