12

C	0.0	0.0	0.0
C	-0.423818	0.336475	-1.435508
F	1.370776	0.0	0.0
H	0.515794	0.436203	-1.993963
H	-0.376181	-0.975705	0.288656
H	-0.362756	0.757522	0.690217
C	-1.139784	1.593891	-1.615731
N	-1.48534	2.693655	-1.839768
N	-1.09549	-0.799529	-2.174683
O	-1.795291	-0.50068	-3.130548
O	-0.753814	-1.929677	-1.850652
Cl	-3.051159	0.0	0.0
