12

C	0.0	0.0	0.0
C	-0.492445	-0.157618	-1.469011
F	1.370709	0.0	0.0
H	-1.210453	0.621526	-1.710624
H	-0.368864	-0.819216	0.609666
H	-0.36081	0.946001	0.395558
C	-1.043173	-1.470877	-1.800845
N	-1.405413	-2.53541	-2.143263
N	0.715801	0.083292	-2.360952
O	1.40319	-0.877057	-2.690008
O	0.937035	1.255697	-2.652551
Cl	-3.083241	0.0	0.0
