19

C	-0.341488	-0.017885	-1.481244
C	0.0	0.0	0.0
F	0.057078	1.180019	-2.023243
H	1.103762	0.0	0.0
C	0.311244	-1.129465	-2.261371
H	0.131336	-0.972661	-3.327536
H	1.383635	-1.083071	-2.05685
H	-0.083628	-2.099661	-1.96848
N	-1.850902	-0.057421	-1.680343
O	-2.389707	-1.144958	-1.477271
O	-2.430103	0.969163	-2.009314
C	-0.467404	-1.218469	0.77739
H	-0.10087	-2.145972	0.336153
H	-1.555582	-1.253991	0.848561
H	-0.047382	-1.156662	1.785481
N	-0.588208	1.207412	0.591138
H	-0.275419	1.242044	1.556
H	-0.164086	2.009206	0.136578
Cl	3.47496	0.0	0.0
