19

C	-0.463428	-0.000978	-1.468138
C	0.0	0.0	0.0
F	0.061409	-1.095408	-2.099411
H	1.096311	0.0	0.0
C	-1.959344	-0.006774	-1.706741
H	-2.379391	-0.926082	-1.298218
H	-2.44162	0.854953	-1.249749
H	-2.152257	0.01603	-2.781814
N	0.094973	1.212013	-2.19824
O	0.961993	1.044001	-3.042033
O	-0.407221	2.293738	-1.885456
C	-0.480853	-1.274908	0.6843
H	-0.252464	-2.163112	0.09345
H	-1.556769	-1.239596	0.889664
H	0.041915	-1.34697	1.638017
N	-0.410619	1.155635	0.786053
H	-1.356587	1.442585	0.568936
H	0.201376	1.933813	0.580425
Cl	3.448424	0.0	0.0
