19

C	-0.338169	-0.047606	-1.481713
C	0.0	0.0	0.0
F	0.046523	1.14546	-2.044384
H	1.10332	0.0	0.0
C	0.330069	-1.164934	-2.239667
H	1.400817	-1.10242	-2.032616
H	-0.053349	-2.133815	-1.929432
H	0.151146	-1.030893	-3.309142
N	-1.846961	-0.111105	-1.683844
O	-2.440725	0.902862	-2.028191
O	-2.370227	-1.204261	-1.467157
C	-0.466195	-1.20488	0.799173
H	-1.554398	-1.241713	0.869142
H	-0.096819	-2.139558	0.375869
H	-0.048293	-1.123256	1.806708
N	-0.591048	1.216801	0.568228
H	-0.273495	1.273809	1.530401
H	-0.173536	2.010837	0.094381
Cl	3.47648	0.0	0.0
