19

C	-0.504542	0.040205	-1.440901
C	0.0	0.0	0.0
F	-0.212435	-1.144806	-2.058435
H	1.105178	0.0	0.0
C	-1.977199	0.331385	-1.618531
H	-2.552624	-0.465443	-1.145724
H	-2.232347	1.27766	-1.149055
H	-2.21192	0.352044	-2.686125
N	0.241949	1.109914	-2.237325
O	0.189386	2.249207	-1.777122
O	0.765607	0.789381	-3.294018
C	-0.454077	-1.289347	0.672173
H	-0.105059	-2.161612	0.121906
H	-1.541815	-1.325179	0.781369
H	-0.007006	-1.331538	1.668648
N	-0.549385	1.139634	0.755533
H	-0.226033	1.021308	1.710456
H	-0.091353	1.977993	0.413095
Cl	3.473742	0.0	0.0
