19

C	-0.321448	-0.207796	-1.493177
C	0.0	0.0	0.0
F	-0.182478	0.99063	-2.153645
H	1.097708	0.0	0.0
C	0.536532	-1.235324	-2.177905
H	0.287631	-1.281417	-3.240728
H	0.403442	-2.220486	-1.73732
H	1.575219	-0.925378	-2.039689
N	-1.797752	-0.548461	-1.622489
O	-2.598511	0.383019	-1.532573
O	-2.108994	-1.734864	-1.717678
C	-0.508628	-1.143928	0.86267
H	-1.601391	-1.128391	0.940303
H	-0.201412	-2.120961	0.485542
H	-0.093195	-1.011761	1.861639
N	-0.465658	1.270495	0.531549
H	-1.411837	1.45425	0.21462
H	0.126795	2.005138	0.16514
Cl	3.467541	0.0	0.0
