19

C	-0.502037	0.108222	-1.436001
C	0.0	0.0	0.0
F	-1.858435	0.360922	-1.4253
H	1.096316	0.0	0.0
C	0.208044	1.155929	-2.247083
H	1.279584	0.955937	-2.239049
H	0.015308	2.113878	-1.765659
H	-0.175154	1.167503	-3.270752
N	-0.356557	-1.244986	-2.11529
O	0.766593	-1.535305	-2.511988
O	-1.35003	-1.965313	-2.185152
C	-0.505219	-1.249075	0.71268
H	-0.166961	-1.213738	1.75077
H	-1.598612	-1.303898	0.693044
H	-0.101728	-2.161638	0.268905
N	-0.394958	1.252142	0.654874
H	0.318443	1.487898	1.333843
H	-1.277556	1.132598	1.137919
Cl	3.439606	0.0	0.0
