13

C	-0.606656	-0.048309	-1.387105
C	0.0	0.0	0.0
Br	0.21976	-1.408781	-2.502437
H	1.095671	0.0	0.0
H	-1.670121	-0.256704	-1.373317
H	-0.395325	0.911194	0.467948
N	-0.458696	1.297269	-2.049286
O	-1.480745	2.003089	-2.058625
O	0.638376	1.627977	-2.443041
N	-0.489411	-1.19317	0.736272
H	-0.609957	-0.922848	1.701073
H	0.290545	-1.830776	0.725471
F	2.639275	0.0	0.0
