13

C	-0.455494	0.017117	-1.43259
C	0.0	0.0	0.0
Br	-2.357849	0.487515	-1.670091
H	1.092315	0.0	0.0
H	0.107368	0.745418	-2.011922
H	-0.315545	0.958547	0.437849
N	-0.205741	-1.309914	-2.098613
O	-1.07305	-2.174023	-2.089425
O	0.921487	-1.425641	-2.573986
N	-0.472364	-1.174692	0.715083
H	0.27838	-1.470599	1.32389
H	-1.297567	-0.989262	1.270032
F	2.624363	0.0	0.0
