13

C	-0.325754	-0.027248	-1.450136
C	0.0	0.0	0.0
Br	-2.251021	-0.127101	-1.917017
H	1.101946	0.0	0.0
H	0.054467	0.857805	-1.953456
H	-0.353598	0.967871	0.372478
N	0.318524	-1.175864	-2.180345
O	0.781201	-0.930723	-3.291748
O	0.318394	-2.276323	-1.640773
N	-0.619651	-1.070344	0.793006
H	-0.085305	-1.910778	0.601238
H	-0.426593	-0.84118	1.762938
F	2.62789	0.0	0.0
