13

C	-0.447175	0.008872	-1.428308
C	0.0	0.0	0.0
Br	-0.145005	1.717903	-2.305085
H	1.092455	0.0	0.0
H	0.063409	-0.751508	-2.013167
H	-0.404844	0.86645	0.531151
N	-1.920584	-0.288655	-1.578217
O	-2.258668	-1.003197	-2.520598
O	-2.689163	0.198807	-0.753461
N	-0.425563	-1.295594	0.548218
H	0.371785	-1.674239	1.044175
H	-1.193535	-1.185518	1.196468
F	2.650605	0.0	0.0
