13

C	-0.253844	-0.004417	-1.476406
C	0.0	0.0	0.0
Br	-2.161416	-0.186992	-2.026132
H	1.095269	0.0	0.0
H	0.093547	0.912361	-1.945554
H	-0.369478	0.958556	0.381279
N	0.474402	-1.102841	-2.199652
O	0.341476	-2.252052	-1.79143
O	1.152378	-0.764627	-3.16673
N	-0.499004	-1.107474	0.792204
H	-1.399934	-1.42247	0.449045
H	0.152191	-1.873357	0.681917
F	2.598941	0.0	0.0
