16

C	0.0	0.0	0.0
C	-0.581895	0.003573	-1.433105
Br	1.923595	0.0	0.0
H	0.256674	0.280114	-2.081984
H	-0.313918	0.910762	0.500786
N	-0.395806	-1.113157	0.939517
O	-0.740778	-0.76426	2.064447
O	-0.26857	-2.272979	0.560394
N	-1.544427	1.103291	-1.457006
H	-1.87925	1.191482	-2.414059
H	-2.374427	0.774387	-0.893259
C	-1.137757	-1.334396	-1.930255
H	-2.007525	-1.60691	-1.332878
H	-1.472852	-1.176877	-2.961122
H	-0.396247	-2.135959	-1.921017
H	-3.485562	0.0	0.0
