16

C	0.0	0.0	0.0
C	-0.26637	0.047903	-1.542318
Br	1.933019	0.0	0.0
H	0.471574	-0.653667	-1.956849
H	-0.278842	0.888327	0.548925
N	-0.565343	-1.164714	0.666341
O	-0.550511	-2.233239	-0.000901
O	-0.591733	-1.145102	1.918136
N	-0.013796	1.433775	-1.975967
H	-0.171528	1.470374	-2.977728
H	0.96842	1.640427	-1.826252
C	-1.597747	-0.388514	-2.142867
H	-1.425323	-0.5543	-3.219963
H	-1.925372	-1.326341	-1.699464
H	-2.363068	0.375902	-2.019216
H	-1.952449	0.0	0.0
