16

C	0.0	0.0	0.0
C	-0.271874	0.0004	-1.557608
Br	1.932045	0.0	0.0
H	0.426557	-0.746264	-1.946197
H	-0.271202	0.902102	0.531361
N	-0.579228	-1.132583	0.714966
O	-0.578105	-2.224426	0.089823
O	-0.607365	-1.060477	1.964218
N	0.092599	1.288221	-2.161832
H	-0.496721	2.003088	-1.742243
H	1.050631	1.508302	-1.913443
C	-1.637529	-0.381534	-2.122227
H	-2.016334	-1.284559	-1.648744
H	-1.492242	-0.555889	-3.198074
H	-2.366675	0.420215	-1.997212
H	-1.972581	0.0	0.0
