16

C	0.0	0.0	0.0
C	-0.552076	0.019117	-1.463984
Br	1.924739	0.0	0.0
H	0.252747	0.521831	-2.016174
H	-0.304968	0.907376	0.515257
N	-0.429892	-1.104142	0.933046
O	-0.83766	-0.747475	2.034349
O	-0.283336	-2.265445	0.56566
N	-1.755346	0.791749	-1.630585
H	-2.542871	0.421184	-1.020716
H	-1.59667	1.748466	-1.324139
C	-0.747957	-1.362549	-2.07404
H	-1.592602	-1.859238	-1.597717
H	0.138305	-1.992374	-1.980508
H	-0.987918	-1.214181	-3.12845
H	-3.63381	0.0	0.0
