16

C	0.0	0.0	0.0
C	-0.518526	0.458166	-1.356071
Br	1.92602	0.0	0.0
H	-1.59892	0.560053	-1.162332
H	-0.319128	0.730466	0.75976
N	-0.626033	-1.255973	0.444515
O	-1.784559	-1.423239	-0.15169
O	-0.410446	-1.570689	1.641493
N	-0.226303	-0.537732	-2.38909
H	-0.62505	-0.192509	-3.258852
H	-0.773007	-1.353389	-2.124996
C	0.024711	1.814001	-1.772787
H	-0.079794	2.544107	-0.965308
H	1.075759	1.746923	-2.058037
H	-0.545959	2.182456	-2.633435
H	-2.862973	0.0	0.0
