16

C	-0.525442	-0.046381	-1.417085
C	0.0	0.0	0.0
F	-1.882058	-0.2183	-1.428011
H	1.09288	0.0	0.0
H	-0.053088	-0.822697	-2.012231
N	-0.235215	1.261406	-2.110591
O	0.849121	1.336751	-2.676055
O	-1.092527	2.136985	-2.04731
N	-0.372535	-1.326934	0.607748
O	-0.730493	-1.350024	1.782068
O	-0.251381	-2.320432	-0.106437
C	-0.52217	1.152435	0.82737
H	-0.152908	1.053881	1.845826
H	-0.134028	2.086162	0.419174
H	-1.612595	1.18909	0.838393
Br	3.40493	0.0	0.0
