16

C	-0.50054	-0.025859	-1.427977
C	0.0	0.0	0.0
F	-1.855424	-0.200749	-1.469169
H	1.092029	0.0	0.0
H	-0.013641	-0.79419	-2.023068
N	-0.190548	1.292473	-2.08955
O	-1.072589	2.147212	-2.095131
O	0.937673	1.395943	-2.556961
N	-0.389856	-1.331797	0.580304
O	-0.840266	-1.363405	1.723223
O	-0.20027	-2.320373	-0.125568
C	-0.536198	1.145714	0.826873
H	-0.184355	1.042295	1.851232
H	-1.626674	1.179969	0.820726
H	-0.142685	2.082642	0.430634
Br	3.414611	0.0	0.0
