14
Coordinates from ORCA-job run
  C   -0.45190508090567     -0.19086539445492     -0.00401489164633
  C   0.51353238078129      0.54107236639247     -0.59445599983121
  H   0.32623794738473      0.92453889014389     -1.59176905763556
  N   -0.35933505028809     -0.63983146287781      1.32288251695615
  H   0.58681734135308     -0.68571082236302      1.67265672504402
  H   -0.84295003157918     -1.51180817011895      1.48249953789742
  C   -1.76563804879785     -0.49567261668789     -0.65957619203815
  H   -1.92085724890098     -1.57721568997543     -0.74560596565950
  H   -1.81270305202571     -0.06619086269481     -1.66028064409114
  H   -2.59073735242119     -0.09265383965962     -0.06495357074344
  C   1.81546909131955      0.88028439920916      0.07670077732728
  H   2.37629990002544     -0.01738323131364      0.36592567801176
  H   2.46130033617414      1.45760941950125     -0.58599295579088
  H   1.66446886788042      1.47482701489932      0.98498404219955
