14
Coordinates from ORCA-job run
  C   -0.43209587724991     -0.23059471823141     -0.02577082465078
  C   0.50960718815616      0.55406606522213     -0.58615746867035
  H   0.30961326979758      0.97047497205281     -1.56768049207871
  N   -0.23151332350484     -0.90707543126952      1.18756402435023
  H   0.48852298255751     -0.50081244127742      1.76728183249031
  H   -1.08215630530385     -1.04335633066369      1.71423908544516
  C   -1.73366536580770     -0.55432380983662     -0.69628892254434
  H   -2.58279470383944     -0.23392917836248     -0.08175390155637
  H   -1.80971003076957     -0.05773694252518     -1.66363871449527
  H   -1.82742758699510     -1.63386253736349     -0.84685581750819
  C   1.83107088348325      0.84766828242786      0.06789947231932
  H   2.43345453473458      1.51905584024203     -0.54525608407383
  H   1.70854122525475      1.33181202773424      1.04502599971464
  H   2.41855310948658     -0.06338579814926      0.22939181125819
