14
Coordinates from ORCA-job run
  C   -0.45670119412345     -0.17580751793956     -0.02849063490350
  C   0.62851762893529      0.36088331435982     -0.62076892854365
  H   0.61546280679837      0.48022436127127     -1.69890140743108
  N   -0.58927228883992     -0.27348760148384      1.36539761729614
  H   0.28984064998975     -0.25140949779044      1.86163264795773
  H   -1.14772417545430     -1.06174369483179      1.65923126271865
  C   -1.67463848866631     -0.60878962985277     -0.78851465842424
  H   -1.54508028483422     -0.44949115705121     -1.85902233131280
  H   -2.55279947656414     -0.04895257308053     -0.45342951351780
  H   -1.88208616124955     -1.67261923891047     -0.62555031788963
  C   1.83441461755652      0.83139191262263      0.14388279672236
  H   1.58568515083979      1.63719139292438      0.84392305076365
  H   2.60413619904960      1.21094480671583     -0.52921158909027
  H   2.29224501656257      0.02366512304668      0.72882200565444
