14
Coordinates from ORCA-job run
  C   -0.43603841857138     -0.22020505573933     -0.04480634273001
  C   0.45218990032248      0.70863979304016     -0.45088496767112
  H   0.15481247871902      1.38824486191420     -1.24243266413785
  N   -0.11705437582486     -1.21608839971480      0.89139779510843
  H   0.66870351533079     -0.98496549937195      1.48193770804612
  H   -0.90801406581230     -1.51167232482469      1.44507070414329
  C   -1.80767373158690     -0.35587945183603     -0.63540267100374
  H   -1.97874524120825      0.39693752879321     -1.40493687525034
  H   -2.57995510974120     -0.23863940660876      0.13339222545586
  H   -1.93517755811608     -1.34746576039606     -1.07969987608028
  C   1.84139368141569      0.82048296565397      0.11294067842963
  H   2.42783210330731     -0.08852918574697     -0.06333653235618
  H   2.38431031175377      1.65089399483554     -0.34015326106770
  H   1.83441651001190      0.99724594000151      1.19591407911389
