14
Coordinates from ORCA-job run
  C   -0.36054763229094     -0.31262182887514      0.40227503595217
  C   0.82191564875083      0.33248931048821      0.46129111842816
  H   1.31015545170374      0.37944000063867      1.43601682331251
  N   -0.89064141131071     -1.00207714391875      1.51335519433826
  H   -1.88981374707206     -0.87871377891814      1.60621624342721
  H   -0.42760405404302     -0.76078512166344      2.37895468109803
  C   -1.20206693627402     -0.49412577732720     -0.82760598115087
  H   -0.80094886477365      0.02595142267369     -1.69448915568476
  H   -1.29220966048823     -1.55798478110872     -1.06311092811023
  H   -2.21509994795544     -0.11483257007837     -0.65157028928336
  C   1.57742114636329      0.96729359243670     -0.66834502849578
  H   2.57373682943143      0.52486077640200     -0.76932525279203
  H   1.07403366582801      0.85454781261219     -1.62847297312890
  H   1.72266951213075      2.03855808663832     -0.49518948791041
