14
Coordinates from ORCA-job run
  C   -0.45295942692481     -0.18690521401164     -0.02051806079001
  C   0.60020080096675      0.39517115604996     -0.62754619178535
  H   0.50402761676514      0.65883825756758     -1.67543237781250
  N   -0.39783873980279     -0.66815646857858      1.29678934612858
  H   -1.28636470279873     -0.62731691950487      1.77465442589605
  H   0.33060787494557     -0.24776052676090      1.85548020348426
  C   -1.74275773977275     -0.48504492050845     -0.72486147536704
  H   -1.94698808448419     -1.55969689944565     -0.70757018982229
  H   -2.58408572247672      0.01718816158151     -0.23380050014603
  H   -1.70821956222803     -0.15216442330556     -1.76225198255887
  C   1.90710528600505      0.65933950894781      0.06705028987462
  H   2.61275910551046      1.15896617554295     -0.59780577833433
  H   1.78408573642162      1.30567176904484      0.94525190535731
  H   2.38142755787344     -0.26712965661901      0.41056038587560
