14
Coordinates from ORCA-job run
  C   -0.32165895854621     -0.38401855264261      0.37308197858778
  C   0.92948270655940      0.11769111548657      0.34686961353418
  H   1.58737997194908     -0.15504587537194      1.17363403570189
  N   -0.73113671778834     -1.31660137455320      1.34946423915009
  H   -1.67073756487064     -1.14513556694191      1.68104993776603
  H   -0.09041420498081     -1.37049638337580      2.12956911049379
  C   -1.38829307078650     -0.13718432161274     -0.65418875968195
  H   -1.66380683232043     -1.07853601958648     -1.13730973947493
  H   -1.08116225487148      0.57378504712343     -1.41784260884075
  H   -2.29147339088820      0.25804968572708     -0.17565105562681
  C   1.54784952723708      0.98568084399738     -0.70864013310584
  H   1.86988629921612      1.94593176283150     -0.29287078578159
  H   0.86737323001712      1.19594345093370     -1.53371461572555
  H   2.43771126007378      0.50993618798503     -1.13345121699632
