14
Coordinates from ORCA-job run
  C   -0.47159342075633     -0.13213053378467     -0.02456421301932
  C   0.69624261683449      0.15296270939656     -0.63394019893792
  H   0.75090518519096      0.03919991313497     -1.71139392095528
  N   -0.68586018914690      0.08688027948071      1.34516009743908
  H   0.16359994660312      0.13143801914000      1.88927914067473
  H   -1.34178327902999     -0.56192801387565      1.75553116658204
  C   -1.69008657892994     -0.59717019215089     -0.76465471458689
  H   -2.02229885413999     -1.57559638433389     -0.39912446262329
  H   -2.51602573516641      0.10512995505640     -0.61820225392096
  H   -1.48999970196343     -0.68486261077365     -1.83257293214636
  C   1.90616227795767      0.65815586732617      0.10177942286198
  H   2.74717080832245      0.80327861261122     -0.57740887082117
  H   2.23969532401926     -0.04283813912004      0.87732246606174
  H   1.71387160020502      1.61848051789274      0.59378927339162
