14
Coordinates from ORCA-job run
  C   -0.29053340407750     -0.44073773016346      0.33394059021950
  C   0.96901541862205      0.03129698848096      0.24050281420161
  H   1.71027903656751     -0.40712627060029      0.91065293632319
  N   -0.61782169634617     -1.53323523641975      1.16447082842416
  H   0.11076108621245     -1.74734018790484      1.83172520289329
  H   -1.50144004125645     -1.40984746819160      1.63993136253452
  C   -1.46279348446319      0.01781839859667     -0.48406708295213
  H   -1.22083482044477      0.85496710135748     -1.13494819434384
  H   -1.83578890033298     -0.80889049980182     -1.09473017799466
  H   -2.28321889807740      0.33261180569052      0.17072197140578
  C   1.49143502483297      1.07070517843644     -0.70621474072116
  H   0.72508544000460      1.44817543916848     -1.38317116703251
  H   1.90472983497296      1.92767011466567     -0.16450087769616
  H   2.30012540378592      0.66593236668556     -1.32331346526158
