14
Coordinates from ORCA-job run
  C   -0.30286816660666     -0.43459921156272      0.33014422244256
  C   0.97862011466881     -0.03593609277668      0.20061776122810
  H   1.71896875223764     -0.54420597373806      0.82046857412747
  N   -0.66299557134542     -1.53729653717255      1.13328765252370
  H   0.07837872891053     -1.82224937850143      1.75865750182565
  H   -1.51633598550155     -1.37970896328821      1.65198943115138
  C   -1.47720578644961      0.12411602591117     -0.41978830450437
  H   -2.25062862219839      0.45803243349687      0.28112478533894
  H   -1.92219309258919     -0.65455151781413     -1.04520826295903
  H   -1.21303076206591      0.97203171340124     -1.04768309255874
  C   1.52420114785584      1.00602442845329     -0.73032723786740
  H   2.28139968803549      0.57828363714735     -1.39542821625117
  H   2.00991130879711      1.81672458614241     -0.17755893535151
  H   0.75477824625130      1.45233485030146     -1.36029587914556
