15
Coordinates from ORCA-job run
  C   0.92899712499498     -0.49404211558733      0.06207997406862
  C   -0.44581540830634      0.13666082324998      0.24973558921616
  Cl  1.00687832537221     -1.94601206073149      1.18730562269696
  H   -0.54080887643504      0.51249371584023      1.27060170944388
  H   1.01041888485061     -0.91455191048017     -0.93969321798071
  N   1.94880432159530      0.45881838254180      0.26782338497240
  H   1.95648676036031      0.81760489132371      1.21414750000887
  H   2.86367693633813      0.09984539431371      0.03281116065026
  C   -1.61527352429042     -0.74915980976381     -0.13334829947331
  H   -1.48593076366575     -1.12840987928094     -1.14761721221774
  H   -1.69410031749721     -1.58810514436626      0.55638063745543
  H   -2.54456618444869     -0.17758062826324     -0.09099636183722
  N   -0.45931551433970      1.35751624982408     -0.62416368130396
  O   -0.39144226690715      1.16257447412957     -1.83462117237564
  O   -0.53800949762125      2.45034761725015     -0.07144563332401
