15

C	0.0	0.0	0.0
C	-0.38508	0.382533	-1.469203
F	1.357466	0.0	0.0
H	0.590134	0.619715	-1.905119
H	-0.409636	-0.928703	0.379085
N	-0.341473	1.078678	0.993788
O	-0.696018	0.716985	2.110002
O	-0.09867	2.23778	0.655726
N	-1.295281	1.40107	-1.827414
H	-2.188388	1.22506	-1.36082
H	-0.921734	2.287182	-1.518841
N	-0.743468	-0.927779	-2.16585
O	-0.103273	-1.911062	-1.787765
O	-1.541982	-0.91487	-3.086368
Br	-3.501529	0.0	0.0
