15

C	0.0	0.0	0.0
C	-0.533818	-0.323607	-1.387101
F	1.350349	0.0	0.0
H	0.20261	0.034519	-2.113305
H	-0.395655	-0.625735	0.795509
N	-0.393143	1.423781	0.318906
O	0.188988	2.294761	-0.318559
O	-1.228056	1.585374	1.199606
N	-1.787394	0.231188	-1.630743
H	-2.558649	0.01018	-0.983597
H	-2.093295	0.120395	-2.5849
N	-0.439922	-1.872355	-1.563967
O	0.0649	-2.554387	-0.673128
O	-0.872084	-2.299451	-2.629162
Br	-4.63122	0.0	0.0
