15

C	-0.32338	-0.033122	-1.467168
C	0.0	0.0	0.0
Cl	-2.109296	-0.020183	-1.831517
H	1.095273	0.0	0.0
H	0.075559	0.865822	-1.933569
C	0.250444	-1.214347	-2.104009
N	0.669709	-2.165551	-2.649946
C	-0.510956	-1.158509	0.817788
H	-0.164345	-2.086094	0.356594
H	-1.601895	-1.177754	0.895939
H	-0.085397	-1.105219	1.818496
N	-0.413867	1.299737	0.551542
O	-0.734931	1.34997	1.742143
O	-0.355414	2.292022	-0.181914
F	2.490427	0.0	0.0
