15

C	-0.306168	-0.024321	-1.472519
C	0.0	0.0	0.0
Cl	-2.085421	0.013126	-1.860502
H	1.095259	0.0	0.0
H	0.114028	0.870748	-1.927914
C	0.260387	-1.211037	-2.106075
N	0.670958	-2.165521	-2.652958
C	-0.525802	-1.159842	0.805486
H	-0.124872	-1.105719	1.816206
H	-0.165867	-2.08615	0.35215
H	-1.61814	-1.182006	0.858382
N	-0.41709	1.299829	0.548183
O	-0.785679	1.345914	1.725427
O	-0.31737	2.296771	-0.174237
F	2.493758	0.0	0.0
