15

C	-0.552806	0.092581	-1.419868
C	0.0	0.0	0.0
Cl	-0.345881	-1.468681	-2.29516
H	1.090895	0.0	0.0
H	-1.628566	0.288496	-1.418803
C	0.100582	1.13045	-2.217147
N	0.572701	1.933967	-2.930449
C	-0.392442	-1.266125	0.744394
H	-1.464408	-1.492514	0.687204
H	0.178714	-2.096298	0.333474
H	-0.097884	-1.145452	1.784981
N	-0.484671	1.179977	0.741028
O	-1.0742	2.07534	0.115336
O	-0.259006	1.234658	1.949052
F	2.505314	0.0	0.0
