15

C	-0.472051	-0.012921	-1.44106
C	0.0	0.0	0.0
Cl	0.096935	1.435498	-2.328178
H	1.090836	0.0	0.0
H	0.028644	-0.862683	-1.911724
C	-1.917179	-0.154986	-1.648504
N	-3.063616	-0.343634	-1.823833
C	-0.565988	-1.166917	0.784906
H	-0.253747	-2.104743	0.318667
H	-1.658546	-1.139689	0.849566
H	-0.141235	-1.146222	1.791009
N	-0.480724	1.259507	0.655485
O	0.332717	1.932223	1.283743
O	-1.681461	1.542256	0.55325
F	2.555345	0.0	0.0
