15

C	-0.319644	-0.034724	-1.468274
C	0.0	0.0	0.0
Cl	-2.104876	-0.019756	-1.838166
H	1.095271	0.0	0.0
H	0.082303	0.86308	-1.934266
C	0.254276	-1.217735	-2.101908
N	0.675757	-2.169639	-2.644777
C	-0.51408	-1.157204	0.817371
H	-0.093546	-1.101995	1.82009
H	-0.164726	-2.08538	0.359576
H	-1.605421	-1.176902	0.890366
N	-0.41434	1.30136	0.547243
O	-0.746141	1.353671	1.734439
O	-0.346507	2.292601	-0.186211
F	2.49061	0.0	0.0
