15

C	-0.316809	-0.023994	-1.469372
C	0.0	0.0	0.0
Cl	-2.100486	-0.014514	-1.842286
H	1.095224	0.0	0.0
H	0.082242	0.879781	-1.926255
C	0.264208	-1.198067	-2.112031
N	0.69126	-2.143411	-2.66243
C	-0.513301	-1.164523	0.807812
H	-0.093301	-1.117247	1.811252
H	-1.604621	-1.185504	0.880273
H	-0.16297	-2.08869	0.342486
N	-0.417496	1.295421	0.556756
O	-0.754534	1.337496	1.743431
O	-0.349405	2.292558	-0.168287
F	2.49135	0.0	0.0
