15

C	-0.418245	-0.107799	-1.451566
C	0.0	0.0	0.0
Cl	0.110003	1.299838	-2.425759
H	1.090852	0.0	0.0
H	0.162169	-0.949521	-1.840681
C	-1.835927	-0.379587	-1.703344
N	-2.94745	-0.684629	-1.933389
C	-0.438975	-1.216693	0.799725
H	-1.529203	-1.327163	0.853282
H	-0.006636	-2.113736	0.348799
H	-0.026736	-1.126423	1.805729
N	-0.567079	1.197601	0.653162
O	-0.047096	1.55502	1.707819
O	-1.552203	1.746635	0.144563
F	2.540802	0.0	0.0
