15

C	-0.49012	0.071465	-1.448506
C	0.0	0.0	0.0
Cl	-0.516799	-1.558058	-2.218243
H	1.090932	0.0	0.0
H	-1.518357	0.435521	-1.506907
C	0.343195	0.935299	-2.286787
N	0.946178	1.60888	-3.036021
C	-0.460786	-1.204425	0.791651
H	-1.54427	-1.368578	0.745301
H	-0.162901	-1.058191	1.827838
H	0.054279	-2.087139	0.41738
N	-0.428786	1.246445	0.659232
O	-0.383718	1.308661	1.888358
O	-0.767663	2.199932	-0.056835
F	2.500604	0.0	0.0
