17

C	0.0	0.0	0.0
C	-0.545959	0.132753	-1.433149
Cl	1.802001	0.0	0.0
H	-1.629402	0.241933	-1.302775
N	-0.470483	1.088612	0.798194
H	-1.492409	1.105401	0.704897
H	-0.243906	0.918867	1.771991
C	-0.350134	-1.343103	0.515943
N	-0.568568	-2.409977	0.959895
C	-0.207557	-1.017792	-2.348784
H	-0.590853	-0.804956	-3.349985
H	-0.701045	-1.919923	-1.978664
H	0.869562	-1.18008	-2.415019
N	-0.069237	1.428187	-2.019334
O	0.961971	1.409702	-2.695777
O	-0.753607	2.425966	-1.804544
Br	-3.681582	0.0	0.0
