17

C	-0.523757	-0.066827	-1.441273
C	0.0	0.0	0.0
Cl	-0.333967	1.621974	-2.073856
H	1.089045	0.0	0.0
H	-0.396998	0.868971	0.519414
C	0.325054	-0.973905	-2.314466
H	0.012308	-0.890955	-3.358645
H	0.210454	-2.006634	-1.981694
H	1.377325	-0.70101	-2.215358
C	-2.004717	-0.402803	-1.505115
H	-2.588849	0.276034	-0.879151
H	-2.362905	-0.324102	-2.533797
H	-2.167121	-1.427276	-1.159479
N	-0.483785	-1.173044	0.77276
O	-1.240421	-0.955478	1.724451
O	-0.137506	-2.295355	0.407376
Cl	3.384306	0.0	0.0
