17

C	-0.528039	-0.068547	-1.439447
C	0.0	0.0	0.0
Cl	-0.376532	1.630211	-2.062271
H	1.089056	0.0	0.0
H	-0.396784	0.867274	0.523176
C	0.336657	-0.952529	-2.32223
H	0.009868	-0.875896	-3.362987
H	0.252754	-1.989631	-1.988573
H	1.384113	-0.652555	-2.232908
C	-2.004006	-0.433928	-1.499505
H	-2.597669	0.230536	-0.8679
H	-2.369147	-0.354586	-2.525861
H	-2.14431	-1.464317	-1.159474
N	-0.473043	-1.175135	0.779756
O	-1.192468	-0.959251	1.760372
O	-0.146012	-2.296851	0.394726
Cl	3.38617	0.0	0.0
