18

C	-0.531818	0.000521	-1.450218
C	0.0	0.0	0.0
Br	0.253894	-1.596301	-2.2996
H	1.091282	0.0	0.0
C	-2.040721	-0.156055	-1.552136
H	-2.372434	-1.07657	-1.06884
H	-2.538996	0.68874	-1.070163
H	-2.333969	-0.192635	-2.60382
C	-0.013075	1.223982	-2.189633
H	1.064616	1.323382	-2.044022
H	-0.238317	1.136671	-3.254398
H	-0.507096	2.12206	-1.80592
C	-0.515329	-1.116911	0.78287
N	-0.901504	-2.031655	1.411746
N	-0.445438	1.271064	0.683921
O	0.324399	2.227996	0.639364
O	-1.567184	1.286234	1.196695
Cl	3.159049	0.0	0.0
