18

C	-0.431146	0.000188	-1.464231
C	0.0	0.0	0.0
Br	-2.445514	0.010978	-1.530332
H	1.094839	0.0	0.0
C	0.063099	1.22558	-2.213573
H	-0.219943	1.127874	-3.264417
H	-0.36414	2.147422	-1.821335
H	1.1501	1.263208	-2.103983
C	0.0423	-1.291026	-2.113455
H	-0.367179	-2.170754	-1.613552
H	-0.277708	-1.302201	-3.15792
H	1.133723	-1.311434	-2.045813
C	-0.500357	-1.137814	0.749545
N	-0.83484	-2.100002	1.330504
N	-0.408493	1.259526	0.690605
O	-1.390156	1.239282	1.445779
O	0.319368	2.234007	0.533544
Cl	3.055613	0.0	0.0
