18

C	-0.521049	0.00065	-1.444158
C	0.0	0.0	0.0
Br	0.329539	-1.562004	-2.307401
H	1.091345	0.0	0.0
C	-2.0229	-0.203371	-1.561593
H	-2.320225	-0.248375	-2.612184
H	-2.537861	0.632147	-1.080042
H	-2.332595	-1.126362	-1.069085
C	-0.060889	1.247848	-2.185856
H	-0.57848	2.126662	-1.788698
H	-0.303705	1.159898	-3.247505
H	1.014308	1.39546	-2.074954
C	-0.520312	-1.096487	0.7896
N	-0.921518	-2.000751	1.429197
N	-0.41313	1.303134	0.643651
O	-1.553858	1.393765	1.106183
O	0.445255	2.179419	0.694425
Cl	2.687028	0.0	0.0
