18

C	-0.351087	0.010805	-1.497006
C	0.0	0.0	0.0
Br	-2.318787	0.068092	-1.727216
H	1.094857	0.0	0.0
C	0.260394	1.203506	-2.215009
H	-0.173552	2.146704	-1.890716
H	1.332563	1.216161	-1.997743
H	0.099149	1.090151	-3.289383
C	0.167463	-1.288687	-2.098996
H	-0.309498	-2.160968	-1.650412
H	1.246768	-1.334847	-1.917427
H	-0.023638	-1.298946	-3.174129
C	-0.507018	-1.178456	0.686689
N	-0.863678	-2.158699	1.227449
N	-0.470635	1.229328	0.718149
O	0.129171	2.271032	0.465207
O	-1.422202	1.123006	1.489845
Cl	3.217345	0.0	0.0
