18

C	-0.523814	0.003516	-1.452411
C	0.0	0.0	0.0
Br	0.259102	-1.600899	-2.276262
H	1.091299	0.0	0.0
C	-2.035657	-0.129644	-1.553248
H	-2.515208	0.725241	-1.068661
H	-2.381679	-1.041442	-1.063259
H	-2.342466	-0.161411	-2.601369
C	0.014982	1.220179	-2.189545
H	1.0937	1.303625	-2.03369
H	-0.467652	2.125434	-1.807775
H	-0.198542	1.142429	-3.257589
C	-0.517883	-1.125943	0.77463
N	-0.907227	-2.047358	1.393901
N	-0.476426	1.285135	0.639826
O	0.282249	2.253852	0.588376
O	-1.62431	1.30942	1.068438
Cl	3.218789	0.0	0.0
