18

C	-0.519118	-0.004238	-1.444539
C	0.0	0.0	0.0
Br	0.208538	1.595075	-2.33791
H	1.092121	0.0	0.0
C	0.053013	-1.225917	-2.156503
H	-0.363001	-2.13461	-1.710483
H	-0.218253	-1.202534	-3.214877
H	1.140044	-1.254404	-2.068566
C	-2.032965	0.050987	-1.581222
H	-2.446166	0.95937	-1.146545
H	-2.314171	0.000269	-2.635971
H	-2.46557	-0.807454	-1.057462
C	-0.510617	-1.14888	0.719869
N	-0.891076	-2.109005	1.28832
N	-0.415206	1.24304	0.750369
O	-1.59475	1.343662	1.09584
O	0.472054	2.050518	1.000576
Cl	2.688012	0.0	0.0
