18

C	-0.51293	-0.007331	-1.457121
C	0.0	0.0	0.0
Br	0.149528	1.624472	-2.33347
H	1.092155	0.0	0.0
C	0.129473	-1.202657	-2.15085
H	-0.267835	-2.12846	-1.72208
H	-0.108811	-1.184027	-3.216647
H	1.212949	-1.18151	-2.014602
C	-2.028429	-0.012243	-1.589022
H	-2.442368	-0.883444	-1.072467
H	-2.295309	-0.068086	-2.647004
H	-2.475288	0.88496	-1.162811
C	-0.504033	-1.177836	0.699828
N	-0.896539	-2.149538	1.231482
N	-0.479604	1.213722	0.754409
O	-1.658005	1.214716	1.121674
O	0.324064	2.119898	0.931811
Cl	3.231394	0.0	0.0
