15

C	0.0	0.0	0.0
C	-0.552276	-0.012298	-1.424746
Cl	1.783714	0.0	0.0
H	-1.652812	-0.085943	-1.219007
H	-0.266735	-0.960692	0.457052
N	-0.549374	1.138169	0.679325
H	-0.320965	1.060689	1.66585
H	-1.578017	0.965739	0.594674
C	-0.136075	-1.206598	-2.148733
N	0.186378	-2.155657	-2.763432
C	-0.244055	1.255374	-2.216426
H	-0.558496	2.118849	-1.630554
H	-0.790075	1.246363	-3.163176
H	0.82511	1.342341	-2.428397
H	-3.023113	0.0	0.0
