15

C	0.0	0.0	0.0
C	-0.553951	-0.075712	-1.421831
Cl	1.783768	0.0	0.0
H	-1.65158	-0.171959	-1.210803
H	-0.264319	-0.941543	0.497408
N	-0.553247	1.163506	0.630652
H	-1.581611	0.985189	0.544622
H	-0.335929	1.121742	1.622521
C	-0.098566	-1.276686	-2.109541
N	0.247831	-2.236652	-2.69383
C	-0.293923	1.176661	-2.253356
H	-0.787484	1.089783	-3.224431
H	0.775761	1.332419	-2.414996
H	-0.698372	2.037904	-1.723459
H	-3.017112	0.0	0.0
