15

C	0.0	0.0	0.0
C	-0.307856	0.112132	-1.543423
Cl	1.795418	0.0	0.0
H	0.511692	-0.376107	-2.079917
H	-0.294145	-1.003381	0.30992
N	-0.619954	0.932421	0.867598
H	-0.525127	1.873524	0.500263
H	-1.627273	0.696591	0.859322
C	-0.246169	1.523878	-1.923057
N	-0.208261	2.656094	-2.236372
C	-1.618761	-0.543224	-1.976249
H	-2.459064	-0.232183	-1.329861
H	-1.829114	-0.313232	-3.025334
H	-1.518395	-1.628991	-1.872514
H	-3.541599	0.0	0.0
