10
Coordinates from ORCA-job run
  C   -0.39245501740631      0.21091099454905      0.00000780271564
  C   0.90832164012708      0.61951814914991     -0.05070701405020
  H   1.14883502313762      1.66573908769307     -0.18684828234496
  C   -1.42893459532035      1.19434467429450     -0.15716218813098
  N   -2.28594720067463      1.98715348214827     -0.30119686831278
  N   -0.81998100455823     -1.06322081273682      0.27201216667764
  H   -1.73202100420746     -1.31982036273086     -0.06891951873692
  H   -0.12257340378682     -1.79097747825207      0.21030991786672
  C   1.95120413828507     -0.33253941964633      0.08593723635091
  N   2.77255142440403     -1.17010831446872      0.19756674796494
