10
Coordinates from ORCA-job run
  C   -0.39247710164518      0.20768546586991     -0.03601771308333
  C   0.84704356264049      0.58289384543824      0.39310686980088
  H   1.00500310664794      1.56446382986471      0.82042236160766
  C   -1.48249573249299      1.13196865992731      0.11753087116873
  N   -2.38608678948043      1.87299679492281      0.25211725803184
  N   -0.69282561498628     -0.96125651161250     -0.68676132967210
  H   0.00791774771623     -1.68730904654474     -0.64659518044180
  H   -1.64390258396548     -1.28597130870228     -0.62374622425389
  C   1.93717966090506     -0.31619445080466      0.26756763579270
  N   2.80064374466064     -1.10827727835882      0.14237545104931
