10
Coordinates from ORCA-job run
  C   -0.39788739218961      0.19111191627928     -0.06513237303281
  C   0.88970251916049      0.64247647148764     -0.07049416004716
  H   1.11152538916017      1.66386417959977     -0.35065185452081
  C   -1.44376306993550      1.09125389205325     -0.46807221657287
  N   -2.30523868068125      1.81338238052923     -0.81442510786574
  N   -0.81049294693390     -1.04221276831436      0.37027452252718
  H   -0.08853123560438     -1.73934034097273      0.48356134759306
  H   -1.67865279882899     -1.38954286071946     -0.00384544035737
  C   1.94382577979744     -0.23008944648306      0.30357653072157
  N   2.77851243605555     -1.00090342345956      0.61620875155497
