10
Coordinates from ORCA-job run
  C   -0.38610705887515      0.19946410022027     -0.09903132779914
  C   0.92626475532238      0.52480514691102     -0.28246912153948
  H   1.20081458110111      1.48767143586429     -0.69300778856515
  C   -1.38993185813731      1.17118517813686     -0.43676095094621
  N   -2.22109087932467      1.96308864446735     -0.69339599971184
  N   -0.85599522942410     -1.02148645884054      0.31220702336909
  H   -1.76213013935367     -1.03683705052290      0.75116805444727
  H   -0.17571534227374     -1.64699101902951      0.71924049533217
  C   1.93614142816329     -0.41176475403743      0.05781885646773
  N   2.72774974280186     -1.22913522316941      0.36423075894557
