10
Coordinates from ORCA-job run
  C   -0.38475486571657      0.21183117043935     -0.07719023657675
  C   0.90819456686358      0.61612773445357      0.08534051900033
  H   1.17893365341521      1.65553712359602     -0.04612549811487
  C   -1.36908486494836      1.18808162936942     -0.45719062568251
  N   -2.18198288437278      1.97253251187467     -0.78510490156293
  N   -0.86391985840733     -1.04980970239067      0.16616757506272
  H   -1.70251448544359     -1.32039573229399     -0.32105046312215
  H   -0.17207903232173     -1.77953862401600      0.25988252662058
  C   1.90207146151715     -0.33096367985333      0.44268272810389
  N   2.68513630941443     -1.16240243117905      0.73258837627170
