10
Coordinates from ORCA-job run
  C   -0.35277606686356     -0.11737919675820     -0.01259017654661
  C   0.95316848847897     -0.28951223963231      0.33301038283182
  H   1.29626691599801     -1.25595451217727      0.69151924360747
  C   -0.80869093010482      1.16097059082135     -0.48760518804118
  N   -1.20912439872977      2.18964866008290     -0.89470047321437
  N   -1.33820771509100     -1.06827861669159      0.13360593703614
  H   -2.13243801196934     -0.98189040170768     -0.48033139110559
  H   -1.02083578191005     -2.01678271307836      0.26106066010486
  C   1.90254902873040      0.76205171049798      0.25758065492929
  N   2.71008847146116      1.61712671864320      0.19845035039816
