10
Coordinates from ORCA-job run
  C   -0.39367509219548      0.20508425895768     -0.03788245857002
  C   0.88099553640445      0.63359496824307      0.19284041629100
  H   1.07889330578539      1.67533888150591      0.40816574139721
  C   -1.46617597131129      1.15918527266860      0.03912969315667
  N   -2.35655593570084      1.92423936231647      0.11527645586223
  N   -0.75242078283550     -1.06150430291791     -0.42192689348635
  H   -1.69304675695180     -1.35260253795976     -0.21105888792147
  H   -0.04977652042618     -1.77779611004639     -0.30726481655297
  C   1.95372536436051     -0.29321683305478      0.13780687183690
  N   2.79803685287073     -1.11332295971288      0.08391387798682
