10
Coordinates from ORCA-job run
  C   -0.33813793849425     -0.15721061084259     -0.00143228818259
  C   0.99214540974225     -0.17851735405763     -0.29186987208398
  H   1.39325287932047     -0.95459497764606     -0.93772830955305
  C   -0.87194619030065      0.87031426675513      0.85108588688869
  N   -1.33985846824528      1.70763301787879      1.53239930374057
  N   -1.24568697653617     -1.11440781387432     -0.39792917359765
  H   -0.95207729830088     -1.71338831401414     -1.15405488624328
  H   -2.20552599544791     -0.81535801848881     -0.46283629047972
  C   1.89787911284706      0.78271316959222      0.22636816958197
  N   2.66895546541537      1.57281663469741      0.63599745992905
