10
Coordinates from ORCA-job run
  C   -0.34650791822437     -0.11872016288848     -0.06459303634895
  C   0.99065627180978     -0.34095622325903      0.06630190289157
  H   1.40984327794584     -1.30266899823162     -0.21522856791397
  C   -0.90545650135524      1.15216869830662      0.30941700349319
  N   -1.39122105755716      2.18591316296290      0.59171641316545
  N   -1.26632962942964     -1.06421515919151     -0.46045475461997
  H   -0.89101586372825     -1.88025955170766     -0.91851412057026
  H   -2.11305379197460     -0.71299721843606     -0.87824897124071
  C   1.87740171313358      0.64152617741218      0.57722400688238
  N   2.63568349938005      1.44120927503266      0.99238012426128
