10
Coordinates from ORCA-job run
  C   -0.34256545280592     -0.13554764182149     -0.04646786394006
  C   1.00627740055298     -0.30011611871949      0.04464876962583
  H   1.45419226839975     -1.25636761291109     -0.21060219827294
  C   -0.93777068993662      1.13016602415061      0.28702553778117
  N   -1.45387068822393      2.15835226591836      0.53369217315405
  N   -1.23799912987764     -1.13284873268626     -0.36285516835428
  H   -2.11186566221750     -0.83411341577358     -0.76533456849965
  H   -0.84758373482844     -1.95578371416044     -0.79515773644684
  C   1.86880092550980      0.73892265455777      0.47976050568878
  N   2.60438476342752      1.58733629144560      0.83429054926391
