10
Coordinates from ORCA-job run
  C   -0.35497408391315     -0.11059132002209      0.00365802930926
  C   0.95563398311606     -0.28144242015333      0.33201287286775
  H   1.29003475121151     -1.22551946724689      0.75279811676184
  C   -0.80109715289224      1.13749188151654     -0.55352315100280
  N   -1.19505792336242      2.14064152906847     -1.02554303098493
  N   -1.35235051193906     -1.02974800189611      0.24301964182369
  H   -1.04752219348454     -1.97215318412019      0.43169605660182
  H   -2.16030281326371     -0.97368614012690     -0.35608618815291
  C   1.92202708819037      0.74212756379853      0.15565507775654
  N   2.74460885633718      1.57287955918197      0.01431257501975
