10
Coordinates from ORCA-job run
  C   -0.37506279626120      0.23485666854695     -0.05399904799381
  C   0.91739861961255      0.56600467395731      0.23160056748136
  H   1.18414793690477      1.58889426332643      0.46317751124424
  C   -1.37652434023421      1.26517405741290     -0.01285144849567
  N   -2.21116934007628      2.09269053899568      0.03469890187799
  N   -0.81126257125046     -0.99969617772930     -0.46244837933646
  H   -0.16832005927167     -1.76654683268072     -0.32576746605869
  H   -1.77753407648787     -1.22143798510581     -0.28611596689668
  C   1.91866425663953     -0.43886687117652      0.21560428440423
  N   2.69966237042484     -1.32107233554691      0.19610104377349
