10
Coordinates from ORCA-job run
  C   -0.34175355622511     -0.14203736302088      0.04039533574462
  C   1.00858138223533     -0.28312700842405     -0.06561977121612
  H   1.44116030923731     -1.27083097834721     -0.19750254451022
  C   -0.91780537661575      1.16409843330927      0.21225588355809
  N   -1.42130518785866      2.22017773309475      0.33612722683067
  N   -1.24135228393642     -1.18464507013016      0.08330318763147
  H   -2.17793580258484     -0.97324563887101     -0.22206295245434
  H   -0.89780797612486     -2.07548226017084     -0.24114151660573
  C   1.89565076317535      0.82200010465039      0.00240940231052
  N   2.65356772869765      1.72209204790974      0.04983574871105
