10
Coordinates from ORCA-job run
  C   -0.36679431475019      0.21407888444995     -0.13605201891398
  C   0.94190448864615      0.57024171278053      0.01310987243739
  H   1.25309859904856      1.59467525531051     -0.14397444066871
  C   -1.32255170644638      1.23158827731718     -0.47845978528861
  N   -2.11713178492429      2.05815930906037     -0.74147756433224
  N   -0.85963826908031     -1.06381248370044     -0.06649891185203
  H   -0.24821702428446     -1.75559793214095      0.34302830747918
  H   -1.83257952136794     -1.16369709951354      0.17310459842554
  C   1.90145533903280     -0.41284829156584      0.36769587931559
  N   2.64845419412607     -1.27278763199776      0.66952406339788
