10
Coordinates from ORCA-job run
  C   -0.34765072536209     -0.12194980637566     -0.05541589490255
  C   0.98773350440137     -0.33996209480925      0.09937692971734
  H   1.40212922601901     -1.32576064505410     -0.09228556241389
  C   -0.89757118322644      1.18237727648910      0.19732453693416
  N   -1.37478716550573      2.24162154753605      0.38264087654111
  N   -1.27342196248403     -1.09348307851490     -0.36446420948301
  H   -2.11651717732114     -0.77587642240970     -0.81509917825699
  H   -0.90337465199228     -1.95025806022491     -0.74614643837645
  C   1.87908886472954      0.67878057946798      0.52484282091950
  N   2.64337127074179      1.50551070389538      0.87022611932077
