10
Coordinates from ORCA-job run
  C   -0.34147689458744     -0.14565283826969     -0.02566301155216
  C   1.01478206228911     -0.26598261530298     -0.04780973478342
  H   1.47103108481819     -1.19354314596121     -0.38159192125333
  C   -0.94781508912253      1.08179770754538      0.41419854040915
  N   -1.47377789957882      2.07822223419513      0.75281105899383
  N   -1.22691105907698     -1.15905577536841     -0.31905566324487
  H   -2.13874729439989     -0.87200360643293     -0.63725091102760
  H   -0.84621827053141     -1.94468396789534     -0.82337683792410
  C   1.87640277383495      0.78222523398300      0.36613950010141
  N   2.61373058635483      1.63767677350703      0.69959898028110
