10
Coordinates from ORCA-job run
  C   -0.34547400524638     -0.13497249017376      0.03218855623723
  C   1.00397324958224     -0.25420818417082      0.17082875660030
  H   1.44077169129264     -1.21867608473193      0.41396417177837
  C   -0.92562897813737      1.14027270045503     -0.29114670341823
  N   -1.42883858954361      2.16600558599470     -0.57198854688920
  N   -1.25307905420208     -1.14441933820527      0.26453061514906
  H   -0.87611713839660     -2.07940906168302      0.28543603647844
  H   -2.13366985108866     -1.06973133776830     -0.21922180821301
  C   1.88310565993573      0.84911724997697      0.02015857889548
  N   2.63595701580410      1.74602096030639     -0.10474965661844
