10
Coordinates from ORCA-job run
  C   -0.38807801844372      0.19433934836908      0.10084411138557
  C   0.91898384293958      0.56826894180643      0.21557733538886
  H   1.17747560328085      1.56310238629300      0.55394289568532
  C   -1.40988839838051      1.15704591474848      0.40987412899708
  N   -2.25902834660297      1.93768229655921      0.64031973932600
  N   -0.83457385547826     -1.06380835855449     -0.21278698410648
  H   -1.75250100099544     -1.13213486992573     -0.62112320644072
  H   -0.14932280696656     -1.69618349274627     -0.60080159034704
  C   1.94559585411629     -0.35836396382904     -0.10177582042497
  N   2.75233712653073     -1.16894820272068     -0.38607060946362
