10
Coordinates from ORCA-job run
  C   -0.37556240669416      0.21300309102813     -0.10968100988324
  C   0.94888218061086      0.53802744499060     -0.15407333141117
  H   1.26078780408478      1.53055907793694     -0.45170509907110
  C   -1.34435115041485      1.22227031113052     -0.43972713721102
  N   -2.14923600959525      2.04163219916752     -0.69407604861218
  N   -0.88327527616404     -1.03475482404562      0.14736082038927
  H   -0.24214090889659     -1.70401473446601      0.54833833557148
  H   -1.82291434857995     -1.07946675007448      0.50653683407861
  C   1.92362071496761     -0.43795000018508      0.17801866261265
  N   2.68418940068161     -1.28930581548252      0.47000797353669
