10
Coordinates from ORCA-job run
  C   -0.33046985784852     -0.17100482101076      0.00972298987046
  C   0.98716866978851     -0.13068989820768     -0.33223399329599
  H   1.39820696723382     -0.88885523633999     -0.99322620725652
  C   -0.87814785927614      0.83002805364594      0.88442636589630
  N   -1.35956868522675      1.64411839100803      1.58420636015808
  N   -1.20698864784216     -1.17021137555197     -0.35189888935973
  H   -0.91437854797575     -1.75551506920483     -1.11910072928143
  H   -2.18132568802836     -0.91535748655174     -0.38131436539399
  C   1.86848141119717      0.86812056803965      0.15575733302762
  N   2.61902223797818      1.68936687417335      0.54166113563519
