10
Coordinates from ORCA-job run
  C   -0.37473129080505      0.20013224314163     -0.13493953826698
  C   0.94488401975164      0.54712847119029     -0.14382740701341
  H   1.25116316277569      1.53184708880230     -0.47172174754382
  C   -1.34645453839082      1.17752280617958     -0.54303627801133
  N   -2.15318293307650      1.97288250646157     -0.85964418922751
  N   -0.87123939679201     -1.04395556912968      0.15769967711909
  H   -0.23463781760074     -1.68372465306154      0.61084173751132
  H   -1.82300090056080     -1.09030767697574      0.48314077864742
  C   1.92190468806377     -0.39484206010532      0.26979785333431
  N   2.68429500663481     -1.21768315650309      0.63068911345092
