10
Coordinates from ORCA-job run
  C   -0.38459848908221      0.22495380706712     -0.01458710063856
  C   0.87622439251203      0.52512256006922      0.41193726669274
  H   1.11786195121591      1.52449078284854      0.74941929033833
  C   -1.37212402429441      1.26934007053160     -0.03393699388344
  N   -2.18610234698922      2.11777454929301     -0.07089255444769
  N   -0.83400970204574     -1.02319004250083     -0.36182548109292
  H   -0.12441548787973     -1.72334252427108     -0.52359667168295
  H   -1.62205734623997     -1.06615856337941     -0.98723268313171
  C   1.87236713148930     -0.48496183762034      0.42544210736607
  N   2.65685392131404     -1.36402880203784      0.40627282048014
