10
Coordinates from ORCA-job run
  C   -0.37131088891554      0.23962971706373     -0.05630445651484
  C   0.91781852628921      0.54827404121351      0.26713617932513
  H   1.19105913013495      1.56305206843057      0.52509406106525
  C   -1.35966580987116      1.28270285169429     -0.02004506010683
  N   -2.18276059324739      2.12204374848382      0.02069792989686
  N   -0.81301790962708     -0.98053484662109     -0.49938423244380
  H   -1.78693082287694     -1.19237291101118     -0.35582838620459
  H   -0.18376534419815     -1.75886534629104     -0.36457733598562
  C   1.90774036084381     -0.46794603102752      0.25276753051565
  N   2.68083335146827     -1.35698329193509      0.22944377045279
