16

C	-0.619625	-0.001626	-1.370924
C	0.0	0.0	0.0
Br	-0.05308	1.545342	-2.415639
H	1.089354	0.0	0.0
H	-1.708314	0.019171	-1.365176
N	-0.267691	-1.211086	-2.207604
O	0.78645	-1.784095	-1.980463
O	-1.08055	-1.496043	-3.085202
N	-0.484302	-1.163628	0.718503
O	-0.137617	-1.289768	1.901406
O	-1.172282	-2.009389	0.107152
C	-0.312154	1.254816	0.80001
H	0.062708	1.097485	1.810306
H	0.23279	2.09622	0.370989
H	-1.384036	1.483603	0.834405
H	2.506204	0.0	0.0
