16

C	-0.368247	0.0747	-1.456021
C	0.0	0.0	0.0
Br	0.005526	-1.442697	-2.594261
H	1.091146	0.0	0.0
H	0.1876	0.906787	-1.886137
N	-1.823172	0.428954	-1.621493
O	-2.659489	-0.388556	-1.258626
O	-2.06521	1.553637	-2.062929
N	-0.479309	-1.194843	0.701834
O	-1.18792	-1.045208	1.707713
O	-0.070594	-2.287696	0.30356
C	-0.426279	1.26986	0.710106
H	-1.509432	1.375621	0.797526
H	0.007399	1.265991	1.710813
H	-0.013349	2.127679	0.172011
H	2.567204	0.0	0.0
