16

C	-0.581998	0.035233	-1.387769
C	0.0	0.0	0.0
Br	0.043344	1.596443	-2.374893
H	1.089323	0.0	0.0
H	-1.670222	0.066178	-1.426793
N	-0.206438	-1.171294	-2.223291
O	-0.922817	-1.377054	-3.200442
O	0.771338	-1.823886	-1.89094
N	-0.469823	-1.214178	0.661469
O	-0.027905	-1.439803	1.792929
O	-1.254195	-1.972164	0.057899
C	-0.394659	1.198976	0.850208
H	-1.485786	1.324568	0.904274
H	0.00504	1.040548	1.851635
H	0.059911	2.105915	0.445477
H	2.554961	0.0	0.0
