16

C	-0.610232	0.053457	-1.376824
C	0.0	0.0	0.0
Br	-0.088453	1.672892	-2.332048
H	1.090955	0.0	0.0
H	-1.69949	0.02777	-1.385111
N	-0.196578	-1.099457	-2.265812
O	-0.995865	-1.396923	-3.152492
O	0.892583	-1.61566	-2.067624
N	-0.464189	-1.213615	0.648369
O	-1.132928	-2.036513	-0.015145
O	-0.113506	-1.40626	1.822832
C	-0.346691	1.203165	0.864845
H	-1.426333	1.407136	0.884671
H	0.003853	0.992134	1.874274
H	0.19065	2.081731	0.499329
H	2.498351	0.0	0.0
