15
Coordinates from ORCA-job run
  C   -0.63343141489043      0.09299456459319      0.21437502603383
  C   0.71254267712821      0.00652203660191      0.92492628172316
  Br  -2.02478705455249      0.42293887916976      1.54136169803605
  H   0.82112121282208      0.86479034954248      1.59246858964893
  H   0.68216353402190     -0.89559602055953      1.54121981774245
  N   -0.62304496796381      1.33049355296530     -0.67984734469522
  O   -1.37482809144514      1.33441637330736     -1.64660912174990
  O   0.12492171381100      2.24834237555504     -0.35227773726642
  C   -0.97207072015490     -1.12460437262778     -0.60962078591038
  H   -0.18867287034134     -1.26346947321249     -1.35562712892037
  H   -1.00678921501831     -1.99680722000156      0.04560227288803
  H   -1.93444596504190     -1.00899220141212     -1.10266517399110
  N   1.76183839641833     -0.10351978991119     -0.07882736296781
  H   2.50242392888675     -0.71423599643548      0.23482287479044
  H   2.15405883632005      0.80772694242509     -0.27230190536169
