15
Coordinates from ORCA-job run
  C   -0.51443075031709      0.03617796579025      0.17362371622152
  C   0.93131404692185     -0.39707716467088      0.39209029616065
  Br  -1.30297010877480      0.56527992788047      1.86144419836762
  H   1.28494739585125     -0.83688193964468     -0.54784909873803
  H   0.90237851777285     -1.19350683811944      1.13962077819493
  N   -0.53073703714445      1.23362083372644     -0.77393263000484
  O   0.40805275634234      1.28889701399748     -1.56789846341645
  O   -1.49630083106759      1.98168780982586     -0.75859312475331
  C   -1.36760304634609     -1.03241405540845     -0.48425377825941
  H   -1.37617834148527     -1.92917474720613      0.13708754648800
  H   -2.39204587861298     -0.68064387639126     -0.60896330053716
  H   -0.94728639418631     -1.27846224807927     -1.46378196347575
  N   1.74730497476167      0.70386831648855      0.86515051825857
  H   2.22609494630664      1.14673595793468      0.09441245916960
  H   2.42745974997800      0.39189304387637      1.54184284632406
