15
Coordinates from ORCA-job run
  C   -0.46139232544478      0.26143989477453      0.07553920303313
  C   1.06054960927862      0.24942312878580      0.17996519322341
  Br  -1.21588342686489      0.58237735287439      1.85160714655027
  H   1.44609858028155      0.17097564149223     -0.84137432183953
  H   1.39688901676849      1.20863895112569      0.58367649349895
  N   -0.90720111007012      1.44961929953010     -0.77083298484720
  O   -0.06649692853819      2.30795684157540     -1.02864331744535
  O   -2.07578075875094      1.46199458726596     -1.13789087251565
  C   -1.04248698068126     -1.00098961334679     -0.51303101333676
  H   -2.12925623916949     -0.95896959778502     -0.52934393788727
  H   -0.69812989865485     -1.84836809724463      0.07596952640461
  H   -0.67619734006393     -1.11219112960461     -1.53874628224822
  N   1.49112467311337     -0.92115611311779      0.93421147221047
  H   2.46351264610317     -1.11274970268189      0.73222797997805
  H   1.41465048269326     -0.73700144364337      1.92666571522110
