15
Coordinates from ORCA-job run
  C   -0.52201758728380     -0.01371162475051      0.06797818671010
  C   0.93049027061780     -0.28346465574610      0.44169310707646
  Br  -1.51645059151757      0.48157782980711      1.66061915939517
  H   1.43054415353446     -0.61317054363190     -0.47190366968884
  H   0.93453606217769     -1.11925143748951      1.15516202250135
  N   -0.50422847287066      1.15519615938323     -0.91698239943345
  O   0.12604099311957      0.90870217936648     -1.94216231526968
  O   -1.08281934226631      2.19700641079986     -0.66013686660722
  C   -1.19894122642352     -1.19016988157337     -0.60720369631496
  H   -0.64569068703397     -1.45436276950460     -1.50982354335952
  H   -2.22699576611068     -0.94111448132354     -0.87503871203280
  H   -1.21478464102899     -2.04261181828491      0.07313967580305
  N   1.56859191564812      0.93491833008697      0.90284242623843
  H   1.34941605414578      1.11265225901125      1.87397530376838
  H   2.57230886529208      0.86780404384953      0.80784132121353
