15
Coordinates from ORCA-job run
  C   -0.52343637295836      0.02132570500850      0.16934471743430
  C   0.92779668174969     -0.38730906735971      0.40671860031363
  Br  -1.34534308748115      0.51571159089867      1.84995814445017
  H   1.29934349880421     -0.82859631813806     -0.52425370870713
  H   0.91003144496336     -1.17539047760811      1.16325468258058
  N   -0.52735885084248      1.22880605574127     -0.76557201351901
  O   -1.42200918800401      2.05479781596664     -0.67660173001209
  O   0.35535585991287      1.21410892251631     -1.62298792930222
  C   -1.34727313623226     -1.05252509658671     -0.51672280390471
  H   -1.36157427938521     -1.95327304827972      0.09873528418452
  H   -2.37336288904197     -0.71323264262117     -0.66396479050434
  H   -0.89985325279944     -1.28620418146326     -1.48668251930504
  N   1.71517312291906      0.74300463085278      0.86146382876679
  H   2.24900218225372      1.13611964552015      0.10007014439782
  H   2.34350826614195      0.48265646555241      1.60624009312672
