15
Coordinates from ORCA-job run
  C   -0.47008264503697      0.22293088368510      0.07210309654564
  C   1.02800486261257      0.40153354884842      0.38913921654358
  Br  -1.49323324716849      0.18737194860487      1.73267494968931
  H   1.52825953754439      0.56902901375655     -0.57269991516571
  H   1.14125284281282      1.31245284597499      0.97753744919714
  N   -0.90103797583556      1.47941457952773     -0.67436318050822
  O   -1.41199414038133      1.33492518514689     -1.78216866949635
  O   -0.65850968157138      2.55152110202915     -0.13129253718266
  C   -0.78670417684389     -1.00846281044019     -0.73996706606636
  H   -1.84471813900387     -1.05262930646091     -0.99136954495543
  H   -0.52844880858298     -1.89547573449017     -0.16169794800039
  H   -0.20949826730964     -0.99801998727024     -1.66752296773067
  N   1.68176359648989     -0.69073734325994      1.06701271661436
  H   1.67394670798513     -1.53862598731677      0.51737820847747
  H   1.25199953428932     -0.87322793833547      1.96423619203830
