11
Coordinates from ORCA-job run
  C   -0.72963498644758     -0.26538233886184     -0.41710430958743
  C   0.34864726775447      0.31945453555048      0.47788439363689
  Cl  -0.60051451728267      0.41619285893932     -2.05889424743886
  H   0.23762428095545     -0.05010885924558      1.50023022556333
  H   -0.58205874927174     -1.34251264004394     -0.50729666431607
  H   0.35034488960715      1.40725108918600      0.46080981986243
  C   -2.04394212280344      0.01315535631566      0.15123002032118
  N   -3.08522576402140      0.23927318564672      0.64448632306218
  N   1.69952005906274     -0.13069081167595      0.01582246848900
  O   1.80346913475988     -1.30562139474855     -0.32235147933277
  O   2.60077050768714      0.69898901893767      0.05318344974011
