11
Coordinates from ORCA-job run
  C   -0.94020150651202     -0.13227123439238      0.29210093251141
  C   0.51548739202304     -0.57656967336887      0.29067053911763
  Cl  -1.95558510544457     -1.54088028574182      0.70169973965767
  H   0.79067818152303     -0.96597085057539      1.27227515392815
  H   -1.09987127399929      0.62128929856604      1.06220805201489
  H   0.71637915973518     -1.31770344643609     -0.48029638203397
  C   -1.32620682738383      0.41415231600031     -1.00508792707874
  N   -1.60895335002238      0.85337313619241     -2.05666721843715
  N   1.40999838209001      0.59447378552658      0.02735790778850
  O   2.40805796592386      0.38973396816798     -0.65300383953742
  O   1.08821698206698      1.65937298606124      0.54974304206903
