11
Coordinates from ORCA-job run
  C   -0.91236513072723     -0.38727577571550      0.08047138206773
  C   0.58739750367023     -0.56224067962955     -0.10688137064682
  Cl  -1.72516455753793     -1.84099730256720     -0.56081881785027
  H   0.93157397746619     -1.45816244620526      0.41284659207315
  H   -1.15351575163670     -0.31825874744870      1.14027817045660
  H   0.86567639625046     -0.61163146042661     -1.15788608023800
  C   -1.39593348315927      0.80848980792910     -0.60214870016019
  N   -1.76018743063583      1.77594394475071     -1.15893231335888
  N   1.33086781649510      0.59062931805980      0.49390025848543
  O   0.82803610872490      1.12268825942786      1.48091627384488
  O   2.40361455109008      0.87981508182536     -0.02174539467363
