11
Coordinates from ORCA-job run
  C   -0.75814575624881     -0.36081862694118     -0.26425736144154
  C   0.38365538842951      0.44230083712954      0.33343622187657
  Cl  -0.73337097433614     -0.23292710945311     -2.04185508836139
  H   0.34043580076633      0.41211167120483      1.42489433949789
  H   -0.62731281200211     -1.41579598120344     -0.01933498213756
  H   0.39277147464377      1.47018708533568     -0.02296623626437
  C   -2.02887866884118      0.12139567017157      0.26545443989188
  N   -3.03384889553288      0.52115664863442      0.72250145917336
  N   1.69535838055687     -0.16872347634608     -0.05068459703837
  O   1.76720675231455     -1.39304412640126     -0.00607522111069
  O   2.60112931025010      0.60415740786903     -0.34111297408578
