11
Coordinates from ORCA-job run
  C   -0.90877997093708     -0.40128389939442      0.03886717126387
  C   0.58954487905868     -0.53863115519977     -0.18641764730763
  Cl  -1.72085337717701     -1.76309913336161     -0.78086575063503
  H   0.94559445833363     -1.49260650739730      0.20643393411936
  H   -1.13832356225516     -0.47566401772433      1.10087780051215
  H   0.85546403072400     -0.44712391890477     -1.23780465779147
  C   -1.40759899299207      0.87061025932754     -0.47407314067147
  N   -1.78420027273393      1.89992664920227     -0.89514310059270
  N   1.33300763721167      0.53045145154870      0.55297542137087
  O   0.83813986432540      0.92446685528342      1.60653221660891
  O   2.39800530644189      0.89295341662027      0.06861775312316
