11
Coordinates from ORCA-job run
  C   -0.78266380032645     -0.16512725068405     -0.36425723428522
  C   0.41799836968978      0.25670458604821      0.46442593947101
  Cl  -0.69671882103313      0.56970500758447     -1.98589707105314
  H   0.53926653949211      1.33750036504171      0.49018099437239
  H   -0.76491508749843     -1.24703156419153     -0.50370981254292
  H   0.34395538917080     -0.14933981387605      1.47613152750042
  C   -2.01260522677284      0.23068494333368      0.31270199331751
  N   -2.98432310793560      0.54487553568029      0.89221620479422
  N   1.66945231610464     -0.31411282403951     -0.12593965201306
  O   1.62160609600601     -1.48620026775539     -0.48680003205126
  O   2.64894733310308      0.42134128285815     -0.16705285750994
