11
Coordinates from ORCA-job run
  C   -0.91232390130737     -0.38284699710758      0.10287227263457
  C   0.58702116599936     -0.56461047856482     -0.07949522019330
  Cl  -1.72354108291119     -1.87044163638021     -0.45866625221258
  H   0.93550012829704     -1.43341462842216      0.48169683009783
  H   -1.15180615143977     -0.25850014408601      1.15795837788684
  H   0.86251759948677     -0.66618325785061     -1.12755995332283
  C   -1.40046071691526      0.77360691274931     -0.64141240055323
  N   -1.76945125224479      1.70998041649433     -1.24608941572758
  N   1.33289209054945      0.61672822666162      0.46041133752976
  O   0.81782730177124      1.22067750188778      1.39847622832333
  O   2.42082481871451      0.85500408461838     -0.04919180446283
