11
Coordinates from ORCA-job run
  C   -0.95228379164360     -0.00868217164842      0.28444564561091
  C   0.48040836498819     -0.49462254730782      0.44522082209357
  Cl  -2.03561880266492     -1.21624223835783      1.02844189916989
  H   0.71905831131073     -0.62679051424892      1.50198001598024
  H   -1.09317406580401      0.92996670624144      0.81847918186886
  H   0.66225136663776     -1.42107436481406     -0.09612939082595
  C   -1.29311526649666      0.18167580573849     -1.12174426563283
  N   -1.54647287176076      0.33196193387050     -2.25832908952988
  N   1.44331602579187      0.52298093541578     -0.08422786783848
  O   1.11420628752309      1.70294114036797      0.01324177699339
  O   2.50142444211832      0.09688531474291     -0.53037872788972
