11
Coordinates from ORCA-job run
  C   -0.94982937713031     -0.21903552014047      0.19608189388509
  C   0.53601960228789     -0.48407524214716      0.38801587817617
  Cl  -1.83889309617747     -1.70883886824657      0.61550365275016
  H   0.73871594314547     -0.77793783293520      1.41936220023176
  H   -1.28381110723536      0.56303391157632      0.87645541534068
  H   0.90723964073622     -1.24572830303740     -0.29504284181555
  C   -1.24396793847114      0.17863547855719     -1.17686277038074
  N   -1.45551680805151      0.49638453142821     -2.28719740263676
  N   1.32959958814069      0.76069138415834      0.13605861907494
  O   2.47224540891367      0.60790058794278     -0.27773672924822
  O   0.78819814384186      1.82996987284394      0.40736208462247
