11
Coordinates from ORCA-job run
  C   -0.88438173550659     -0.46602141472137     -0.01942788989166
  C   0.46677781840294     -0.26617010096496      0.64504584488027
  Cl  -0.71839908878805     -1.49383273546898     -1.46684143696029
  H   0.88594203338825     -1.22170550588721      0.95405228131131
  H   -1.50477124837595     -1.02922770782589      0.68341412918673
  H   0.37391718107433      0.40154535257117      1.50542342679053
  C   -1.58778725713546      0.77467898894003     -0.33276300316611
  N   -2.21267915498991      1.75087040917062     -0.51896176304704
  N   1.47522284819466      0.35790809681846     -0.26781433260393
  O   2.63008127658093     -0.03656752615826     -0.14741890802357
  O   1.07607732715481      1.22752214352646     -1.03370834847623
