11
Coordinates from ORCA-job run
  C   -0.88442237181046     -0.46677580658229     -0.03808853203908
  C   0.45697525014379     -0.27413126493919      0.64715340736595
  Cl  -0.70150668600213     -1.48685795743050     -1.48847716256427
  H   0.87330870061395     -1.23329361864248      0.94888892127903
  H   -1.51608247113992     -1.03154775897651      0.65347616344511
  H   0.35160955700014      0.38033476108447      1.51626704184910
  C   -1.58094256135058      0.77742635667472     -0.35353599112416
  N   -2.20505604757671      1.75292612785327     -0.54582663834614
  N   1.47943243770033      0.36382567565001     -0.24077225781325
  O   2.63835571475264     -0.00067114525313     -0.07422460988504
  O   1.08832847766897      1.21976463056166     -1.02586034216725
