11
Coordinates from ORCA-job run
  C   -0.88290515704735     -0.47028847281772     -0.05598937683721
  C   0.44697476369259     -0.27768332693753      0.65078701143687
  Cl  -0.67669101894068     -1.48552619743612     -1.50670411123456
  H   0.86276008932797     -1.23730396995647      0.95205430488370
  H   -1.52391611645033     -1.03867194166027      0.62392067219545
  H   0.32646201456478      0.36897796722366      1.52380654549301
  C   -1.57623022737087      0.77426409565248     -0.37675603246850
  N   -2.19924908544481      1.75049574699546     -0.56889832413477
  N   1.48201350569735      0.37171089566606     -0.21457634411173
  O   2.64215470057067      0.03282745019908     -0.00777499990289
  O   1.09862653140065      1.21119775307137     -1.02086934531938
