11
Coordinates from ORCA-job run
  C   -0.88707664444144     -0.45812085049571     -0.03955571477508
  C   0.45916032072171     -0.28732930559927      0.64334181901949
  Cl  -0.71253020351145     -1.44318519221799     -1.51529040483379
  H   0.36282489365480      0.35820446437180      1.52003288866112
  H   -1.51842547963129     -1.03717719438240      0.64030637807265
  H   0.86741778088841     -1.25467508297676      0.92909976872012
  C   -1.57986459168451      0.79547161346895     -0.32431674810500
  N   -2.19692281121053      1.77948579274198     -0.49479930537212
  N   1.47986124229386      0.35192141309876     -0.24487615428939
  O   1.10016044622781      1.26978751511369     -0.96291273619419
  O   2.62539504669264     -0.07538317312304     -0.14902979090383
