14

C	0.0	0.0	0.0
C	-0.481821	0.149318	-1.431883
F	1.398421	0.0	0.0
H	-1.549925	-0.093852	-1.478687
H	-0.295266	1.171548	-1.753673
N	-0.481913	1.113651	0.746577
H	-1.50376	1.125208	0.631344
H	-0.297481	0.949582	1.730503
C	-0.327443	-1.319612	0.610401
N	-0.475274	-2.315441	1.216149
N	0.266187	-0.734789	-2.357665
O	0.752208	-0.215532	-3.363659
O	0.332857	-1.929684	-2.078401
Br	-3.622051	0.0	0.0
