14

C	0.0	0.0	0.0
C	-0.528642	-0.268816	-1.394414
F	1.403218	0.0	0.0
H	-0.363441	0.597711	-2.032917
H	-1.608433	-0.471793	-1.300802
N	-0.505867	1.24378	0.409922
H	-0.428554	1.421151	1.398017
H	-0.175248	2.009653	-0.15635
C	-0.372186	-1.029753	0.994049
N	-0.518408	-1.803645	1.863846
N	0.157398	-1.407171	-2.052738
O	0.509728	-1.252483	-3.222598
O	0.305597	-2.437007	-1.399428
Br	-3.802524	0.0	0.0
