17

C	0.0	0.0	0.0
C	-0.228496	-0.003711	-1.538893
Br	1.978617	0.0	0.0
H	0.335202	0.847443	-1.935786
H	0.272943	-0.905412	-1.904817
C	-0.480418	1.280125	0.659317
H	-0.082726	2.172877	0.16876
H	-0.192002	1.298349	1.714841
H	-1.577464	1.251434	0.591412
N	-0.551039	-1.192583	0.581564
H	-1.574296	-1.079419	0.441334
H	-0.405608	-1.155409	1.588791
C	-1.638432	0.041611	-2.112291
H	-1.542471	0.062645	-3.20654
H	-2.207045	0.90583	-1.777856
H	-2.240677	-0.812481	-1.816707
H	-3.46231	0.0	0.0
