17

C	0.0	0.0	0.0
C	-0.484733	0.047149	-1.442107
Br	1.983093	0.0	0.0
H	-1.580122	-0.037938	-1.336746
H	-0.11456	-0.85173	-1.94372
C	-0.428758	1.231104	0.784579
H	-0.115595	1.137529	1.829453
H	-1.527546	1.234658	0.728484
H	-0.013072	2.157713	0.381342
N	-0.49488	-1.227079	0.569498
H	-1.524371	-1.13171	0.461462
H	-0.310903	-1.215995	1.569543
C	-0.143922	1.302487	-2.232321
H	-0.681408	2.169191	-1.841437
H	-0.448841	1.176946	-3.275646
H	0.927339	1.519528	-2.218061
H	-3.207761	0.0	0.0
