15

C	-0.456609	-0.047945	-1.450113
C	0.0	0.0	0.0
F	-1.84526	-0.398716	-1.47326
H	1.095104	0.0	0.0
H	0.050784	-0.873379	-1.955835
N	-0.216864	1.155527	-2.142079
H	-0.662396	1.942252	-1.685887
H	-0.523762	1.093006	-3.102659
C	-0.45034	-1.239963	0.777081
H	-0.071528	-2.131797	0.271953
H	-1.536757	-1.303341	0.84522
H	-0.019946	-1.219168	1.779322
C	-0.498698	1.218054	0.633934
N	-0.918466	2.209179	1.1051
Cl	3.393433	0.0	0.0
