15

C	-0.448337	0.007203	-1.463199
C	0.0	0.0	0.0
F	-0.139553	-1.222682	-2.026353
H	1.09541	0.0	0.0
H	0.15251	0.737156	-2.019768
N	-1.874135	0.180387	-1.59305
H	-2.179099	0.966897	-1.03321
H	-2.106422	0.370542	-2.559988
C	-0.514327	-1.221989	0.762083
H	-0.119872	-2.118434	0.284928
H	-0.149084	-1.192893	1.789985
H	-1.604952	-1.266887	0.760909
C	-0.458714	1.239221	0.623146
N	-0.894435	2.2277	1.086617
Cl	3.380729	0.0	0.0
