15

C	-0.450612	0.041925	-1.456785
C	0.0	0.0	0.0
F	0.043223	-1.122019	-2.078096
H	1.095964	0.0	0.0
H	0.025782	0.878903	-1.971552
N	-1.864214	0.136636	-1.602216
H	-2.107696	0.16287	-2.584592
H	-2.307903	-0.672951	-1.186593
C	-0.475338	-1.253714	0.739066
H	-1.560613	-1.272314	0.879809
H	-0.160649	-2.135901	0.181202
H	-0.004013	-1.289541	1.722235
C	-0.461088	1.210398	0.677611
N	-0.825308	2.180374	1.230628
Cl	3.390848	0.0	0.0
