15

C	-0.304337	0.01903	-1.498155
C	0.0	0.0	0.0
F	-1.685597	0.039556	-1.690841
H	1.096768	0.0	0.0
H	0.071273	-0.914637	-1.929242
N	0.274708	1.112719	-2.222069
H	0.051113	1.980397	-1.742064
H	1.285032	1.001534	-2.17461
C	-0.53395	-1.240549	0.709292
H	-0.109496	-2.131102	0.238823
H	-1.623925	-1.291088	0.650775
H	-0.230007	-1.241365	1.757982
C	-0.488303	1.229352	0.616707
N	-0.883942	2.229168	1.090333
Cl	3.340938	0.0	0.0
