15

C	-0.507581	-0.023721	-1.435919
C	0.0	0.0	0.0
F	0.030735	1.038103	-2.135711
H	1.094883	0.0	0.0
H	-1.600257	0.134284	-1.445998
N	-0.103888	-1.239728	-2.111162
H	0.043953	-1.015879	-3.088763
H	-0.841089	-1.932278	-2.048384
C	-0.470952	-1.247741	0.752426
H	-1.56135	-1.359181	0.719279
H	-0.162253	-1.192579	1.797036
H	0.005172	-2.120229	0.304552
C	-0.500552	1.207706	0.656258
N	-0.946172	2.147463	1.202473
Cl	3.405515	0.0	0.0
