15

C	-0.306233	-0.009323	-1.497179
C	0.0	0.0	0.0
F	-1.688558	0.000147	-1.689287
H	1.096844	0.0	0.0
H	0.073788	-0.948507	-1.911607
N	0.265033	1.07487	-2.241082
H	1.276476	0.979244	-2.183109
H	0.024767	1.950034	-1.785042
C	-0.532058	-1.226996	0.733931
H	-1.622593	-1.27357	0.687695
H	-0.216786	-1.212534	1.77893
H	-0.116816	-2.126973	0.273268
C	-0.487746	1.240218	0.594865
N	-0.883069	2.245474	1.057064
Cl	3.345829	0.0	0.0
