15

C	-0.474447	0.001674	-1.46357
C	0.0	0.0	0.0
F	-0.17106	-1.244726	-1.987164
H	1.096199	0.0	0.0
H	0.101663	0.742887	-2.023616
N	-1.875563	0.241293	-1.69644
H	-2.070393	1.227893	-1.583764
H	-2.433688	-0.265252	-1.019333
C	-0.48728	-1.21618	0.789187
H	-0.091494	-1.173738	1.804826
H	-0.108457	-2.119267	0.31271
H	-1.579319	-1.270338	0.848628
C	-0.468418	1.240666	0.613261
N	-0.909615	2.229412	1.070181
Cl	3.372399	0.0	0.0
