15

C	-0.479929	0.023811	-1.460729
C	0.0	0.0	0.0
F	-0.143852	-1.199549	-2.016634
H	1.097443	0.0	0.0
H	0.070354	0.796216	-2.004613
N	-1.889396	0.225864	-1.682572
H	-2.119206	1.196925	-1.514249
H	-2.426589	-0.339218	-1.035483
C	-0.479053	-1.232455	0.769472
H	-0.065508	-1.214107	1.778754
H	-1.57001	-1.284681	0.846849
H	-0.110516	-2.125844	0.266837
C	-0.470159	1.228851	0.634729
N	-0.889627	2.223195	1.100007
Cl	3.373248	0.0	0.0
