15

C	-0.474604	-0.020324	-1.463447
C	0.0	0.0	0.0
F	-0.168318	-1.273862	-1.969089
H	1.095593	0.0	0.0
H	0.100607	0.713709	-2.034287
N	-1.875713	0.214036	-1.699491
H	-2.070814	1.203154	-1.610162
H	-2.434288	-0.276611	-1.011089
C	-0.48674	-1.204129	0.807794
H	-0.108618	-2.114442	0.344371
H	-0.089584	-1.146661	1.822331
H	-1.578792	-1.257198	0.869386
C	-0.46858	1.249935	0.594296
N	-0.909511	2.247004	1.033057
Cl	3.372595	0.0	0.0
