14
Coordinates from ORCA-job run
  C   0.72499372769951     -0.32859265232803      0.11940554568249
  C   -0.69573803717002      0.27296860362410      0.04992009714330
  Cl  0.69215440296862     -2.05927505006146     -0.14736840037200
  H   -0.57250733649271      1.34631532609787      0.22201131201180
  C   1.34638316036115     -0.01103762967530      1.39671731148854
  N   1.86233388819057      0.25041447115321      2.41991793200225
  N   1.55426669001034      0.38185721768831     -0.98663552011656
  O   1.64054753973489      1.59049506831678     -0.81043942566220
  O   2.00215352331150     -0.27774658005602     -1.90498857010861
  N   -1.49152026233142     -0.28183994742085      1.11737991314515
  H   -1.83410650871029     -1.20442225530088      0.88036474275195
  H   -2.27966388674837      0.31709974458341      1.32487343267650
  C   -1.23460250063348      0.08526468089232     -1.31077529302686
  N   -1.71469440019029     -0.08150099751345     -2.37038307761573
