14
Coordinates from ORCA-job run
  C   0.69683322828736     -0.37564831302055      0.15330705219900
  C   -0.67328801025098      0.32490844145606      0.01868775819399
  Cl  0.54242707621844     -2.10905199953796     -0.04507328964659
  H   -0.47514050457962      1.39241708957362      0.15254007929217
  C   1.30584272174375     -0.05116866834259      1.43476840175625
  N   1.80968065218311      0.21393163052886      2.46297984813500
  N   1.60340252682881      0.22532393576106     -0.95671575674145
  O   2.01242634537358     -0.50025557094170     -1.84274677118704
  O   1.78301486630848      1.42886085575543     -0.82051346083706
  N   -1.53549716115711     -0.12635597134780      1.08378654225336
  H   -1.94118726738392     -1.02912690280099      0.87178796307447
  H   -2.28066535588985      0.53795638440084      1.24637902456243
  C   -1.19042751459615      0.12117412716933     -1.34772653682673
  N   -1.65942160308588     -0.05096503865361     -2.41146085422782
