14
Coordinates from ORCA-job run
  C   0.74113854717080     -0.30313371067707      0.08705308923045
  C   -0.70329337412203      0.24400805938793      0.07838518391252
  Cl  0.76605574976144     -2.02552620498250     -0.22943214559428
  H   -0.61565435087072      1.31627466710834      0.27716590848627
  C   1.38953756524919      0.00236912697735      1.35386386697062
  N   1.92558352046050      0.25512463459077      2.36880490096309
  N   1.50699844672533      0.47012352121648     -1.02209982409850
  O   1.56085415239091      1.67461325595258     -0.80835842843847
  O   1.94078931990975     -0.14339920934326     -1.97834808557000
  N   -1.44238951380554     -0.37018268006957      1.15436447715116
  H   -1.75744587097598     -1.29848419083952      0.90196925578750
  H   -2.24557926669225      0.19227487192941      1.40227184028425
  C   -1.27834343868393      0.07175768844068     -1.26938153662926
  N   -1.78825148651749     -0.08681982969162     -2.31625850245536
