14
Coordinates from ORCA-job run
  C   0.82215031267939     -0.19245064782036      0.40401343679883
  C   -0.72484755411286     -0.00278867735264      0.43994623812102
  Cl  1.23792285598993     -1.60387948775044      1.35697359962981
  H   -0.99094424421374     -0.04732116117569      1.50163591573297
  C   1.53566895279225      0.98170607062898      0.88491468582440
  N   2.08415366180474      1.93738007791468      1.29589433232224
  N   1.20693157757127     -0.40307075681142     -1.07232560710631
  O   1.00654352400648      0.59285083439196     -1.75848396879687
  O   1.62513273280248     -1.48583028748297     -1.42932789304858
  N   -1.33549827726537     -1.08450518511963     -0.30620367101839
  H   -1.83444122736655     -0.74871212847663     -1.11999459207941
  H   -1.96853763894796     -1.62109263579981      0.26843658036102
  C   -1.12449077210350      1.32174552064540     -0.04783223546849
  N   -1.53874390363657      2.35696846420857     -0.41764682127224
