14
Coordinates from ORCA-job run
  C   0.77604057198549     -0.09794515619024      0.40366371214969
  C   -0.72552184534403     -0.35774081577164      0.18558946867223
  Cl  1.33205841661289     -0.79762275556155      1.92262711250895
  H   -0.84160447199771     -1.44491954130894      0.19594179595763
  C   1.07122906729635      1.32503133722616      0.34433361604256
  N   1.22300748326589      2.49068660461478      0.32089346473820
  N   1.50143941343768     -0.81732649844714     -0.75011447829925
  O   2.30776532651484     -0.16425305048495     -1.39221880095282
  O   1.19857188846305     -1.98993242279007     -0.89860530564429
  N   -1.06058614734553      0.14649520896281     -1.12799939435569
  H   -1.83746406341720     -0.36270838872699     -1.52744089405980
  H   -1.29105265991821      1.13268758197841     -1.10400364797717
  C   -1.49763079881861      0.22059835395977      1.29599867724152
  N   -2.15625218073493      0.71794954253957      2.13233467397827
