16

C	0.0	0.0	0.0
C	-0.475345	0.038636	-1.432298
Cl	1.841504	0.0	0.0
H	-1.54193	0.299825	-1.344825
H	0.057091	0.824198	-1.967826
N	-0.225325	1.437918	0.633032
O	-0.350147	1.473854	1.852747
O	-0.219634	2.414618	-0.106009
N	-0.627704	-0.978443	0.73521
H	-1.678283	-0.766121	0.543527
H	-0.446269	-0.839563	1.724454
C	-0.336754	-1.313813	-2.115704
H	0.691103	-1.68521	-2.076956
H	-0.632966	-1.230241	-3.16622
H	-0.98577	-2.043723	-1.631657
H	-2.97678	0.0	0.0
