16

C	0.0	0.0	0.0
C	-0.526825	0.047726	-1.425438
Cl	1.782494	0.0	0.0
H	-0.346596	-0.967266	-1.792328
H	-1.617893	0.149571	-1.284369
N	-0.288718	1.353808	0.762862
O	-0.335697	1.274761	1.986016
O	-0.39632	2.392328	0.123611
N	-0.587797	-1.068834	0.673414
H	-0.380752	-0.99716	1.664572
H	-1.62641	-0.893469	0.537297
C	0.025307	1.063854	-2.416889
H	-0.347577	2.064295	-2.211274
H	1.117579	1.096088	-2.416338
H	-0.297302	0.777786	-3.422914
H	-3.048191	0.0	0.0
