16

C	0.0	0.0	0.0
C	-0.507557	0.247743	-1.408836
Cl	1.827294	0.0	0.0
H	-0.452797	-0.736696	-1.882879
H	-1.581495	0.450774	-1.253496
N	-0.259107	1.256488	0.922345
O	-0.394113	2.36137	0.412012
O	-0.277075	1.033818	2.128743
N	-0.606316	-1.1258	0.533636
H	-1.649346	-0.912992	0.394735
H	-0.419299	-1.170569	1.530657
C	0.174284	1.282897	-2.2928
H	-0.354484	1.3219	-3.250747
H	0.144712	2.274862	-1.847864
H	1.215371	1.022637	-2.497371
H	-3.01266	0.0	0.0
