17

C	-0.530388	0.029958	-1.424597
C	0.0	0.0	0.0
Cl	0.137196	-1.305083	-2.379126
H	1.091262	0.0	0.0
H	-0.332564	0.926954	0.475466
C	-2.046968	0.002393	-1.535922
H	-2.47352	0.795104	-0.919658
H	-2.351359	0.146255	-2.575287
H	-2.420367	-0.964041	-1.199603
N	-0.097109	1.360101	-2.062771
O	-0.529931	2.353395	-1.479167
O	0.575009	1.371198	-3.082015
C	-0.488673	-1.201975	0.801544
H	0.011618	-1.195526	1.771973
H	-0.221483	-2.137697	0.307332
H	-1.568781	-1.189971	0.976209
Cl	3.500507	0.0	0.0
