17

C	-0.415843	-0.033315	-1.45833
C	0.0	0.0	0.0
Cl	-0.09019	1.553193	-2.216848
H	1.093896	0.0	0.0
H	-0.360923	0.928485	0.445832
C	0.278461	-1.106367	-2.262838
H	1.354146	-0.942338	-2.156513
H	0.026361	-2.094425	-1.877173
H	-0.012583	-1.057855	-3.312208
N	-1.937062	-0.209072	-1.514836
O	-2.383925	-1.198836	-2.093244
O	-2.616123	0.625118	-0.925223
C	-0.505493	-1.20147	0.793852
H	-0.124941	-1.128951	1.814827
H	-1.598137	-1.242223	0.843148
H	-0.136205	-2.143169	0.383646
Cl	3.501082	0.0	0.0
