18

C	0.0	0.0	0.0
C	-0.357891	0.014052	-1.502042
Cl	1.815527	0.0	0.0
H	0.20329	0.871005	-1.913035
C	-0.475435	1.274204	0.666021
H	-0.135541	2.157806	0.116072
H	-0.088767	1.33002	1.687941
H	-1.571099	1.188239	0.656919
C	-0.488546	-1.235901	0.719975
H	-1.582666	-1.151848	0.665901
H	-0.132365	-2.140697	0.22804
H	-0.142026	-1.219699	1.758193
C	-1.761526	0.280502	-1.908744
N	-2.519456	0.549241	-2.774058
N	0.03695	-1.246522	-2.150226
H	-0.274398	-1.207691	-3.113669
H	1.049638	-1.296033	-2.148536
F	-2.868435	0.0	0.0
