18

C	0.0	0.0	0.0
C	-0.32707	-0.277853	-1.507325
Cl	1.798424	0.0	0.0
H	0.451301	-0.965272	-1.858128
C	-0.570695	1.309999	0.49601
H	-0.193743	2.162377	-0.07183
H	-1.660856	1.206638	0.386893
H	-0.320609	1.450023	1.551701
C	-0.51475	-1.150549	0.846345
H	-1.607761	-1.08187	0.820348
H	-0.152338	-1.041264	1.872907
H	-0.187401	-2.114227	0.449784
C	-0.136653	0.968071	-2.291928
N	-0.054618	1.917268	-2.98223
N	-1.61544	-0.902907	-1.71903
H	-2.362936	-0.491628	-1.083434
H	-1.886647	-0.773378	-2.687485
F	-3.266973	0.0	0.0
