18

C	0.0	0.0	0.0
C	-0.330578	-0.223422	-1.525364
Cl	1.802418	0.0	0.0
H	0.392098	-0.974503	-1.867247
C	-0.561835	1.296763	0.537455
H	-1.653415	1.19881	0.442845
H	-0.191838	2.160002	-0.018755
H	-0.295312	1.414484	1.592048
C	-0.532937	-1.176194	0.793487
H	-1.626545	-1.090162	0.749079
H	-0.193134	-1.118507	1.831567
H	-0.196191	-2.12777	0.36905
C	0.001703	1.004726	-2.280184
N	0.262614	1.970472	-2.895622
N	-1.656643	-0.665968	-1.89063
H	-1.684124	-1.669588	-1.750773
H	-2.379889	-0.281907	-1.216409
F	-3.246693	0.0	0.0
