18

C	0.0	0.0	0.0
C	-0.587944	0.040227	-1.408159
Cl	1.806333	0.0	0.0
H	-1.685273	0.042955	-1.14888
C	-0.476379	1.227555	0.760443
H	-0.132913	2.140971	0.275462
H	-1.571141	1.155693	0.736978
H	-0.102944	1.193204	1.788023
C	-0.477985	-1.261739	0.701327
H	-0.116255	-1.272988	1.733123
H	-1.573718	-1.194283	0.671778
H	-0.119433	-2.162754	0.196787
C	-0.266112	-1.174389	-2.174451
N	-0.015297	-2.097557	-2.859311
N	-0.22477	1.255501	-2.133272
H	0.714629	1.162615	-2.504842
H	-0.860472	1.371005	-2.912988
F	-2.990102	0.0	0.0
