16

C	0.0	0.0	0.0
C	-0.433181	0.372392	-1.42276
F	1.358601	0.0	0.0
H	0.48353	0.279845	-2.025403
H	-0.374119	-0.968361	0.288232
N	-0.374442	0.917057	1.123866
O	-0.551271	0.376956	2.211189
O	-0.304058	2.131608	0.95262
C	-1.07935	1.709898	-1.694034
H	-0.393115	2.512083	-1.425753
H	-1.98396	1.744584	-1.094535
H	-1.318352	1.778027	-2.755518
N	-1.271783	-0.756307	-1.976741
O	-2.120233	-0.495002	-2.819158
O	-0.919728	-1.897794	-1.68677
F	-2.340676	0.0	0.0
