16

C	0.0	0.0	0.0
C	-0.218074	-0.057808	-1.533847
F	1.355879	0.0	0.0
H	0.48803	0.675767	-1.925434
H	-0.427695	-0.798801	0.581919
N	-0.422996	1.297492	0.588233
O	-0.460443	2.278317	-0.154405
O	-0.521315	1.33073	1.810123
C	-1.526485	0.075258	-2.280348
H	-1.301954	-0.012321	-3.351964
H	-2.23556	-0.660071	-1.922219
H	-1.955444	1.046657	-2.057088
N	0.394598	-1.370454	-1.960663
O	0.144783	-2.37938	-1.30387
O	1.070274	-1.364738	-2.991292
F	-2.362255	0.0	0.0
