16

C	0.0	0.0	0.0
C	-0.431042	0.187234	-1.459266
F	1.359325	0.0	0.0
H	0.483889	0.003447	-2.042831
H	-0.373389	-0.925078	0.408326
N	-0.372578	1.053787	0.997262
O	-0.284804	2.236488	0.671676
O	-0.562907	0.659153	2.142925
C	-1.058432	1.48761	-1.904062
H	-1.965772	1.615479	-1.322963
H	-1.289456	1.422405	-2.967936
H	-0.361888	2.309031	-1.736143
N	-1.284127	-0.994098	-1.860735
O	-2.146632	-0.829607	-2.713608
O	-0.93024	-2.093608	-1.439786
F	-2.339993	0.0	0.0
