16

C	0.0	0.0	0.0
C	-0.426755	0.008161	-1.47533
F	1.359478	0.0	0.0
H	0.501186	-0.198981	-2.030434
H	-0.372744	-0.867901	0.517956
N	-0.374592	1.166227	0.860066
O	-0.509986	0.912741	2.052446
O	-0.34176	2.299176	0.386419
C	-1.113571	1.21387	-2.076786
H	-1.298919	1.023343	-3.134485
H	-2.045883	1.337865	-1.53273
H	-0.478236	2.092315	-1.974437
N	-1.222398	-1.250589	-1.737858
O	-2.085873	-1.228348	-2.605228
O	-0.832207	-2.273788	-1.178662
F	-2.338839	0.0	0.0
