16

C	0.0	0.0	0.0
C	-0.486148	0.318233	-1.422061
F	1.353185	0.0	0.0
H	-1.253165	1.075987	-1.364442
H	-0.390581	-0.934034	0.380678
N	-0.395838	1.049461	0.995395
O	-0.450436	2.21301	0.61105
O	-0.478599	0.67534	2.1618
C	-1.000028	-0.918051	-2.129301
H	-1.240333	-0.68872	-3.170491
H	-0.267866	-1.726377	-2.113043
H	-1.901243	-1.160162	-1.567541
N	0.648999	0.91589	-2.224176
O	1.492305	0.157772	-2.704789
O	0.645006	2.137814	-2.38757
F	-2.415815	0.0	0.0
