16

C	0.0	0.0	0.0
C	-0.215541	0.092142	-1.530615
F	1.363565	0.0	0.0
H	0.454243	0.895288	-1.841753
H	-0.42191	-0.852594	0.504437
N	-0.425029	1.23374	0.711016
O	-0.505028	1.152124	1.932013
O	-0.492879	2.27705	0.063896
C	-1.529938	0.240088	-2.264557
H	-2.191166	-0.583776	-2.027162
H	-1.295235	0.310019	-3.335194
H	-2.024817	1.137287	-1.911514
N	0.451729	-1.140307	-2.092127
O	0.248712	-2.220822	-1.542059
O	1.116731	-0.99904	-3.120745
F	-2.356367	0.0	0.0
