14

C	0.0	0.0	0.0
C	-0.203511	0.39067	-1.560015
F	1.374946	0.0	0.0
H	0.161729	1.426313	-1.574231
C	-0.54727	1.019998	0.888132
N	-0.566288	1.929483	1.647627
C	-0.503381	-1.336066	0.321065
N	-0.557051	-2.492033	0.562028
N	-1.479555	0.327662	-2.231962
H	-2.155256	0.537765	-1.477212
H	-1.668553	-0.652782	-2.424215
C	0.756767	-0.407981	-2.340429
N	1.46922	-1.028608	-3.037017
H	-2.211689	0.0	0.0
