14

C	0.0	0.0	0.0
C	-0.174519	0.089733	-1.601022
F	1.375126	0.0	0.0
H	0.526474	0.902104	-1.820093
C	-0.523475	1.195423	0.66386
N	-0.551995	2.22587	1.246298
C	-0.519263	-1.219607	0.61237
N	-0.551532	-2.281157	1.134168
N	-1.462679	0.372515	-2.194272
H	-1.735783	-0.396477	-2.796752
H	-2.10411	0.336372	-1.364793
C	0.428542	-1.133626	-2.151427
N	0.871776	-2.072903	-2.700178
H	-2.222273	0.0	0.0
