14

C	0.0	0.0	0.0
C	-0.191612	0.109716	-1.598996
F	1.373258	0.0	0.0
H	0.546855	0.881122	-1.845101
C	-0.580374	1.189818	0.629908
N	-0.59486	2.273728	1.112191
C	-0.512286	-1.226848	0.600841
N	-0.538706	-2.296377	1.105581
N	-1.427802	0.46778	-2.243652
H	-2.150687	-0.053566	-1.740112
H	-1.622065	1.430376	-1.985094
C	0.318673	-1.149816	-2.16868
N	0.713333	-2.146494	-2.647121
H	-2.152549	0.0	0.0
