14

C	0.0	0.0	0.0
C	-0.362615	-0.089795	-1.497217
F	1.37924	0.0	0.0
H	-1.463753	-0.125075	-1.459408
C	-0.468361	1.20316	0.704579
N	-0.579761	2.144211	1.407696
C	-0.481921	-1.205782	0.698894
N	-0.491157	-2.268815	1.212234
N	0.186106	-1.313145	-2.056568
H	1.185102	-1.230492	-2.175244
H	-0.233275	-1.501843	-2.956817
C	0.096324	1.116027	-2.200646
N	0.503974	2.021162	-2.834474
H	-2.368953	0.0	0.0
