14

C	0.0	0.0	0.0
C	-0.312584	-0.119668	-1.519247
F	1.377857	0.0	0.0
H	-1.400942	-0.184178	-1.576837
C	-0.582694	1.222212	0.572738
N	-0.553117	2.295012	1.079399
C	-0.519167	-1.170544	0.728865
N	-0.520192	-2.150426	1.390602
N	0.305225	-1.331447	-2.033268
H	1.311507	-1.220751	-2.060116
H	-0.024381	-1.501371	-2.97484
C	0.148096	1.098889	-2.213068
N	0.529815	2.004423	-2.858936
H	-2.266618	0.0	0.0
