12

C	0.0	0.0	0.0
C	-0.497001	-0.020586	-1.431015
Br	1.963816	0.0	0.0
H	-1.590881	-0.012884	-1.395527
H	-0.281728	0.934232	0.486772
H	-0.141067	0.847658	-1.990192
H	-0.151494	-0.925932	-1.938539
C	-0.496809	-1.18465	0.803238
H	-1.590698	-1.151361	0.789568
H	-0.151324	-2.11934	0.351907
H	-0.140553	-1.14543	1.835106
Cl	-3.8636	0.0	0.0
