15

C	-0.247129	-0.077918	-1.504146
C	0.0	0.0	0.0
Br	-0.146111	1.887512	-2.309643
H	1.095276	0.0	0.0
H	-0.310004	-0.980545	0.38306
N	0.715516	-0.912441	-2.05494
H	0.727803	-0.933143	-3.064438
H	1.641118	-0.720096	-1.639715
C	-1.609724	-0.43704	-1.902545
N	-2.699202	-0.778988	-2.189626
C	-0.648231	1.119273	0.783846
H	-0.209085	2.082093	0.524223
H	-1.729519	1.173958	0.617079
H	-0.477414	0.949171	1.850793
H	2.926853	0.0	0.0
