15

C	-0.53758	-0.00054	-1.416801
C	0.0	0.0	0.0
Br	0.097976	-1.577724	-2.433078
H	1.092991	0.0	0.0
H	-0.300296	0.966964	0.43257
N	-1.989655	-0.065818	-1.440674
H	-2.341784	0.690938	-0.860796
H	-2.32998	0.068689	-2.388163
C	-0.041024	1.164892	-2.169566
N	0.211204	2.138948	-2.77771
C	-0.51109	-1.148312	0.857806
H	-0.242646	-2.105584	0.406964
H	-0.010412	-1.096129	1.828091
H	-1.592668	-1.131281	1.009965
H	2.929463	0.0	0.0
