15

C	-0.349638	-0.027778	-1.484452
C	0.0	0.0	0.0
Br	-0.019894	1.761083	-2.290752
H	1.095289	0.0	0.0
H	-0.302777	-0.990027	0.37293
N	0.467874	-0.973434	-2.220026
H	0.209723	-1.902589	-1.894759
H	1.426439	-0.81097	-1.891768
C	-1.774804	-0.289051	-1.716558
N	-2.916602	-0.540945	-1.838304
C	-0.609338	1.095928	0.851252
H	-1.702574	1.120796	0.787785
H	-0.221133	2.071799	0.558571
H	-0.331697	0.931614	1.895716
H	2.941929	0.0	0.0
