15

C	-0.196458	0.103333	-1.501883
C	0.0	0.0	0.0
Br	-2.075007	0.699892	-2.011434
H	1.097528	0.0	0.0
H	-0.397229	-0.938008	0.39652
N	0.73548	0.998142	-2.15119
H	1.659734	0.729773	-1.761542
H	0.557742	1.933381	-1.797771
C	-0.075176	-1.226228	-2.113498
N	0.032635	-2.301388	-2.576074
C	-0.463832	1.198833	0.806832
H	-1.552408	1.261527	0.881195
H	-0.040498	1.132164	1.81272
H	-0.095525	2.131274	0.371211
H	2.850386	0.0	0.0
