15

C	-0.223368	0.026753	-1.497411
C	0.0	0.0	0.0
Br	-2.12267	0.58914	-1.941654
H	1.094823	0.0	0.0
H	-0.305639	0.977355	0.392158
N	0.677261	0.926413	-2.186638
H	0.510962	1.854362	-1.803846
H	1.616483	0.660965	-1.836223
C	-0.102156	-1.313376	-2.086652
N	-0.010151	-2.398637	-2.528527
C	-0.621359	-1.14199	0.775507
H	-0.237159	-2.10291	0.424858
H	-0.357425	-1.051743	1.832891
H	-1.713254	-1.151295	0.691383
H	2.875742	0.0	0.0
