15

C	-0.211534	0.060975	-1.493998
C	0.0	0.0	0.0
Br	-2.125574	0.78325	-1.94361
H	1.098416	0.0	0.0
H	-0.302031	0.967616	0.40953
N	0.757599	0.923964	-2.048861
H	0.883244	0.783812	-3.042912
H	1.65207	0.785012	-1.535461
C	-0.266362	-1.267542	-2.122233
N	-0.245011	-2.323323	-2.642783
C	-0.63328	-1.161949	0.731421
H	-1.721364	-1.177204	0.611692
H	-0.406498	-1.088166	1.798143
H	-0.231627	-2.114156	0.377356
H	2.835196	0.0	0.0
