18

C	0.0	0.0	0.0
C	-0.53696	-0.028447	-1.432828
Br	1.934533	0.0	0.0
H	-1.602016	0.228997	-1.26866
N	-0.285563	1.436956	0.638359
O	-0.339351	1.47089	1.861992
O	-0.409932	2.416435	-0.090287
N	-0.629361	-0.97368	0.762765
H	-0.423978	-0.821294	1.745204
H	-1.672708	-0.772107	0.597532
C	-0.471179	-1.442322	-1.988541
H	-1.06588	-2.12355	-1.383538
H	0.564195	-1.792701	-2.028164
H	-0.875382	-1.441217	-3.007833
N	0.175606	0.864317	-2.351102
H	-0.011373	1.818001	-2.06832
H	-0.245181	0.734332	-3.265181
H	-3.031843	0.0	0.0
