18

C	0.0	0.0	0.0
C	-0.256865	-0.09218	-1.538411
Br	1.969121	0.0	0.0
H	0.566704	-0.633264	-1.992692
N	-0.43516	1.32874	0.560412
O	-1.789671	1.51688	0.692356
O	0.386302	2.185845	1.019693
N	-0.471174	-1.132578	0.745029
H	-0.994366	-1.760143	0.144257
H	0.338028	-1.618786	1.13087
C	-0.30346	1.292483	-2.156905
H	0.60718	1.823152	-1.894921
H	-1.13298	1.854329	-1.773674
H	-0.375268	1.214982	-3.247615
N	-1.416211	-0.945237	-1.870297
H	-2.263524	-0.384694	-1.890464
H	-1.237997	-1.289883	-2.814406
H	-2.205052	0.0	0.0
