16

C	-0.527809	0.053766	-1.419906
C	0.0	0.0	0.0
Cl	0.007048	-1.357776	-2.405226
H	1.08809	0.0	0.0
H	-0.336648	0.909071	0.505315
N	-1.979137	0.010067	-1.411508
H	-2.332997	0.208718	-2.341461
H	-2.322088	0.717952	-0.772915
C	0.094338	1.285306	-2.067721
H	1.182098	1.234884	-1.97719
H	-0.262361	2.183625	-1.552725
H	-0.193361	1.341686	-3.120875
N	-0.554359	-1.102408	0.795126
O	-0.207598	-2.250434	0.524355
O	-1.31885	-0.806348	1.724179
H	2.777189	0.0	0.0
