16

C	-0.510305	0.048579	-1.431915
C	0.0	0.0	0.0
Cl	-0.173031	-1.623756	-2.17704
H	1.087113	0.0	0.0
H	-0.36519	0.896182	0.512038
N	-1.89195	0.387147	-1.532632
H	-2.188866	0.33493	-2.50005
H	-2.43646	-0.260984	-0.976198
C	0.358012	1.027743	-2.199184
H	0.103168	1.006332	-3.262586
H	0.168335	2.03204	-1.810212
H	1.412408	0.780668	-2.049388
N	-0.547016	-1.143406	0.778584
O	0.219306	-1.797059	1.474922
O	-1.766228	-1.353911	0.710721
H	2.909657	0.0	0.0
