16

C	-0.283385	0.002595	-1.493099
C	0.0	0.0	0.0
Cl	-2.071141	0.237202	-1.807043
H	1.092711	0.0	0.0
H	-0.39565	-0.87533	0.511184
N	0.436554	1.01274	-2.237237
H	0.204299	1.90885	-1.821155
H	1.420149	0.851682	-1.994994
C	0.115407	-1.363033	-2.019954
H	1.168825	-1.523293	-1.76219
H	-0.490655	-2.153383	-1.572055
H	-0.006693	-1.373618	-3.104111
N	-0.463004	1.162854	0.747444
O	-0.856087	0.976803	1.904449
O	-0.379308	2.281704	0.227924
H	2.692895	0.0	0.0
