16

C	-0.446014	-0.03314	-1.455094
C	0.0	0.0	0.0
Cl	0.152713	1.416342	-2.344489
H	1.090146	0.0	0.0
H	-0.291936	-0.944237	0.4679
N	0.213716	-1.169262	-2.089373
H	-0.101671	-2.009364	-1.610761
H	1.209889	-1.072397	-1.873994
C	-1.94728	-0.111154	-1.646941
H	-2.422246	0.780856	-1.237216
H	-2.172662	-0.194814	-2.712152
H	-2.338511	-0.993984	-1.127759
N	-0.532807	1.039672	0.880157
O	-0.929874	2.112624	0.409608
O	-0.487823	0.795045	2.09142
H	2.695223	0.0	0.0
