16

C	-0.402575	0.10434	-1.476835
C	0.0	0.0	0.0
Cl	-0.199979	1.872723	-1.857243
H	1.090233	0.0	0.0
H	-0.38905	0.797	0.630079
N	0.480606	-0.617336	-2.366856
H	0.344903	-1.595354	-2.121766
H	1.43035	-0.399969	-2.05563
C	-1.849311	-0.245946	-1.76467
H	-2.013244	-1.306021	-1.56201
H	-2.519129	0.348213	-1.140097
H	-2.061017	-0.045604	-2.815413
N	-0.388477	-1.258114	0.615141
O	-0.355941	-2.292426	-0.075182
O	-0.619433	-1.261108	1.831494
H	2.654477	0.0	0.0
