16

C	-0.507894	0.067699	-1.445116
C	0.0	0.0	0.0
Cl	-0.34719	-1.64233	-2.043154
H	1.092029	0.0	0.0
H	-0.346626	-0.888606	0.52489
N	-1.90503	0.425628	-1.623584
H	-1.990244	1.387719	-1.31009
H	-2.469214	-0.147862	-1.00343
C	0.370973	0.93739	-2.321447
H	1.413593	0.647088	-2.177774
H	0.066764	0.828965	-3.364085
H	0.261814	1.977173	-2.009816
N	-0.406688	1.13436	0.808828
O	-0.465987	0.966406	2.034457
O	-0.571035	2.242179	0.264833
H	2.635428	0.0	0.0
