16

C	-0.3172	0.121644	-1.474083
C	0.0	0.0	0.0
Cl	-2.165596	0.269705	-1.708542
H	1.091535	0.0	0.0
H	-0.42228	-0.907427	0.42305
N	0.322523	1.251005	-2.061564
H	1.131619	1.503501	-1.503305
H	0.623701	1.029823	-3.002368
C	0.083756	-1.193923	-2.123024
H	-0.097724	-1.14853	-3.200885
H	1.154516	-1.328813	-1.931582
H	-0.476724	-2.037184	-1.711985
N	-0.466777	1.109791	0.831584
O	-1.178563	0.838127	1.808466
O	-0.079667	2.245948	0.54891
H	2.729149	0.0	0.0
