15

C	0.0	0.0	0.0
C	-0.298732	-0.045302	-1.523234
Br	1.951304	0.0	0.0
H	0.425272	-0.727655	-1.973102
H	-1.290752	-0.462354	-1.666867
C	-0.543774	1.137593	0.710173
N	-0.596453	2.176004	1.279518
N	-0.408918	-1.274709	0.67996
O	-0.419264	-2.290003	-0.022975
O	-0.460459	-1.265801	1.911201
C	-0.210846	1.338081	-2.152766
H	-0.948505	2.008644	-1.705413
H	-0.415784	1.268581	-3.225925
H	0.779871	1.779579	-2.022907
H	-2.032194	0.0	0.0
