15

C	0.0	0.0	0.0
C	-0.310402	-0.082797	-1.518504
Br	1.946979	0.0	0.0
H	0.440464	-0.734756	-1.970055
H	-1.283363	-0.547483	-1.646048
C	-0.548747	1.150413	0.68772
N	-0.60155	2.204224	1.228935
N	-0.400893	-1.261687	0.712581
O	-0.408368	-2.293153	0.034771
O	-0.457387	-1.222456	1.94251
C	-0.295328	1.297663	-2.159556
H	-0.460102	1.208519	-3.238314
H	-1.091168	1.916776	-1.738707
H	0.658401	1.807202	-2.000633
H	-2.043236	0.0	0.0
