15

C	0.0	0.0	0.0
C	-0.273014	0.027623	-1.538519
Br	1.957379	0.0	0.0
H	0.338047	0.862393	-1.900365
H	-1.318307	0.28879	-1.676809
C	-0.536579	1.19584	0.627409
N	-0.588991	2.290621	1.07801
N	-0.401963	-1.197281	0.798997
O	-0.390057	-2.295443	0.235622
O	-0.472955	-1.039655	2.019594
C	0.040723	-1.215402	-2.365639
H	-0.101865	-0.957131	-3.421928
H	1.069731	-1.555168	-2.23521
H	-0.628433	-2.035458	-2.112724
H	-2.025198	0.0	0.0
