15

C	0.0	0.0	0.0
C	-0.300173	-0.025591	-1.532486
Br	1.932007	0.0	0.0
H	0.418681	0.678198	-1.966511
H	-1.299595	0.375548	-1.673742
C	-0.57046	1.205889	0.585295
N	-0.611293	2.316021	1.000589
N	-0.383642	-1.174081	0.857672
O	-0.338463	-2.297548	0.352744
O	-0.48608	-0.955372	2.064928
C	-0.197142	-1.358206	-2.264003
H	0.746001	-1.8686	-2.067622
H	-0.265317	-1.160102	-3.340067
H	-1.01102	-2.02202	-1.977623
H	-2.047596	0.0	0.0
