15

C	-0.097547	0.011479	-1.531929
C	0.0	0.0	0.0
Br	-1.957502	0.261487	-2.162241
H	1.095566	0.0	0.0
N	0.729001	1.084513	-2.051444
H	0.350352	1.968065	-1.723102
H	1.636701	0.937611	-1.582819
C	0.392436	-1.236395	-2.130336
N	0.813217	-2.16975	-2.706593
N	-0.560771	-1.159996	0.714464
O	-0.792252	-2.179287	0.067178
O	-0.715391	-1.041497	1.929233
C	-0.483829	1.234557	0.572859
N	-0.845196	2.274822	0.985576
F	2.474483	0.0	0.0
