17

C	0.0	0.0	0.0
C	-0.503862	-0.206454	-1.41614
F	1.419481	0.0	0.0
H	-1.591786	-0.085802	-1.330223
H	-0.306703	0.98567	0.359568
N	-0.479767	-0.982907	0.898858
H	-0.397373	-0.684347	1.858196
H	-0.00712	-1.864768	0.76391
C	-0.206676	-1.613822	-1.92257
H	-0.746186	-2.357557	-1.333941
H	0.866668	-1.828815	-1.884543
H	-0.537655	-1.719503	-2.95902
C	0.06911	0.857256	-2.34806
H	-0.143717	1.862347	-1.969937
H	-0.377887	0.777017	-3.343583
H	1.153359	0.752688	-2.443451
Cl	-4.17569	0.0	0.0
