17

C	0.0	0.0	0.0
C	-0.163821	0.076702	-1.56614
F	1.390259	0.0	0.0
H	0.608844	-0.638326	-1.864545
H	-0.340063	0.909967	0.506356
N	-0.488425	-1.222146	0.557376
H	-1.507795	-1.167	0.491111
H	-0.274366	-1.219925	1.547909
C	0.284525	1.464569	-2.028392
H	-0.42673	2.229284	-1.686345
H	0.321577	1.508603	-3.12454
H	1.281457	1.717099	-1.644365
C	-1.441729	-0.337246	-2.281177
H	-1.872254	-1.217323	-1.818753
H	-2.204044	0.433319	-2.233906
H	-1.211769	-0.567532	-3.323865
Cl	-3.57682	0.0	0.0
