14

C	0.0	0.0	0.0
C	-0.545278	0.318827	-1.395815
Br	1.961604	0.0	0.0
H	-0.269662	-0.493482	-2.074682
H	-1.64525	0.332954	-1.289488
C	-0.365765	1.054222	0.949405
N	-0.598738	1.913479	1.716585
C	-0.501659	-1.360006	0.464756
H	-0.149946	-2.131612	-0.224615
H	-0.133926	-1.581308	1.467429
H	-1.596056	-1.319581	0.464714
C	-0.070425	1.584741	-1.941116
N	0.307548	2.595604	-2.403867
Br	-3.822943	0.0	0.0
