14

C	0.0	0.0	0.0
C	-0.260112	0.236098	-1.520153
Br	1.965359	0.0	0.0
H	0.092274	-0.66849	-2.025836
H	0.410861	1.041211	-1.830662
C	-0.392897	1.154732	0.805216
N	-0.605444	2.099868	1.470914
C	-0.547612	-1.305476	0.533456
H	-1.641996	-1.240183	0.482071
H	-0.235037	-1.45788	1.56821
H	-0.184302	-2.132664	-0.08106
C	-1.558059	0.593769	-2.105838
N	-2.311146	0.953199	-2.935799
Br	-3.808619	0.0	0.0
