14

C	0.0	0.0	0.0
C	-0.547877	-0.161663	-1.424028
Br	1.962609	0.0	0.0
H	-0.227921	0.674658	-2.05196
H	-1.649413	-0.132295	-1.322117
C	-0.372321	1.324669	0.503196
N	-0.592154	2.402074	0.918521
C	-0.491245	-1.102171	0.926881
H	-0.140889	-2.070342	0.562173
H	-0.113504	-0.944015	1.93846
H	-1.586132	-1.069813	0.925729
C	-0.130482	-1.417496	-2.036109
N	0.202355	-2.425978	-2.53706
Br	-3.811415	0.0	0.0
