15

C	-0.580713	-0.005093	-1.403034
C	0.0	0.0	0.0
Br	-0.213945	1.674375	-2.355179
H	1.097876	0.0	0.0
H	-0.027485	-0.741782	-1.997874
N	-2.014517	-0.216154	-1.362619
H	-2.357989	-0.445472	-2.287972
H	-2.12454	-1.027084	-0.755841
N	-0.394822	-1.353371	0.556523
H	-0.409042	-1.228279	1.5641
H	0.420905	-1.940315	0.383361
N	-0.51686	1.085389	0.78501
H	-1.471435	0.924023	1.077971
H	0.086475	1.234391	1.581304
F	2.689638	0.0	0.0
