15

C	-0.666651	-0.151281	-1.3517
C	0.0	0.0	0.0
Br	0.291273	1.022985	-2.719589
H	1.089812	0.0	0.0
H	-0.503506	-1.148404	-1.752369
N	-2.043073	0.175989	-1.268023
H	-2.483912	0.182755	-2.178103
H	-2.089218	1.1022	-0.85153
N	-0.432561	-1.141666	0.790571
H	-1.384585	-1.024605	1.120879
H	0.203639	-1.239002	1.571991
N	-0.406288	1.322941	0.562986
H	0.463583	1.833036	0.686091
H	-0.784698	1.166732	1.489909
F	2.669692	0.0	0.0
