15

C	-0.152414	0.164624	-1.528888
C	0.0	0.0	0.0
Br	-0.380721	-1.701198	-2.505861
H	1.097541	0.0	0.0
H	-1.090751	0.607937	-1.876687
N	0.977198	0.852865	-1.956269
H	1.833385	0.536672	-1.449132
H	1.07602	0.937709	-2.955684
N	-0.59152	-1.173457	0.585651
H	-0.097008	-1.336113	1.453364
H	-1.557093	-0.975054	0.831939
N	-0.414122	1.25466	0.653049
H	-1.266979	1.609843	0.225002
H	0.311478	1.933925	0.46197
F	2.75392	0.0	0.0
