16

C	0.0	0.0	0.0
C	-0.50451	-0.009921	-1.462638
Cl	1.783347	0.0	0.0
H	-1.604087	-0.031123	-1.402019
N	-0.445871	1.230347	0.596826
H	-1.469807	1.218629	0.556794
H	-0.169365	1.235657	1.572755
N	-0.435704	-1.262892	0.548997
H	-0.060241	-1.367133	1.48591
H	-1.456937	-1.218393	0.60774
C	0.003794	-1.146356	-2.216849
N	0.370275	-2.053209	-2.866205
N	-0.141313	1.264861	-2.176999
O	0.956594	1.31438	-2.727649
O	-0.97459	2.162383	-2.150469
Br	-3.669742	0.0	0.0
