16

C	0.0	0.0	0.0
C	-0.088873	-0.063881	-1.57942
Cl	1.930198	0.0	0.0
H	0.575001	-0.862136	-1.905752
N	-0.547139	1.150505	0.482068
H	-0.360416	2.03135	0.039931
H	-0.819425	1.161738	1.449529
N	-0.497405	-1.107272	0.707076
H	-1.524709	-1.033138	0.681534
H	-0.206456	-1.979472	0.287902
C	0.325864	1.195625	-2.185795
N	0.671962	2.219453	-2.646047
N	-1.425026	-0.472753	-2.156694
O	-2.10271	0.370743	-2.724405
O	-1.665482	-1.670891	-2.049513
Br	-3.828924	0.0	0.0
