16

C	0.0	0.0	0.0
C	-0.204856	0.025312	-1.555985
Cl	1.825763	0.0	0.0
H	0.272114	0.944827	-1.895441
N	-0.513686	1.237918	0.49254
H	-1.54041	1.134239	0.465121
H	-0.225648	1.355482	1.457925
N	-0.529393	-1.13383	0.607357
H	-0.8466	-1.027661	1.554331
H	-0.142119	-2.024689	0.354495
C	-1.52294	-0.063862	-2.189838
N	-2.313637	-0.127339	-3.059406
N	0.581628	-1.079539	-2.242602
O	1.264965	-0.746422	-3.203898
O	0.454374	-2.223787	-1.820172
Br	-3.781717	0.0	0.0
