16

C	-0.407178	0.014172	-1.483698
C	0.0	0.0	0.0
F	-0.205566	-1.295713	-1.92849
H	1.092526	0.0	0.0
C	-1.848959	0.29241	-1.659266
N	-2.994395	0.48512	-1.839641
C	0.45647	0.915653	-2.344773
H	0.267808	0.667886	-3.391496
H	0.223962	1.9615	-2.160807
H	1.499871	0.722658	-2.082854
C	-0.479851	-1.174571	0.692666
N	-0.826531	-2.158358	1.236149
N	-0.373731	1.203953	0.71891
O	-0.326267	1.163372	1.953601
O	-0.569037	2.235345	0.054558
H	2.427886	0.0	0.0
