16

C	-0.426211	0.004377	-1.473642
C	0.0	0.0	0.0
F	0.271902	0.971299	-2.173702
H	1.095498	0.0	0.0
C	-0.045626	-1.298928	-2.066483
N	0.181373	-2.316407	-2.607942
C	-1.912879	0.237457	-1.690943
H	-2.493031	-0.539078	-1.189848
H	-2.129721	0.215644	-2.761123
H	-2.169327	1.21639	-1.289725
C	-0.466255	-1.190824	0.670762
N	-0.860414	-2.178001	1.176365
N	-0.380272	1.175678	0.74504
O	-0.525499	2.243304	0.121476
O	-0.357972	1.083794	1.98486
H	2.353066	0.0	0.0
