16

C	-0.374988	0.039699	-1.468545
C	0.0	0.0	0.0
F	-1.765531	0.069139	-1.629763
H	1.092777	0.0	0.0
C	0.161354	1.225529	-2.162302
N	0.557371	2.097168	-2.841706
C	0.176936	-1.19985	-2.151296
H	-0.009499	-1.140498	-3.22626
H	1.25422	-1.246826	-1.955272
H	-0.309611	-2.087642	-1.745478
C	-0.447985	-1.217192	0.637626
N	-0.761981	-2.252509	1.098992
N	-0.41405	1.158997	0.77911
O	-0.451495	1.022919	2.006271
O	-0.561114	2.230886	0.184322
H	2.408326	0.0	0.0
