16

C	-0.411649	0.011596	-1.48263
C	0.0	0.0	0.0
F	-0.243669	-1.304336	-1.921168
H	1.095439	0.0	0.0
C	-1.845301	0.326655	-1.65733
N	-2.983913	0.555329	-1.835928
C	0.471986	0.886277	-2.350332
H	1.509902	0.647625	-2.108558
H	0.286134	1.937907	-2.147361
H	0.256267	0.661165	-3.39755
C	-0.483908	-1.168559	0.699227
N	-0.86346	-2.144431	1.234517
N	-0.362963	1.208161	0.71618
O	-0.567883	2.235862	0.049034
O	-0.29406	1.174653	1.950064
H	2.424194	0.0	0.0
