16

C	-0.363629	0.058748	-1.469878
C	0.0	0.0	0.0
F	-1.752728	0.131325	-1.639153
H	1.092792	0.0	0.0
C	0.211328	1.232041	-2.157614
N	0.642374	2.08297	-2.842452
C	0.155589	-1.192471	-2.156525
H	-0.355491	-2.068927	-1.754839
H	-0.02562	-1.124647	-3.230685
H	1.229961	-1.269974	-1.958961
C	-0.461742	-1.218988	0.622863
N	-0.764581	-2.256629	1.087812
N	-0.412621	1.158137	0.781548
O	-0.536138	1.004216	2.001827
O	-0.481076	2.244889	0.197163
H	2.4058	0.0	0.0
