13

C	0.0	0.0	0.0
C	-0.43018	-0.054308	-1.455692
F	1.395875	0.0	0.0
H	-0.134349	0.84888	-1.988771
H	-0.329758	-0.904653	0.51008
H	-1.514852	-0.201193	-1.48385
N	-0.492275	1.136158	0.702806
H	-1.482487	0.965601	0.885736
H	-0.438478	1.960544	0.114102
N	0.21879	-1.186706	-2.166031
O	0.791235	-0.949969	-3.231006
O	0.136391	-2.298178	-1.647275
Br	-3.697117	0.0	0.0
