13

C	0.0	0.0	0.0
C	-0.415721	0.200988	-1.46209
F	1.400892	0.0	0.0
H	-0.084226	-0.635957	-2.075363
H	-0.340403	-0.995063	0.293174
H	-1.498375	0.338873	-1.49864
N	-0.46422	0.937996	0.959054
H	-1.467602	0.782428	1.062873
H	-0.340698	1.875543	0.595211
N	0.245499	1.401016	-2.021458
O	1.091595	1.239367	-2.901809
O	-0.075197	2.49848	-1.558268
Br	-3.68504	0.0	0.0
