13

C	0.0	0.0	0.0
C	-0.468295	-0.045069	-1.436196
F	1.381847	0.0	0.0
H	-1.562722	-0.089559	-1.460883
H	-0.300166	-0.916678	0.516864
H	-0.080212	0.811927	-1.981948
N	-0.471556	1.217531	0.592873
H	-0.229161	1.202051	1.577109
H	-1.493191	1.183306	0.540418
N	0.051767	-1.257579	-2.119389
O	-0.078011	-2.337011	-1.546202
O	0.560551	-1.113559	-3.2317
Br	-3.703317	0.0	0.0
