13

C	0.0	0.0	0.0
C	-0.491007	-0.057068	-1.42624
F	1.406691	0.0	0.0
H	-0.223456	0.839648	-1.983051
H	-0.336036	-0.878874	0.547092
H	-1.581484	-0.186059	-1.385162
N	-0.490852	1.183997	0.594999
H	0.086548	1.979758	0.365607
H	-0.642179	1.106039	1.586824
N	0.10604	-1.203568	-2.158133
O	0.126212	-2.29189	-1.584889
O	0.52567	-1.004695	-3.300384
Br	-3.866409	0.0	0.0
