13

C	0.0	0.0	0.0
C	-0.430829	0.18223	-1.444483
F	1.395881	0.0	0.0
H	-1.518043	0.05879	-1.492157
H	-0.328525	-0.975258	0.358075
H	-0.121203	1.15353	-1.829429
N	-0.490561	1.008469	0.877015
H	-0.420232	1.9166	0.432362
H	-1.484963	0.82181	1.014254
N	0.19652	-0.833572	-2.32981
O	0.737507	-0.442334	-3.365029
O	0.124445	-2.009629	-1.979668
Br	-3.689366	0.0	0.0
