13

C	0.0	0.0	0.0
C	-0.415397	0.029875	-1.472208
F	1.409104	0.0	0.0
H	-1.496007	0.195977	-1.517479
H	-0.337714	-0.955043	0.407611
H	-0.129482	-0.888869	-1.981609
N	-0.460876	1.042864	0.846077
H	-1.45609	0.880054	0.995633
H	-0.372134	1.926509	0.359048
N	0.276027	1.12214	-2.201757
O	0.10259	2.275598	-1.803457
O	0.984744	0.82014	-3.161901
Br	-3.674177	0.0	0.0
