12

C	-0.32441	-0.076573	-1.475795
C	0.0	0.0	0.0
F	-1.684931	-0.350089	-1.699038
H	1.094034	0.0	0.0
H	-0.165939	0.90233	-1.948685
H	-0.332916	-0.924073	0.479478
N	0.461009	-1.138908	-2.030077
H	0.532049	-1.036345	-3.034336
H	1.401538	-1.068537	-1.632709
C	-0.574233	1.153474	0.662395
N	-1.03692	2.090302	1.199826
H	2.804381	0.0	0.0
