12

C	-0.346088	0.100918	-1.48201
C	0.0	0.0	0.0
F	-0.240169	-1.219822	-2.009668
H	1.094496	0.0	0.0
H	-1.384396	0.380562	-1.690732
H	-0.371615	-0.937823	0.415931
N	0.551413	1.005082	-2.083971
H	0.497571	0.968964	-3.092727
H	1.501852	0.810738	-1.760077
C	-0.524197	1.126681	0.751059
N	-0.967878	2.025231	1.36441
H	2.863433	0.0	0.0
