12

C	-0.394842	-0.03135	-1.463167
C	0.0	0.0	0.0
F	-1.783617	-0.229478	-1.571933
H	1.092892	0.0	0.0
H	-0.206765	0.938052	-1.933105
H	-0.327021	-0.937011	0.465943
N	0.297845	-1.068914	-2.166156
H	0.803436	-1.648501	-1.507013
H	1.010731	-0.652845	-2.750955
C	-0.567122	1.120069	0.728929
N	-1.016013	2.03468	1.313967
H	2.847256	0.0	0.0
