12

C	-0.323919	-0.095435	-1.475905
C	0.0	0.0	0.0
F	-1.675011	-0.421258	-1.691956
H	1.094017	0.0	0.0
H	-0.207235	0.885493	-1.955659
H	-0.33006	-0.920141	0.489091
N	0.500195	-1.127574	-2.026183
H	1.434561	-1.039658	-1.615013
H	0.580682	-1.014926	-3.028631
C	-0.577814	1.158605	0.650036
N	-1.037351	2.105274	1.172895
H	2.80924	0.0	0.0
