12

C	-0.467658	-0.054896	-1.441424
C	0.0	0.0	0.0
F	-0.141946	1.193715	-2.013559
H	1.092069	0.0	0.0
H	0.107317	-0.7923	-2.003586
H	-0.336172	0.942715	0.444811
N	-1.858694	-0.324353	-1.583285
H	-2.124969	-0.246758	-2.558039
H	-2.39182	0.348491	-1.048005
C	-0.49685	-1.116415	0.789158
N	-0.87377	-2.008351	1.454233
H	2.832161	0.0	0.0
