15

C	-0.193516	-0.058214	-1.496677
C	0.0	0.0	0.0
Br	-2.095581	-0.155512	-2.08056
H	1.095793	0.0	0.0
H	-0.40504	0.914883	0.42841
N	0.279931	1.284805	-2.065035
O	0.827017	1.270935	-3.164443
O	0.042491	2.291943	-1.404926
C	0.619062	-1.182629	-2.100534
H	0.58135	-1.171848	-3.18598
H	1.636899	-1.023916	-1.719579
H	0.233865	-2.134503	-1.728247
C	-0.525588	-1.171865	0.661714
N	-0.94003	-2.120932	1.217891
F	2.562772	0.0	0.0
