15

C	-0.187025	-0.059835	-1.49777
C	0.0	0.0	0.0
Br	-2.080344	-0.197293	-2.083863
H	1.095328	0.0	0.0
H	-0.410006	0.91307	0.426979
N	0.259296	1.290636	-2.06722
O	0.805406	1.287725	-3.165295
O	0.003004	2.293616	-1.410231
C	0.64683	-1.164196	-2.096298
H	0.627382	-1.147044	-3.182988
H	1.6552	-0.991703	-1.696963
H	0.271784	-2.122808	-1.73242
C	-0.521269	-1.176095	0.657832
N	-0.929314	-2.133709	1.20491
F	2.5674	0.0	0.0
