15

C	-0.267815	0.019534	-1.493856
C	0.0	0.0	0.0
Br	0.140365	-1.758997	-2.212182
H	1.093003	0.0	0.0
H	-0.419819	-0.882378	0.48162
N	-1.751073	0.215345	-1.812555
O	-2.045511	0.901335	-2.789058
O	-2.557596	-0.337423	-1.072171
C	0.606851	1.051212	-2.173306
H	0.276825	2.050539	-1.86844
H	1.614254	0.864574	-1.77872
H	0.562212	0.980058	-3.256654
C	-0.511016	1.210772	0.61445
N	-0.908825	2.201129	1.108164
F	2.580483	0.0	0.0
