15

C	-0.19695	-0.039437	-1.495541
C	0.0	0.0	0.0
Br	-2.09483	-0.137154	-2.072017
H	1.095388	0.0	0.0
H	-0.40463	0.908638	0.441369
N	0.271138	1.309299	-2.055274
O	0.77816	1.309856	-3.172684
O	0.069161	2.306744	-1.372385
C	0.612536	-1.152238	-2.113113
H	1.626666	-1.005016	-1.715104
H	0.217214	-2.106361	-1.759171
H	0.587674	-1.122057	-3.201857
C	-0.524359	-1.181759	0.645059
N	-0.934342	-2.141449	1.186981
F	2.564213	0.0	0.0
