15

C	-0.265987	0.064676	-1.49776
C	0.0	0.0	0.0
Br	0.084698	-1.660783	-2.315934
H	1.092917	0.0	0.0
H	-0.318995	0.954431	0.431592
N	-1.724836	0.459592	-1.768782
O	-2.504129	-0.311648	-2.314843
O	-2.018357	1.585651	-1.367005
C	0.672386	1.095669	-2.100741
H	0.621803	1.097094	-3.191225
H	1.669448	0.827951	-1.727328
H	0.404481	2.081858	-1.7155
C	-0.638925	-1.093076	0.698134
N	-1.15632	-1.960955	1.299467
F	2.586475	0.0	0.0
