11
Coordinates from ORCA-job run
  C   -0.44013238426143     -0.11842290300129      0.43605794691715
  C   0.75444678681130      0.21166625314761     -0.46402310523461
  H   -0.44128640991943     -1.19570827047063      0.65241746017167
  H   0.63387064709534     -0.26592532705622     -1.44138712976718
  H   -0.31447229686958      0.40302673115675      1.38769212145452
  H   0.78751282470621      1.29040492919009     -0.63237519662110
  N   -1.65643711298573      0.37316940142602     -0.20369616075712
  H   -2.41440516755137      0.40123563850222      0.46599024775735
  H   -1.93626057090218     -0.25700762209022     -0.94546765285782
  C   2.01663409340106     -0.23624847388797      0.12236408187645
  N   3.01152959047582     -0.60719035691636      0.62142738706070
