11
Coordinates from ORCA-job run
  C   -0.43854448144190     -0.07677134399290      0.44690867518213
  C   0.74283258679949     -0.01969857993501     -0.52633745985882
  H   -0.38986415037588     -1.01764493370078      0.99980449072883
  H   0.69572284387013      0.89613540446122     -1.12374909684746
  H   -0.34170791596092      0.73685050401163      1.17902762127783
  H   0.67633717752691     -0.86197186513072     -1.21862994149685
  N   -1.67861595088498     -0.05607288221037     -0.32259514878491
  H   -2.45382015895706     -0.34559934987160      0.25965736396861
  H   -1.87588859262056      0.88662516059718     -0.63572973297635
  C   2.02579197618623     -0.05526877183288      0.17392341205619
  N   3.03775666585855     -0.08658334239577      0.76671981675080
