11
Coordinates from ORCA-job run
  C   -0.45841510648891      0.13597821127752      0.41123637547970
  C   0.77657440857563     -0.07429015249422     -0.47024334886057
  H   -0.50062092874310     -0.65916724860723      1.16835428387435
  H   0.67503528803455     -0.99889999356205     -1.04690839900658
  H   -0.35050611600306      1.08411027216154      0.94294825917685
  H   0.84795361030137      0.74773119277238     -1.18589815712591
  N   -1.63590896150518      0.21884676145478     -0.44752274341151
  H   -2.41515509574441      0.60721189598900      0.06802970508711
  H   -1.90981488761641     -0.70831562733446     -0.74923715152140
  C   2.00289868840804     -0.14940784925915      0.32217198234731
  N   2.96795910078149     -0.20379746239811      0.98706919396063
