15
Coordinates from ORCA-job run
  C   -0.27081711780479     -0.14607782102529     -0.73828266837716
  C   0.23635262103979      0.88365704500134      0.26988578586568
  Br  -0.25313600450083      0.61381954038495     -2.49178391005327
  H   -0.45477174320954      1.73242801680783      0.23144672009879
  N   0.57012846205064     -1.41987480540128     -0.71413926236681
  O   1.28261894136109     -1.55137592069446      0.27579135073276
  O   0.43840602995351     -2.18811764224475     -1.65048945663414
  N   -1.73151859378473     -0.52472202460519     -0.41075236023346
  O   -2.46652508994359      0.43473547925554     -0.25260221524377
  O   -2.00480614100372     -1.70900081206647     -0.36642516813974
  C   1.59283093122058      1.30902959037790     -0.03631477750740
  N   2.68041736623339      1.66264118640056     -0.30474214229574
  N   0.16058975849390      0.39612025687483      1.72003612715052
  O   -0.73522411991661     -0.39404981439705      1.97421319203061
  O   0.95345469981091      0.90178772533153      2.49515878497311
