14

C	-0.430609	0.019289	-1.475697
C	0.0	0.0	0.0
Cl	0.171273	-1.422423	-2.342321
H	1.095784	0.0	0.0
H	0.032518	0.880297	-1.963032
C	-1.884198	0.092004	-1.630504
N	-3.05274	0.153279	-1.734647
C	-0.515629	-1.204899	0.781385
H	-0.166527	-1.133519	1.812677
H	-1.608384	-1.254822	0.778505
H	-0.107005	-2.120266	0.353195
C	-0.462352	1.249749	0.602203
N	-0.868876	2.243238	1.08085
Br	3.438816	0.0	0.0
