14

C	-0.430682	-0.028539	-1.475437
C	0.0	0.0	0.0
Cl	0.171833	-1.496782	-2.295005
H	1.09575	0.0	0.0
H	0.031764	0.816659	-1.989833
C	-1.884434	0.038397	-1.632455
N	-3.05326	0.094045	-1.738109
C	-0.515183	-1.178703	0.820955
H	-1.607905	-1.227679	0.821575
H	-0.164187	-1.074337	1.848592
H	-0.107889	-2.10749	0.421681
C	-0.463	1.268165	0.561703
N	-0.870366	2.275896	1.008511
Br	3.43954	0.0	0.0
