14

C	-0.521153	-0.017095	-1.443204
C	0.0	0.0	0.0
Cl	0.093224	1.371752	-2.38292
H	1.09544	0.0	0.0
H	-1.611313	0.076917	-1.441406
C	-0.181472	-1.261238	-2.136266
N	0.062515	-2.257067	-2.70937
C	-0.465608	-1.238779	0.771002
H	-1.556038	-1.334896	0.778426
H	-0.023694	-2.131603	0.325767
H	-0.110455	-1.169767	1.800441
C	-0.483927	1.219283	0.64691
N	-0.915156	2.166325	1.19231
Br	3.437807	0.0	0.0
