14

C	-0.516582	-0.046892	-1.443957
C	0.0	0.0	0.0
Cl	0.099632	1.324135	-2.408358
H	1.095455	0.0	0.0
H	-1.607436	0.046409	-1.447443
C	-0.179288	-1.306068	-2.1059
N	0.028438	-2.330503	-2.641132
C	-0.455666	-1.233593	0.787283
H	-0.112724	-1.141613	1.818885
H	-1.544739	-1.344665	0.786237
H	0.003523	-2.127556	0.362669
C	-0.512134	1.213744	0.630309
N	-0.988228	2.156979	1.144256
Br	3.436518	0.0	0.0
