14

C	-0.358251	-0.064184	-1.483187
C	0.0	0.0	0.0
Cl	-2.107528	-0.402203	-1.770788
H	1.09744	0.0	0.0
H	0.18981	-0.903401	-1.917193
C	-0.00545	1.156148	-2.204372
N	0.246567	2.144221	-2.785993
C	-0.415818	-1.260239	0.759141
H	-1.499523	-1.360602	0.838021
H	-0.004975	-2.13642	0.251492
H	0.018308	-1.224206	1.759678
C	-0.530791	1.201786	0.629625
N	-0.960768	2.153859	1.166944
Br	3.399409	0.0	0.0
