13
Coordinates from ORCA-job run
  C   -0.56751332400474      0.23288780416539     -0.18729572746983
  C   0.58866985321553     -0.43392077237633      0.55863766847770
  Br  -1.04721026283729     -1.01481466471101     -1.73220400925684
  H   0.83429005150419      0.24532470758571      1.38016869183119
  H   0.19576809654999     -1.36506003791955      0.99523774867817
  N   -1.65573951584802      0.46947836813989      0.67991967149651
  H   -2.42445287866611      0.94091179872369      0.22100816436150
  H   -1.98545308552813     -0.38892604263684      1.10357629092238
  C   -0.14323237359810      1.47619588666876     -0.82571892399134
  N   0.19967007846056      2.49765036112325     -1.29331109991561
  N   1.74637548861502     -0.58873015866541     -0.29370599406277
  H   2.58935670245305     -0.65080749939712      0.25946787270968
  H   1.66947116968405     -1.41918975070042     -0.86478035378075
