13
Coordinates from ORCA-job run
  C   -0.60350507086109      0.08913449596386     -0.35887444181734
  C   0.60206504623827     -0.81278656425521     -0.09606589644820
  Br  -1.89831233270568     -1.00664943439640     -1.47573957012502
  H   0.23770694802501     -1.67435006979725      0.48621315663794
  H   0.97126533146730     -1.19167782714101     -1.05000962593125
  N   -1.16496464922346      0.52824654974003      0.86570590694754
  H   -1.90032057858653      1.21096029967301      0.73311715130928
  H   -1.52348540703560     -0.25502341076860      1.39940643662728
  C   -0.24637327291220      1.23628696859696     -1.19155871332349
  N   0.01081409453453      2.16076810558967     -1.86862892103562
  N   1.63200113179617     -0.01061682027782      0.53313820077220
  H   1.36947701600877      0.22804426097965      1.47943901811401
  H   2.51463174325451     -0.50333655390689      0.54485729827267
