13
Coordinates from ORCA-job run
  C   -0.52025775177321      0.26393850682013     -0.38832547990128
  C   0.93072971537904     -0.12854597991211     -0.08756253453226
  Br  -1.40127173140644     -1.43555943269285     -1.16331265791778
  H   1.44074098200342      0.79804999880211      0.19184136346829
  H   1.38746748262551     -0.51824834136038     -1.00301944762715
  N   -1.13956688010023      0.74041427490387      0.76858294021572
  H   -2.12466567408396      0.93655453105504      0.66065119802654
  H   -0.94779007556941      0.11009113508408      1.53966533495172
  C   -0.59761985847401      1.22299749393879     -1.48612017615496
  N   -0.61616902764157      2.01347302052160     -2.35538800573851
  N   0.94500965314241     -1.03669811878354      1.04822953187707
  H   0.81561885771423     -1.99050482814211      0.73648899526048
  H   1.82677430818423     -0.97596226023461      1.53826893807211
