13
Coordinates from ORCA-job run
  C   -0.56668196360097      0.05289256432294     -0.35599963225096
  C   0.93053852923584     -0.22412864298826     -0.21249725847875
  Br  -1.51146581482647     -1.55145958295609     -0.94815819390312
  H   1.38394627600445      0.74733777385539      0.05644847373754
  H   1.32957880805934     -0.51258075961312     -1.18772905471707
  N   -1.10256419951835      0.43391425571963      0.93909997928131
  H   -0.75029388821541      1.35611356291291      1.18142390461940
  H   -2.11421827788975      0.48414557286605      0.90300856852580
  C   -0.77721876024673      1.07006342495738     -1.39868733497459
  N   -0.90805005194028      1.93478841487982     -2.18489937664804
  N   1.15377563228811     -1.29014132378222      0.73952592661062
  H   2.14352385581898     -1.48014273029045      0.82274620906640
  H   0.79012985483127     -1.01980252988400      1.64371778913147
