13
Coordinates from ORCA-job run
  C   -0.55946793121492      0.23407188119379     -0.19574320229080
  C   0.56786764112987     -0.50652671200344      0.52305737997815
  Br  -0.80802274065145     -0.70193758120243     -1.99300985668413
  H   0.20604662650643     -1.52590846978550      0.72832836163794
  H   0.68807150981315      0.00730580103940      1.48122311796541
  N   -1.73630259459339      0.23757381829871      0.58435278824763
  H   -2.04289390587614     -0.70406976044175      0.79510060242327
  H   -2.49037005047255      0.75271647500503      0.14864291059915
  C   -0.16926244098109      1.60090425520928     -0.53389293486840
  N   0.10629548600793      2.71975229993132     -0.76150853872178
  N   1.80725188535933     -0.42483909442925     -0.21841703067554
  H   1.83518410039445     -1.11765333101598     -0.95418668016816
  H   2.59660241457836     -0.57138958179913      0.39505308255726
