13
Coordinates from ORCA-job run
  C   -0.70440567369485     -0.10045601300105     -0.39242610497283
  C   0.58312497734814     -0.83180360572214      0.00523654150335
  Br  -1.80166981640018     -1.32585758548907     -1.46742110546782
  H   0.27466558412941     -1.68744588915672      0.60927700967464
  H   1.07718067686197     -1.20097596063603     -0.90044990167030
  N   -1.41772570241022      0.26217369617181      0.79544802950583
  H   -0.74836707540065      0.70894230110134      1.41646509142715
  H   -2.18219558637343      0.89484684659141      0.59415817083340
  C   -0.36499807769112      1.03361425256955     -1.26938042651170
  N   -0.05334412774529      1.97016491894432     -1.90905179136088
  N   1.38503621948814      0.07604556552338      0.81706037364072
  H   1.96185166819646     -0.43941407285539      1.46748549330406
  H   1.99184693369164      0.63916554595857      0.23459862009442
