13
Coordinates from ORCA-job run
  C   -0.64951529827229      0.00598334826063     -0.23344154338588
  C   0.57117021698926     -0.52225329862283      0.52759652153999
  Br  -1.25484903726892     -1.33008626248067     -1.52337593947650
  H   0.74373325102979      0.18187669078688      1.35811366234023
  H   0.27111651075563     -1.47712246708999      0.96243194114943
  N   -1.72903290959571      0.23451865742006      0.70088661963757
  H   -1.46422200310461      0.97225400404274      1.34657014271614
  H   -2.56761430777821      0.52533666422924      0.21164687228693
  C   -0.25874444235743      1.19717059152827     -1.00600021445200
  N   0.07356076137869      2.19333739373685     -1.53557443994221
  N   1.70610876365275     -0.69458528116897     -0.35296482117871
  H   2.30633892167643     -1.44028584025797     -0.03286768357730
  H   2.25294957289463      0.15285579961578     -0.42202111765765
