13
Coordinates from ORCA-job run
  C   -0.57508354984562      0.20303063846909     -0.34334257770912
  C   0.91569552906374     -0.12368278367670     -0.19847459448433
  Br  -1.49410047899368     -1.59574563760556     -0.77211784626003
  H   1.25811149137949     -0.61919740532439     -1.11268891321826
  H   1.42670489092799      0.83938137118913     -0.10852902921963
  N   -1.04903926078071      0.81332813383534      0.81969164864178
  H   -2.04592558295359      0.97701038712986      0.82449975430584
  H   -0.73415797955266      0.28928884961019      1.62898436407032
  C   -0.83292135749998      1.01315126911221     -1.52998371105582
  N   -1.00824020341311      1.69146023221922     -2.47337026264423
  N   1.11314530818747     -0.87925981414244      1.02827901536060
  H   0.97438198331558     -1.86694439857107      0.85833244724051
  H   2.05042921016505     -0.74282084224487      1.38071970497239
