13
Coordinates from ORCA-job run
  C   -0.62125479247046      0.14831682400372     -0.32431281405123
  C   0.53022758886341     -0.41051947887027      0.52266411282179
  Br  -0.98762020277539     -1.17299998253315     -1.75262629428265
  H   0.69171161517115      0.31804735903689      1.32524547431067
  H   0.16026917703535     -1.33987002191681      0.98324604833484
  N   -1.85542614507977      0.36717986831508      0.38422383737504
  H   -2.09728639015259     -0.44941119456211      0.93363941348421
  H   -1.77506496387846      1.17739792979816      0.98858008949282
  C   -0.21096734562025      1.39639065306294     -0.96900008256819
  N   0.11522527655966      2.43335325477332     -1.41357544952464
  N   1.74909877376256     -0.53631313517470     -0.24651211339602
  H   2.55812277746488     -0.54465877726311      0.35896974109720
  H   1.74396463111989     -1.38791329866995     -0.79154196309384
