13
Coordinates from ORCA-job run
  C   -0.48558859173143      0.30150567782725     -0.40381289772187
  C   0.93826562804594     -0.10933810756220     -0.01358456108128
  Br  -1.25746307618650     -1.30861290048925     -1.44307651524724
  H   1.40343201320538      0.78375065471549      0.41400253970306
  H   1.48555531954187     -0.39003756934662     -0.91924632987155
  N   -1.21874299574120      0.63902776172322      0.73508192728149
  H   -1.08562682505845     -0.07112913561522      1.44682883118193
  H   -2.19329751717247      0.83692882691358      0.55744601293310
  C   -0.48201265403491      1.37733082044561     -1.39055988946490
  N   -0.44880279018907      2.26371807435068     -2.16129137507477
  N   0.86500073470785     -1.13922439175836      1.01100494649317
  H   1.69819411149356     -1.12819473272967      1.58285928906526
  H   0.78008664311945     -2.05272497847453      0.58434802180362
