13
Coordinates from ORCA-job run
  C   -0.52159790723327      0.29313376861877     -0.36035737086860
  C   0.90436201130177     -0.22527035335957     -0.15257249277161
  Br  -1.62212892578255     -1.35104022546579     -0.95914164729933
  H   1.24295184978968     -0.70808414858781     -1.07474102545647
  H   1.52329690499095      0.65861402189575      0.02757869743390
  N   -0.99595372348028      0.89026731022372      0.80750788229905
  H   -1.96385462452863      1.17583714299488      0.76449857292971
  H   -0.79712903391593      0.29216420398781      1.60185348672195
  C   -0.59798359388894      1.19836528235977     -1.50516106348624
  N   -0.62402231191104      1.93862136456090     -2.41742125087187
  N   0.92815577923813     -1.06691076870416      1.03427754562641
  H   0.67094481228615     -2.01557575255023      0.79424675509091
  H   1.85395876313393     -1.07912184597408      1.43943191065219
