13
Coordinates from ORCA-job run
  C   -0.60336235972108      0.06688522581227     -0.23597793436943
  C   0.60322698257795     -0.47334650669081      0.53042148325242
  Br  -1.03465969438387     -1.18156529965878     -1.69325213405601
  H   0.77814771325523      0.21983356447706      1.36199092531510
  H   0.29244463465180     -1.43638830548415      0.95515946166838
  N   -1.75036542787789      0.11356682128424      0.64066715773398
  H   -1.56656427026941      0.77400668156549      1.39034235799357
  H   -2.57104086458732      0.42902866780958      0.13598246469670
  C   -0.27691986383924      1.35349611284530     -0.86946915806360
  N   -0.07676625214761      2.43582805591150     -1.28265989402891
  N   1.78369461518694     -0.49484948174647     -0.30860589953371
  H   2.62299268125537     -0.47586525751446      0.25347945362187
  H   1.80017210589916     -1.32963027861075     -0.87907828423039
