13
Coordinates from ORCA-job run
  C   -0.70750433920247      0.02119658330782     -0.45610897214275
  C   0.50279327259330     -0.80100598419491      0.02341060855183
  Br  -1.85974383472714     -1.16511984029144     -1.50608281768102
  H   0.99812320511407     -1.26161616298907     -0.84021797753002
  H   0.11473141450494     -1.60101598462441      0.65952596551837
  N   -1.49913701314088      0.61552813677133      0.59561366188132
  H   -0.84348752174007      1.09053209399558      1.21217501689926
  H   -1.95183365525569     -0.12404321732545      1.12292118776616
  C   -0.22005777506136      1.08203277170198     -1.34551684740157
  N   0.24423634377262      1.92373709673461     -2.02102733290842
  N   1.34600167191020      0.08599713209704      0.81418764486979
  H   1.85848254422086     -0.43063541358329      1.51553549501158
  H   2.01539568701161      0.56441278840019      0.22458436716547
