13
Coordinates from ORCA-job run
  C   -0.58715713349694      0.04064633144974     -0.33334138316189
  C   0.57281944657664     -0.92632775642705     -0.01884855145382
  Br  -1.90964292353224     -0.98871696872754     -1.47193331360707
  H   0.15714964909323     -1.73543841849026      0.59145931789211
  H   0.92255004204780     -1.37005718661360     -0.95194289595206
  N   -1.15102731475188      0.54674223023530      0.86367612476554
  H   -1.53785665397404     -0.20245909622999      1.42574281847265
  H   -1.86333433431534      1.24600769710706      0.69609638523285
  C   -0.12002325939693      1.14219808760128     -1.17312629638308
  N   0.30894928961632      2.01783499924957     -1.82884177920744
  N   1.68084384897967     -0.30929052439765      0.67068212212192
  H   2.17815382356045      0.32609195378660      0.05942232877408
  H   1.34957551959325      0.21376865145655      1.47095512250619
