13
Coordinates from ORCA-job run
  C   -0.59644743739678      0.05556415383632     -0.31508213141588
  C   0.56200593993600     -0.93110846801773     -0.06133625055874
  Br  -1.96118758471341     -0.92713661204479     -1.44336496792761
  H   0.88083104294626     -1.35074574025508     -1.01645482526661
  H   0.15540649249498     -1.75367709104790      0.53705608562558
  N   -1.12033244287175      0.53238238499215      0.91222409932051
  H   -1.50007659395258     -0.22923773270869      1.46238088076517
  H   -1.82968929155676      1.24311295343555      0.78496824201198
  C   -0.14126546580994      1.17639455558929     -1.13567270746891
  N   0.27944281324285      2.06430405537345     -1.78034907483453
  N   1.69511796010503     -0.34436322510602      0.61378143721747
  H   1.39117535755217      0.16211841145848      1.43528208443136
  H   2.18401921002391      0.30039235449496      0.00556712810022
