13
Coordinates from ORCA-job run
  C   -0.70831690075443     -0.07740518274698     -0.38807955883073
  C   0.56601577332364     -0.84480836410529     -0.01703225667537
  Br  -1.84237181924811     -1.25595137929669     -1.47740374575124
  H   0.24346081787826     -1.70456493395093      0.57358867061873
  H   1.04361093029386     -1.20714186922992     -0.93426519810084
  N   -1.40343088887560      0.27565030547004      0.81339054342693
  H   -0.72098873694834      0.69961431083620      1.43600594384674
  H   -2.15986436659499      0.92356243370386      0.63121441797302
  C   -0.35282939830777      1.06719421976658     -1.24459187878481
  N   -0.03350096110857      2.01464523206375     -1.86409145832114
  N   1.39479077015277      0.02927247524437      0.80471120696599
  H   1.96611374016099     -0.51099033451243      1.43964766186565
  H   2.00831104002831      0.59092308675741      0.22790565176711
