13
Coordinates from ORCA-job run
  C   -0.68167039287547      0.00702959858178     -0.40126731929194
  C   0.52631784694618     -0.90997107423546     -0.09188529005283
  Br  -1.95132032164235     -1.06843680136061     -1.47022549520178
  H   0.92249697623467     -1.30506647613753     -1.03007936924399
  H   0.14383093478772     -1.75770083866843      0.48567637455537
  N   -1.38772829646462      0.52876181797006      0.73683155932228
  H   -1.58285621722476     -0.20307029497638      1.40951833499907
  H   -0.88295797662109      1.29016874682231      1.17211271447706
  C   -0.23139480080548      1.12434517846990     -1.23359180038211
  N   0.22112414561146      2.00805312409941     -1.86221990577840
  N   1.59525987428116     -0.27240364865125      0.64046086007875
  H   2.02378114980550      0.47458153483542      0.10923013836968
  H   1.28511707796704      0.08470913325076      1.53343919814886
