13
Coordinates from ORCA-job run
  C   -0.59131898174695      0.13607078925164     -0.29456120158333
  C   0.52650135414215     -0.59522259900316      0.48991562622586
  Br  -0.76092870741533     -0.74525844360803     -2.05582694028941
  H   0.20094394439352     -1.63423991791888      0.60543604576565
  H   0.53329387431630     -0.13841558412984      1.48710716024394
  N   -1.89028778827131      0.12310424663588      0.32636996693758
  H   -1.89192339544743      0.71732216002128      1.14852448747749
  H   -2.13851286012473     -0.82327882064865      0.59278859761026
  C   -0.17935178208155      1.51946119396847     -0.53766328768875
  N   0.21685577200444      2.61985609927910     -0.65217001119571
  N   1.86382385133507     -0.56834872008367     -0.04201040973393
  H   2.21368038960755      0.37914034435302     -0.10911231867913
  H   1.89622432928825     -0.99219074811715     -0.95979771509052
