13
Coordinates from ORCA-job run
  C   -0.49621003576728      0.10042280865880     -0.33863606998519
  C   1.01387965165250     -0.17626280494981     -0.16266666967671
  Br  -1.40528917647944     -1.54525500184181     -0.89923456129185
  H   1.43025404047755     -0.47196660599081     -1.12784073882116
  H   1.46626278876951      0.78788710677635      0.10436969941400
  N   -1.05697749473049      0.49651386117546      0.93535900096497
  H   -2.06160375215788      0.61297393151772      0.86667562267683
  H   -0.65221307851520      1.38721299455904      1.21070754843375
  C   -0.70304142220631      1.07902943584771     -1.41490198856741
  N   -0.82375462334183      1.91916372530481     -2.22948853102934
  N   1.35710671699656     -1.15344384673507      0.83937191419815
  H   1.08810323883653     -2.07799075879496      0.52793722074573
  H   0.84448314646577     -0.95628484552741      1.69034755293825
