13
Coordinates from ORCA-job run
  C   -0.53468296209298      0.22054611865061     -0.41329808343809
  C   0.91078382020014     -0.30281316376968     -0.19207631766073
  Br  -1.62928069473331     -1.30457651828209     -1.03427468734863
  H   1.27858296691810     -0.71338803368910     -1.13557929636125
  H   1.51822794564066      0.57890887623032      0.04393817892121
  N   -1.19512585487259      0.78296378379838      0.73572457354286
  H   -0.76063457363665      1.66115915723918      0.99858391653073
  H   -1.16179119984724      0.13340046352341      1.51213294484272
  C   -0.51737049391740      1.21215959204627     -1.48880175252584
  N   -0.41978415314849      2.02726781326538     -2.32971460529274
  N   1.09258066339805     -1.27902492380935      0.85177238578394
  H   0.53891766685833     -2.10842441459686      0.68442172150853
  H   0.87957686923338     -0.90817875060648      1.76717102149729
