13
Coordinates from ORCA-job run
  C   -0.61535388621334      0.12316345627057     -0.24380661527821
  C   0.54259754693751     -0.49553909891510      0.57889048268371
  Br  -1.14910466197776     -1.20055678566211     -1.61268808186730
  H   0.14439737145648     -1.40030700683733      1.04991120024086
  H   0.75436280428745      0.22626281804201      1.37712915625585
  N   -1.79022625756984      0.47072361038444      0.51043873974465
  H   -2.07238573385660     -0.30750327606029      1.09580498041961
  H   -1.61162246903243      1.28441663043719      1.08872420903381
  C   -0.12173561794454      1.30539687704296     -0.95201837817821
  N   0.33856038940336      2.26374760081179     -1.45272448351384
  N   1.77142820340575     -0.80962329022955     -0.10127049722967
  H   1.61443285045405     -1.48091971383348     -0.84125037178041
  H   2.19464946064994      0.01973817854889     -0.49814034053082
