13
Coordinates from ORCA-job run
  C   -0.63435711978299      0.00998432401651     -0.26852891049693
  C   0.58378815675458     -0.57596913481761      0.45324713808863
  Br  -1.06898123291516     -1.08475335843658     -1.82727586204685
  H   0.66079285634320     -0.03880096691131      1.41263786317972
  H   0.33657003755590     -1.61499143715036      0.67740369732758
  N   -1.77401500540580     -0.01990512748502      0.62030091017383
  H   -1.59989743972699      0.59326667653160      1.41088720503548
  H   -2.60659655498411      0.30549545586536      0.14271998526057
  C   -0.29927165430278      1.35278414308574     -0.77231633419743
  N   -0.03458899018708      2.45835607032371     -1.07378621014785
  N   1.77113050418172     -0.49516378277519     -0.36916376700189
  H   2.39906276411875     -1.26305430360389     -0.18378779546729
  H   2.26736367835077      0.37275144135699     -0.22133791970757
