13
Coordinates from ORCA-job run
  C   -0.67111161212243      0.07834564370600     -0.32505520381782
  C   0.51219578468603     -0.45008848096205      0.50738088666428
  Br  -1.19861031731774     -1.30911263744285     -1.60763992284805
  H   0.65661929193488      0.28802464529920      1.31338730482062
  H   0.18263623016811     -1.38442552719008      0.97022180725255
  N   -1.84562618098121      0.43501757115337      0.43590534946500
  H   -2.15643515954879     -0.35929959835849      0.98387741237599
  H   -1.63720801669967      1.21138077549529      1.05509391833047
  C   -0.22043274421853      1.24806858263149     -1.08437560012959
  N   0.19434583972819      2.20865171573012     -1.61881735286516
  N   1.68299889436481     -0.68609547127663     -0.30664859778436
  H   2.24794545196126      0.14778056554820     -0.39168558646027
  H   2.25368253804504     -1.42924778433355      0.06835558499637
