13
Coordinates from ORCA-job run
  C   -0.63977534974406     -0.11266083861598     -0.37215642203522
  C   0.63334190115504     -0.92333434847358     -0.05819853034008
  Br  -1.86785447772379     -1.25811489657999     -1.37641593541363
  H   0.30969841267988     -1.79535204507890      0.51417798632399
  H   1.06068939894245     -1.27139220758149     -1.00167917200575
  N   -1.29897752826888      0.27627518471885      0.85572548148520
  H   -2.17888721963206      0.73803890674465      0.65443710597357
  H   -0.70759444001773      0.93915011100833      1.34656297146907
  C   -0.29793741230929      1.02424088477954     -1.24284022074025
  N   0.02449910046057      1.96996039964385     -1.86372361719952
  N   1.64322198668363     -0.21097489159178      0.68912365698213
  H   1.35608138201665     -0.00194523305573      1.63406636825679
  H   1.96349424575757      0.62610897408225      0.22092032724368
