13
Coordinates from ORCA-job run
  C   -0.56819405502941      0.04739465270605     -0.24677832231839
  C   0.59145968230474     -0.67387765094948      0.47227058508590
  Br  -0.76790017152247     -0.70007438790166     -2.05234283735922
  H   0.31746538792949     -1.73057932597162      0.51020532622199
  H   0.59802386068969     -0.29483286894721      1.50200872873746
  N   -1.79729715038943     -0.19175588461966      0.46482909918916
  H   -2.57615757342469      0.28071781955719      0.02071437797853
  H   -1.70921148540447      0.15066672224887      1.41649130705582
  C   -0.22495584312858      1.46747555670865     -0.42488930390186
  N   0.06490093251904      2.60639018809926     -0.47764670078423
  N   1.91310863706548     -0.52303519536965     -0.07816228982551
  H   1.95584693991532     -0.88477145930487     -1.02162540386510
  H   2.20391083847528      0.44628183374417     -0.08707456621457
