13
Coordinates from ORCA-job run
  C   -0.66266844027886     -0.01394885528150     -0.43041209301487
  C   0.53993967920499     -0.90735747512773     -0.04113336641678
  Br  -1.87155621800021     -1.13499767518109     -1.52358577616592
  H   0.98140885963359     -1.32491110347534     -0.94887817320486
  H   0.14108992378560     -1.74250802797787      0.54367804192941
  N   -1.42330464102590      0.53145793726139      0.65988067994918
  H   -1.63352640874569     -0.18027814134522      1.34921114710242
  H   -0.95358141705836      1.31879320422737      1.08781895709924
  C   -0.18826300611399      1.08450403653662     -1.27421311365755
  N   0.27335084735446      1.95980858559702     -1.90790591146184
  N   1.56837161579757     -0.23595206074757      0.71828511791762
  H   2.01449052494990      0.49787610262755      0.18327539911627
  H   1.21424868049687      0.14651347288637      1.58397909080766
