13
Coordinates from ORCA-job run
  C   -0.53148674060786      0.18510826232145     -0.43291262074879
  C   0.93547619352672     -0.24493235346486     -0.16037016323240
  Br  -1.50315290194583     -1.40627194091365     -1.09202076956306
  H   1.36229630382891     -0.62897380643134     -1.09011003298756
  H   1.47635597041259      0.67325336798546      0.09737619193866
  N   -1.26712154982828      0.70182268883926      0.69151766531994
  H   -0.90341791918444      1.60797945826950      0.96626270323967
  H   -1.21541902921034      0.05652026665976      1.47043765475385
  C   -0.54123762030715      1.17834089355271     -1.50719313494101
  N   -0.47819650465479      2.00499821818020     -2.34010162369517
  N   1.14179064391854     -1.20914423975111      0.89013144284958
  H   0.88284343627455     -0.85031702619184      1.79836859339034
  H   0.64226971777739     -2.06938378905553      0.70861409367597
