13
Coordinates from ORCA-job run
  C   -0.66566512815967      0.00057420648411     -0.42622788817127
  C   0.53862322565120     -0.90563445972918     -0.07389726838438
  Br  -1.88187820432417     -1.08334498484356     -1.54864970177390
  H   0.97486820575133     -1.29241665922963     -0.99765276565104
  H   0.14306398594780     -1.75979242879251      0.48508458691627
  N   -1.41948314338434      0.50996104471448      0.68608371584931
  H   -0.94709857406307      1.28314395315449      1.13639033522566
  H   -1.62441869026587     -0.22398886809212      1.35340768585033
  C   -0.19574697882453      1.12559918885663     -1.23678245046883
  N   0.26729416051504      2.01856306725012     -1.84429284590782
  N   1.57213215838142     -0.25998477042007      0.70137305884735
  H   2.01536404883620      0.49038377992354      0.18717798245237
  H   1.22194493393865      0.09593693072370      1.57998555521596
