16

C	-0.466787	-0.024411	-1.445485
C	0.0	0.0	0.0
Br	0.127448	1.653322	-2.436166
H	1.093599	0.0	0.0
H	0.077869	-0.801005	-1.984665
N	-1.873839	-0.221536	-1.583963
H	-2.139332	-0.262382	-2.559728
H	-2.372492	0.546844	-1.152973
N	-0.358984	-1.287432	0.621268
H	0.441047	-1.903796	0.51427
H	-1.157122	-1.693802	0.147419
C	-0.553548	1.145931	0.82779
H	-1.636362	1.054705	0.982865
H	-0.078833	1.098423	1.80934
H	-0.329302	2.117193	0.381841
H	2.946436	0.0	0.0
