16

C	-0.412794	-0.019293	-1.47028
C	0.0	0.0	0.0
Br	-0.038422	1.686424	-2.383615
H	1.095958	0.0	0.0
H	0.250602	-0.718702	-1.993918
N	-1.837079	-0.283948	-1.673951
H	-2.003331	-1.246905	-1.399547
H	-2.041874	-0.222652	-2.665276
N	-0.346563	-1.273873	0.644049
H	-1.29984	-1.566343	0.471549
H	0.305755	-1.988906	0.345372
C	-0.571533	1.149554	0.804876
H	-0.199893	2.108564	0.441547
H	-1.666253	1.160819	0.768226
H	-0.249376	1.022631	1.839829
H	2.979018	0.0	0.0
