16

C	-0.583773	-0.022718	-1.403651
C	0.0	0.0	0.0
Br	0.002676	-1.710235	-2.381705
H	1.094744	0.0	0.0
H	-1.660335	-0.264359	-1.331702
N	-0.282757	1.091532	-2.217927
H	-0.095284	1.910338	-1.671672
H	-0.953681	1.264093	-2.94342
N	-0.399809	-1.157498	0.804335
H	0.320218	-1.851095	0.696369
H	-1.274108	-1.559432	0.395382
C	-0.461472	1.274676	0.7109
H	-0.171514	1.177766	1.755834
H	-1.552221	1.41609	0.666906
H	0.040959	2.165902	0.317934
H	2.967467	0.0	0.0
