16

C	-0.618046	-0.029547	-1.379111
C	0.0	0.0	0.0
Br	0.089689	-1.528158	-2.456428
H	1.100496	0.0	0.0
H	-1.674176	-0.309108	-1.267226
N	-0.389305	1.18212	-2.142092
H	-0.746335	1.054914	-3.082513
H	-0.916195	1.932289	-1.703631
N	-0.517896	-1.170253	0.743303
H	-0.082157	-1.986746	0.320016
H	-0.093857	-1.114341	1.665692
C	-0.445968	1.263407	0.723972
H	-1.538303	1.359112	0.749472
H	0.005993	2.144098	0.264213
H	-0.081973	1.228435	1.753687
H	3.057128	0.0	0.0
