16
Coordinates from ORCA-job run
  C   -0.56098160165605      0.06982602981688      0.33679787871654
  C   0.94503460315928     -0.15759605465516      0.23850694027394
  Br  -0.94307836263797      1.70016159308375      1.31997552439674
  H   1.08079104797377     -1.15715748245698     -0.18633022672352
  H   1.33196912220053     -0.17843131653098      1.26124051910261
  N   -1.06872181931529      0.20729945857707     -1.10018110732017
  O   -0.97151939138434     -0.83089194812647     -1.75212221415196
  O   -1.46804545658427      1.28255946185701     -1.52126725629142
  C   -1.29835120253928     -1.08421663178538      0.99047007062130
  H   -0.94488911150694     -1.19957258356626      2.01589689891900
  H   -1.10480016464222     -2.00166664920930      0.43388793082289
  H   -2.37296953607590     -0.89522808922568      1.01240514410147
  C   1.69398895359701      0.86967135993472     -0.60134655477037
  H   2.76564177748846      0.66352990451522     -0.56721031050065
  H   1.38480900062559      0.82812894913201     -1.64798255538389
  H   1.53112214129762      1.88358399863955     -0.23374068181251
