16
Coordinates from ORCA-job run
  C   -0.70397044038210      0.29733013667133      0.32336841085090
  C   0.74028698600278      0.81052058799560      0.26584829308241
  Br  -1.66844839014050      1.36478801095849      1.63685593941001
  H   1.04265451438765      0.95499864029128      1.30627741033510
  H   0.72489971881015      1.80676445648612     -0.18768789906007
  N   -1.38005689806340      0.48218629507442     -1.04004632766045
  O   -0.74290017120150      0.00734500379376     -1.97848468829728
  O   -2.47732721578377      1.01312274653012     -1.12263636258153
  C   -0.84279163262243     -1.17248988802698      0.67399985250141
  H   -0.36159242271905     -1.36677517612047      1.63375219547407
  H   -1.89630246555632     -1.44683755912709      0.74863117562117
  H   -0.36722501759285     -1.77969051935890     -0.09785159576053
  C   1.77454215837105     -0.08182049450455     -0.41876343331974
  H   1.52979379620311     -0.27316017062967     -1.46049274980247
  H   2.74433939178001      0.42034827891201     -0.38005286348975
  H   1.88409808850716     -1.03663034894547      0.09928264269674
