15
Coordinates from ORCA-job run
  C   0.95273327170544     -0.10151114612141     -0.15891157573062
  C   -0.35042309666257      0.09774555095218      0.64268368050085
  Cl  2.32083480708543     -0.65997311219846      0.79309839541159
  H   -0.09526089812715      0.59557860142484      1.58079487762978
  C   0.71782454622369     -0.95841175078401     -1.31079784521266
  N   0.45028118970075     -1.67203752586304     -2.20640653792911
  N   1.30707807573535      1.32689344138840     -0.65164931735709
  O   1.51870242428733      2.13285553230038      0.23670933142210
  O   1.32552383686603      1.50953511726856     -1.85702507803763
  N   -0.93831044699036     -1.27457816719694      1.05009852257727
  O   -0.15964853652517     -2.15765228995081      1.38366330912125
  O   -2.16162489128155     -1.34422706014061      1.04386791498641
  N   -1.24487701995454      0.87862283117256     -0.12015880485829
  H   -1.97736313759945      1.27522788257774      0.45084564648049
  H   -1.66647012446323      0.35193209517062     -0.87581251900434
