15
Coordinates from ORCA-job run
  C   0.86978355141134     -0.11541317264723     -0.27469835714895
  C   -0.33607708900334      0.10261795440923      0.65199052381871
  Cl  2.18351928812585     -0.96795310542331      0.52894586808154
  H   0.00732739535755      0.64570172699162      1.53142979832066
  C   0.49989732019378     -0.78603018724558     -1.51068469743439
  N   0.19252465461790     -1.35413074115815     -2.49321541794418
  N   1.36454567191184      1.31532973016517     -0.61318923142827
  O   1.44871075832158      1.60793409934442     -1.79408113449318
  O   1.62391220122287      2.01141759540647      0.35396912393625
  N   -0.79276594005966     -1.25957495265195      1.16665786560930
  O   -1.48510624398727     -1.92139467366295      0.39659426157576
  O   -0.44867960637085     -1.57213621156271      2.30185407722229
  N   -1.32641089156573      0.81452283821046     -0.06186821638047
  H   -1.99843381037449      1.25226695639723      0.55323008494706
  H   -1.80274725980136      0.22484214342728     -0.73493454868213
