15
Coordinates from ORCA-job run
  C   0.66293242429908      0.40368965309883     -0.26886707135832
  C   -0.49330519359090     -0.41403820967998      0.39063788876189
  Cl  0.42590381766926      2.12663022276940     -0.06906991208622
  H   -0.37131357037883     -1.44726494694668      0.06031161189647
  C   1.91297466084431     -0.01808251583408      0.34641139577047
  N   2.89137414046787     -0.37529363708634      0.89221329564810
  N   0.75655061904684      0.02032964429352     -1.77419536442912
  O   1.03188655100789     -1.15888824966745     -1.94187027915276
  O   0.54577275206678      0.87545358844457     -2.61018104814686
  N   -1.77730875089422      0.07971491747308     -0.24579361057686
  O   -2.52481634082932      0.76548740672482      0.43670575644512
  O   -1.92951252253885     -0.23414979038884     -1.42354056383346
  N   -0.59741613194882     -0.34202575119163      1.79408655285068
  H   -0.64826069696171      0.60266434204993      2.14846038634461
  H   0.11353824174063     -0.88322667405916      2.26469096186627
