15
Coordinates from ORCA-job run
  C   0.88615140216871      0.17443940646752     -0.11435500972594
  C   -0.35834669547387     -0.15534201789445      0.76227375243836
  Cl  1.89191885830688      1.31792028459277      0.78843391202875
  H   0.02300892471886     -0.65032368954826      1.65698257785384
  C   1.63767038415197     -1.03920397662817     -0.39141816665859
  N   2.21300966628541     -2.05677582369302     -0.52066465351552
  N   0.52779657320718      0.85366554025498     -1.44872707483841
  O   -0.21374676790586      1.82149387505629     -1.36628361199518
  O   1.04081098880310      0.39749533365972     -2.45577375037768
  N   -1.14311755402898     -1.22894515344572      0.03104837546207
  O   -1.61713273890198     -2.12515461478630      0.71439894440107
  O   -1.27672704192254     -1.07179099929904     -1.18134906911911
  N   -1.24486790675266      0.88260912026689      1.12085830630715
  H   -1.01009128649412      1.30212358504983      2.00653090945797
  H   -1.35533680616211      1.57878912994695      0.39804455828122
