15
Coordinates from ORCA-job run
  C   1.00525213313821      0.05207932822736     -0.07599523549689
  C   -0.28300582083375     -0.03763104395548      0.78331831382496
  Cl  2.24483645702850      0.86198961223123      0.86560980497920
  H   0.02301991102909     -0.40266086849097      1.76413394618840
  C   1.52454482944118     -1.20817073825983     -0.58769455291692
  N   2.01161140633656     -2.18132376064999     -1.03349412420565
  N   0.64017657235492      0.89972732915568     -1.32213579687857
  O   -0.29006310857008      0.41133624137673     -1.95364959731303
  O   1.25448193309452      1.91994170915619     -1.55693299670352
  N   -1.21017182971270     -1.15101102977696      0.26119480738243
  O   -2.29387676317410     -0.81636329915387     -0.19884492725187
  O   -0.78790290556560     -2.29334428423790      0.40252672641638
  N   -0.89746343494469      1.22850815705676      0.86714691802161
  H   -1.43822310431875      1.32442092106049      1.71467153417125
  H   -1.50321627530332      1.39150172626056      0.07114517978223
