15
Coordinates from ORCA-job run
  C   0.75088210028689      0.36001327668947     -0.31687963183266
  C   -0.39505950261221     -0.33572494091277      0.44754631995168
  Cl  0.58315516166486      2.11610959420125     -0.41424208417012
  H   -0.19105128628281     -1.40850385364172      0.43441599276766
  C   1.99519181035600      0.02740698186987      0.36695644731119
  N   2.98943864758562     -0.26588705963159      0.92082324883710
  N   0.86904409630633     -0.15325442706763     -1.76497234860843
  O   1.98198231465994     -0.10381586612593     -2.26391687886478
  O   -0.17130257631752     -0.52187157487672     -2.29179644285090
  N   -1.75386988561475     -0.20911385390496     -0.23392657969204
  O   -2.31554790451112     -1.25770026492493     -0.52770202850036
  O   -2.21230133643450      0.92410179396169     -0.33197403578800
  N   -0.41107878418887      0.16116866443786      1.77632103545636
  H   -0.77817766563883      1.10468660682275      1.80919812375489
  H   -0.94130518925904     -0.43961507689664      2.39314886222841
