15
Coordinates from ORCA-job run
  C   0.88777551633275     -0.07385302814829     -0.23465186672515
  C   -0.36751882121747      0.10944593076040      0.63211158752112
  Cl  2.21463828161045     -0.80866201143631      0.65854256243763
  H   -0.09446659866120      0.70980853295481      1.49890012366675
  C   0.61025429671556     -0.81825002984656     -1.45233610724804
  N   0.35438261169516     -1.43861925511455     -2.41786051040786
  N   1.31040063404409      1.36852628334670     -0.61855732923632
  O   1.48412993816842      2.12116947201991      0.32507374451912
  O   1.43071573968073      1.61322239677887     -1.80718317480664
  N   -0.76390151536257     -1.25465232729379      1.19064592008553
  O   -1.38561692719266     -1.98938602399413      0.42651256220104
  O   -0.44708462511155     -1.49700967252649      2.35059518439788
  N   -1.36737260396453      0.72754074245908     -0.15224853734509
  H   -1.77861410952710      0.08070699669659     -0.81568825265781
  H   -2.08972181721008      1.14901199334377      0.41514409359784
