15
Coordinates from ORCA-job run
  C   0.84980517907220     -0.12394012065001     -0.22614179647511
  C   -0.39006198070742      0.00792297737991      0.69588850015756
  Cl  2.18788367287505     -0.93116565243197      0.58405159199914
  H   -0.06211654442032      0.49712194840585      1.61178213086602
  C   0.54557031781878     -0.76572561167049     -1.49362749749398
  N   0.27728828098349     -1.28637983613864     -2.51340366400624
  N   1.26473607682250      1.34090715658675     -0.50462144982043
  O   1.28503422434057      1.70739122514980     -1.67027107152007
  O   1.50081918352605      2.00903719987354      0.49082910036863
  N   -0.81756581794297     -1.38364764114707      1.08699370579962
  O   -1.41362522899453     -2.01923541564538      0.22237343492213
  O   -0.54710601217458     -1.75507607469144      2.22371597248665
  N   -1.49746960867522      0.67621722568644      0.12244210626875
  H   -1.75185575817480      0.34524293477659     -0.79808838335022
  H   -1.43133598434879      1.68132968451612      0.16907731979756
