15
Coordinates from ORCA-job run
  C   0.96155568670807      0.15273778581738     -0.11939350668681
  C   -0.27458092033221     -0.12156063161167      0.76737002034036
  Cl  2.02024847173060      1.33497009198281      0.65845066497351
  H   0.04997082942681     -0.80230226171880      1.56026545086300
  C   1.72504674866097     -1.06273357051934     -0.36725874235932
  N   2.34891835578108     -2.05345265062797     -0.47005789085024
  N   0.54256906207072      0.76230922497681     -1.46679165317467
  O   -0.47862271059168      1.43713874367311     -1.44764835115781
  O   1.28655300451857      0.56806581663721     -2.41168694246282
  N   -1.25769146701207     -0.98631406125017     -0.06561045029836
  O   -0.84928429976664     -1.50265377004229     -1.10119526139940
  O   -2.37554788300703     -1.10473855929219      0.41746228478844
  N   -0.86740611687976      1.01542516635477      1.33954016433654
  H   -1.52485238745259      0.75918274105709      2.06135276221527
  H   -1.30687637385484      1.60392593456325      0.64620145087232
