15
Coordinates from ORCA-job run
  C   0.95887117076635      0.14361781304836     -0.13069476343805
  C   -0.26693486527017     -0.13125030493448      0.76832127279203
  Cl  2.04673191894452      1.29040577348782      0.66039252913190
  H   0.06421089667405     -0.82067661322710      1.55097151024918
  C   1.70025148063886     -1.07737428152166     -0.41698379750087
  N   2.32862378253008     -2.06141940716359     -0.55191064427283
  N   0.53343780566516      0.78970298391558     -1.45869002245736
  O   -0.48742811666074      1.46393205800367     -1.41869876781395
  O   1.27480016671608      0.62151889853435     -2.41076121413966
  N   -1.26680256088556     -0.98230788441645     -0.05760675644750
  O   -0.88702785522590     -1.46822449483468     -1.11869844901882
  O   -2.37009041954233     -1.11800755213486      0.45389791910165
  N   -0.84561197625779      1.00347097716684      1.35986679201160
  H   -1.49230842272592      0.74393706556668      2.09015738272723
  H   -1.29172300536668      1.60167496850952      0.67943700907542
