15
Coordinates from ORCA-job run
  C   0.74289989708682      0.36952400115994     -0.24394387967653
  C   -0.43255456400719     -0.39208319325612      0.39516995357934
  Cl  0.55041926482895      2.10059333475573     -0.03653671386920
  H   -0.37227208421612     -1.43146111367142      0.06635129599438
  C   1.99372914117158     -0.08335470700018      0.34890134310518
  N   3.01990015339008     -0.43987951945569      0.79827885171070
  N   0.83973415463708     -0.00207392628647     -1.75855479483226
  O   0.81444210844998      0.88951919863273     -2.58115239309049
  O   0.96049254807472     -1.20370919270481     -1.94015145773323
  N   -1.72747134874348      0.14812532954692     -0.24535183286852
  O   -2.56913984496478      0.62232375195797      0.50647657623962
  O   -1.80494911259594      0.04392636858229     -1.46467056759173
  N   -0.38793853993956     -0.28817997858702      1.79597306051306
  H   -0.64311888908138      0.63731100194111      2.11559944149296
  H   -0.98317288409075     -0.97058135561496      2.24261111702674
