15
Coordinates from ORCA-job run
  C   0.52578524807957      0.35151352434766     -0.52529289019875
  C   -0.37486784911884     -0.23565738709841      0.60792817867826
  Cl  -0.25952673929562      1.68570010590763     -1.34268812696920
  H   0.09718965377144     -1.16585014727508      0.92951839876410
  C   1.77584526318720      0.78439281929383      0.08272761167514
  N   2.75411787665373      1.13800667728526      0.63096154230360
  N   0.88640315260116     -0.78542050041173     -1.52413096038198
  O   0.50411109209880     -0.69824817899540     -2.67334340806129
  O   1.53296836630830     -1.68167432021317     -1.00150680794722
  N   -1.67978506609128     -0.63490279024958     -0.05209725447558
  O   -1.60868167156834     -1.60399237917954     -0.80359171824952
  O   -2.66917595204150      0.04368910351602      0.18354818495741
  N   -0.63363728521264      0.60524009937842      1.70842417406734
  H   0.15911931975395      0.69003680889528      2.32806897005419
  H   -1.00886540912593      1.50716656479880      1.45047410578350
