15
Coordinates from ORCA-job run
  C   0.84757451884862     -0.10677470173534     -0.24189489645409
  C   -0.37360502646477      0.02602886164787      0.70432478151524
  Cl  2.22990946471096     -0.83738996846032      0.56728639631059
  H   -0.04057703516817      0.56379069784810      1.59068889194642
  C   0.53411487539426     -0.81165683957227     -1.47318169487363
  N   0.25820055366635     -1.38466164608136     -2.46238268809842
  N   1.20913657614391      1.35663879793283     -0.59203290158675
  O   1.18898749769151      1.67364887663942     -1.77212946315647
  O   1.44816004333480      2.07350930316118      0.36817241972612
  N   -0.74638076138986     -1.36033488959650      1.16468716117346
  O   -0.43677205923143     -1.67356399589604      2.30896164229468
  O   -1.34175405250439     -2.05113927111882      0.34308442676429
  N   -1.51520216955335      0.63378376733807      0.13065055632397
  H   -1.48093680072655      1.64154050701542      0.13330894630786
  H   -1.77985562475189      0.25558050087777     -0.76854357819329
