15
Coordinates from ORCA-job run
  C   0.98430054690002      0.08263125599680     -0.13445395293974
  C   -0.22500656286115     -0.05600094633090      0.82229214701906
  Cl  2.20327449539438      1.12757311013099      0.57618051174397
  H   0.10036319601349     -0.65105808789764      1.67754314938006
  C   1.57015736775689     -1.21302393010024     -0.44753379119046
  N   2.08047415332990     -2.25422646263617     -0.64186987781592
  N   0.47923153374113      0.71783494523125     -1.45558171125066
  O   0.18944366521174      1.90229465712208     -1.40369925137326
  O   0.37119069884749     -0.03870707608693     -2.40941610252314
  N   -1.22880594173141     -0.97325990714567      0.08715869140831
  O   -1.13038863737085     -2.17859164991689      0.29205958955715
  O   -2.04712483124894     -0.40892923646626     -0.63356018663064
  N   -0.75853112403507      1.17575963859890      1.22677551570513
  H   -1.42332019713107      1.06510983043117      1.97905644799229
  H   -1.16325836281655      1.70259385906949      0.46504882091784
