15
Coordinates from ORCA-job run
  C   1.00722962833222      0.03928617502971     -0.06094272976659
  C   -0.29551895847525     -0.02149100241458      0.77906608449971
  Cl  2.24044225850670      0.85234995848462      0.88606892934825
  H   -0.00891527522924     -0.37361573699496      1.77045199792200
  C   1.52102284962720     -1.23494611644365     -0.54244150155447
  N   2.00447301659158     -2.22051712045621     -0.96423153489858
  N   0.67035722213455      0.86962331013746     -1.32709434188641
  O   1.29655766583532      1.88129445974045     -1.56687179904826
  O   -0.25363654252928      0.37923036246500     -1.96597551705428
  N   -1.22730026736901     -1.13206103496967      0.26072337900745
  O   -2.29955462312339     -0.79206927990780     -0.22214707209006
  O   -0.82185839662420     -2.27709825720399      0.42722952344320
  N   -0.89626116246900      1.25303104892238      0.83179243664999
  H   -1.49006983505452      1.40749945173392      0.02520865154586
  H   -1.44696758015370      1.37048378187731      1.67016349388218
