15
Coordinates from ORCA-job run
  C   0.91762448355273      0.06758513152603     -0.13258705092339
  C   -0.32539851408570     -0.10020209955822      0.80650215045588
  Cl  2.06277460412588      1.15186640802792      0.65510581294759
  H   0.02867332879783     -0.63715731761779      1.68736932072220
  C   1.55043219915262     -1.21154030090638     -0.40781478547444
  N   2.06613404480064     -2.25821454832945     -0.55593069460250
  N   0.46866368023555      0.70030241120078     -1.46298671917408
  O   0.10585326163748      1.86518549525136     -1.40120005085052
  O   0.47386406551629     -0.03054738509155     -2.44222323836216
  N   -1.26059125075489     -1.04906262002781      0.09122387456254
  O   -1.25084719354939     -2.22264873909307      0.44609960405249
  O   -1.94576649289043     -0.54659022855199     -0.79461300673128
  N   -1.05142293594082      1.05135103149866      1.18050011150290
  H   -1.24121480071213      1.66761464949456      0.40175237094751
  H   -0.59777847988567      1.55305811217695      1.92980230092726
