15
Coordinates from ORCA-job run
  C   0.92074010022986      0.06816815086023     -0.10380680803786
  C   -0.34983815070615     -0.12502925018034      0.79110072881782
  Cl  2.04873544523864      1.11261262101997      0.75929148098652
  H   -0.02318794361478     -0.68745841182977      1.66663129790306
  C   1.54913192861189     -1.20741384625129     -0.40469612421650
  N   2.05213712111709     -2.25724471395804     -0.57279355068031
  N   0.52518183839923      0.75532242113889     -1.42497920170741
  O   0.58591393716167      0.07175930565240     -2.43550979625519
  O   0.14929192765548      1.91350022224677     -1.32725319172799
  N   -1.26474183177564     -1.05152022635495      0.02309920719221
  O   -1.31269156674841     -2.22272346033192      0.38210925307525
  O   -1.88206811009301     -0.53235358207558     -0.90237783666241
  N   -1.08820366266727      1.01526555972686      1.17643313835631
  H   -1.24556081753076      1.65816273221612      0.41210198229492
  H   -0.66384021527784      1.48995247812064      1.95964942066158
