15
Coordinates from ORCA-job run
  C   0.94821844063712      0.17599986792263     -0.16901770867159
  C   -0.23447135323186     -0.11613346040994      0.78257066908446
  Cl  2.00905128246721      1.40174132161277      0.53471906899252
  H   0.14817970263308     -0.77313778063914      1.56965433065154
  C   1.73480889790690     -1.02110837330026     -0.43433699702677
  N   2.40313823326735     -1.98026251622819     -0.55593717075123
  N   0.44540357946099      0.74769346512490     -1.50421191487519
  O   -0.59684617371359      1.38749143040354     -1.44738345461156
  O   1.15097316275085      0.56285728457240     -2.48003218605651
  N   -1.23188931096819     -1.02222667696647      0.01373762034572
  O   -2.32641305208630     -1.15166417500668      0.54483952852751
  O   -0.85401024421498     -1.55748585591056     -1.02379586565011
  N   -0.83000414783700      1.01473417578999      1.36413592379629
  H   -1.44593421323823      0.75413215812370      2.12012967922946
  H   -1.31820480383335      1.57836913491130      0.68292847701547
