15
Coordinates from ORCA-job run
  C   0.77865822009773      0.30974201046209     -0.21579497388582
  C   -0.46518426509322     -0.42206279629658      0.32036872882060
  Cl  0.90883418723550      1.91263116089335      0.48482787992064
  H   -0.60745701732418     -1.31997545237865     -0.28428836144095
  C   1.96834458051012     -0.47800912703987      0.07586832387365
  N   2.94536558058920     -1.09821238011650      0.28214806319897
  N   0.70059231701168      0.38910109442337     -1.77449060439092
  O   0.60460471216168     -0.71106775495088     -2.29594154677500
  O   0.76350733198819      1.47717801202245     -2.30764271532470
  N   -1.68730137651222      0.46381189977845      0.00435784535364
  O   -1.87176494675052      0.71862780731185     -1.18090103207621
  O   -2.37457928239912      0.82813990249020      0.94964831239405
  N   -0.30831530737085     -0.73471682543037      1.68128166912640
  H   -0.98257615654053     -1.42030485778400      1.99000412188505
  H   -0.37272857760347      0.08611730661509      2.26955428932061
