15
Coordinates from ORCA-job run
  C   0.97051298747331      0.11322867936957     -0.06429251506407
  C   -0.33001386277901     -0.05236271485512      0.75440474944770
  Cl  2.01642017736891      1.32184501037549      0.68998505831608
  H   -0.08287161665987     -0.67747485212122      1.61791266880971
  C   1.70718358698129     -1.13945764279723     -0.16511552535467
  N   2.32354745027342     -2.14014314824093     -0.15130079374838
  N   0.66211053184917      0.62524108785472     -1.48050750359771
  O   -0.33786309349699      1.32370644475834     -1.58506651013112
  O   1.46298898159217      0.34004588807674     -2.35306944215536
  N   -1.28545591464900     -0.95115122425827     -0.07495639820962
  O   -0.82398026322809     -1.56929556386065     -1.02933648612020
  O   -2.43941019962872     -0.98847399972695      0.32977376563529
  N   -0.91903065959882      1.14362912759407      1.19463068453935
  H   -1.63104716938405      0.96604820649021      1.88770442358506
  H   -1.29109093611372      1.68761470134120      0.42923382404794
