15
Coordinates from ORCA-job run
  C   0.58496278426490      0.49316000872266     -0.29691781296634
  C   -0.41941146119507     -0.46553648538999      0.41887100401272
  Cl  0.04545867883675      2.15718171370261     -0.22640798715239
  H   -0.11348487291575     -1.48216275585496      0.16515961128549
  C   1.88009099119972      0.34540752748515      0.35125857565695
  N   2.89776133261803      0.20822988037530      0.92427243392535
  N   0.76866357902150      0.02405700205690     -1.76898804704934
  O   1.24772135073043     -1.09794503363660     -1.84762893285547
  O   0.42747935162315      0.76673164485355     -2.66711774142929
  N   -1.76066097424294     -0.25140278698058     -0.25419648349525
  O   -1.83793327776279     -0.66918540639101     -1.40667388665770
  O   -2.62655368776132      0.33921335655323      0.37516844152650
  N   -0.55451029579309     -0.31250207671656      1.81309713946834
  H   -0.77126305346848      0.63220429462875      2.09792525029931
  H   0.23167955484495     -0.68845088340843      2.32317843543113
