15
Coordinates from ORCA-job run
  C   0.84329009739757     -0.11954325319248     -0.34679193032720
  C   -0.27781865541166      0.12120386671154      0.67572379865935
  Cl  2.22749869001792     -0.94417505081088      0.36179760430103
  H   0.13789814616947      0.69050771557594      1.50600000929716
  C   0.36990119114300     -0.82803298482633     -1.52521628382869
  N   -0.02029808135672     -1.42606623429860     -2.45940879275729
  N   1.29716580424958      1.30178035867655     -0.76907127238765
  O   1.63673109457314      2.02699065016729      0.15083288741272
  O   1.27588570892451      1.55971925737004     -1.96086234729735
  N   -0.67910922513890     -1.22730342084964      1.26809428203468
  O   -1.43229790362568     -1.91406642387883      0.58152507589593
  O   -0.23502681223784     -1.50452943858133      2.37744304842442
  N   -1.33146626284285      0.80794929431118      0.03153041531269
  H   -1.95018193782917      1.26058876841392      0.69026970421997
  H   -1.86117185403238      0.19697689521162     -0.57986619895974
