15

C	-0.403801	-0.016123	-1.455126
C	0.0	0.0	0.0
Cl	-0.149501	-1.602386	-2.186055
H	1.093961	0.0	0.0
H	0.173757	0.708885	-2.023779
N	-1.85353	0.354965	-1.671984
O	-2.643577	0.121932	-0.759442
O	-2.139122	0.840444	-2.762908
N	-0.423834	-1.085988	0.797714
H	0.264833	-1.230823	1.524306
H	-1.327509	-0.914137	1.212727
N	-0.345702	1.328489	0.536203
O	-0.338307	2.282767	-0.257046
O	-0.501069	1.438217	1.757012
H	2.521275	0.0	0.0
