15

C	-0.490136	-0.070886	-1.428443
C	0.0	0.0	0.0
Cl	-2.266287	-0.2794	-1.546142
H	1.090894	0.0	0.0
H	-0.030731	-0.946921	-1.882717
N	-0.062105	1.078333	-2.321202
O	-0.834405	2.00222	-2.535985
O	1.073493	0.953839	-2.768113
N	-0.334651	-1.142374	0.767369
H	-1.180876	-1.619492	0.500681
H	0.47121	-1.753889	0.812084
N	-0.462687	1.262748	0.636539
O	-0.043861	2.295262	0.102722
O	-1.164439	1.227708	1.647112
H	2.566538	0.0	0.0
