15

C	-0.495931	-0.066509	-1.425082
C	0.0	0.0	0.0
Cl	-2.28156	-0.197083	-1.535692
H	1.090896	0.0	0.0
H	-0.079834	-0.967964	-1.868344
N	-0.0183	1.043345	-2.341771
O	1.100852	0.845804	-2.80477
O	-0.739709	2.005632	-2.562077
N	-0.341017	-1.140063	0.767454
H	0.459128	-1.758388	0.806941
H	-1.192615	-1.609846	0.504713
N	-0.455794	1.265083	0.63439
O	-0.030293	2.293809	0.098927
O	-1.160524	1.235555	1.642886
H	2.555905	0.0	0.0
