15

C	-0.694711	0.046712	-1.352728
C	0.0	0.0	0.0
Cl	-0.080253	1.285325	-2.445079
H	1.08916	0.0	0.0
H	-1.771022	0.191225	-1.244421
N	-0.572292	-1.311026	-2.001395
O	-1.597626	-1.988739	-1.99311
O	0.509917	-1.640275	-2.459357
N	-0.391248	-1.184801	0.686978
H	-1.271441	-1.069796	1.172356
H	0.352667	-1.42369	1.335282
N	-0.458118	1.256121	0.712407
O	-1.45823	1.168306	1.439765
O	0.1815	2.288174	0.528185
H	2.670975	0.0	0.0
