15

C	-0.415445	-0.022016	-1.447957
C	0.0	0.0	0.0
Cl	-0.159863	-1.607067	-2.179584
H	1.094024	0.0	0.0
H	0.146357	0.705163	-2.026911
N	-1.871566	0.336468	-1.652625
O	-2.651284	0.103836	-0.731766
O	-2.176265	0.816158	-2.741155
N	-0.409157	-1.089919	0.805296
H	0.301684	-1.238907	1.512408
H	-1.300141	-0.910133	1.246661
N	-0.345664	1.325324	0.538067
O	-0.364827	2.278813	-0.257781
O	-0.474223	1.439585	1.762422
H	2.517195	0.0	0.0
