15

C	-0.587543	-0.026091	-1.404242
C	0.0	0.0	0.0
Cl	0.081971	1.239473	-2.428536
H	1.089078	0.0	0.0
H	-1.669626	0.079853	-1.390459
N	-0.340615	-1.382978	-2.005467
O	0.766788	-1.654259	-2.43903
O	-1.309701	-2.147899	-1.959404
N	-0.40415	-1.092874	0.8236
H	0.377547	-1.730018	0.913951
H	-1.246637	-1.562919	0.527255
N	-0.552672	1.263831	0.622183
O	-1.779336	1.410846	0.562988
O	0.218294	2.035158	1.178121
H	2.723743	0.0	0.0
