12

C	0.0	0.0	0.0
C	-0.502614	-0.270627	-1.429289
Br	1.960292	0.0	0.0
H	-1.605916	-0.267448	-1.35434
H	-0.178339	0.549214	-2.074226
C	-0.4166	1.328992	0.45287
N	-0.568834	2.445985	0.788374
C	-0.398586	-1.048456	0.941722
N	-0.588656	-1.896892	1.733268
C	-0.019769	-1.54087	-1.95154
N	0.350779	-2.565642	-2.388488
Br	-3.480494	0.0	0.0
