12

C	0.0	0.0	0.0
C	-0.2085	0.250043	-1.536504
Br	1.963035	0.0	0.0
H	0.338134	-0.557014	-2.032575
H	0.342736	1.171203	-1.750753
C	-0.42537	1.107446	0.851915
N	-0.489015	2.067835	1.530123
C	-0.423483	-1.31992	0.459751
N	-0.494998	-2.442412	0.807436
C	-1.492465	0.372011	-2.233095
N	-2.170594	0.541787	-3.183861
Br	-3.119724	0.0	0.0
