12

C	0.0	0.0	0.0
C	-0.208646	0.104289	-1.556672
Br	1.950772	0.0	0.0
H	0.344184	-0.743809	-1.97367
H	0.339078	1.002986	-1.855337
C	-0.441131	1.171042	0.755545
N	-0.527087	2.164661	1.38182
C	-0.428009	-1.272322	0.575179
N	-0.494795	-2.357103	1.027977
C	-1.491573	0.139614	-2.263339
N	-2.165682	0.173643	-3.230554
Br	-3.135122	0.0	0.0
