12

C	0.0	0.0	0.0
C	-0.498302	0.184671	-1.446398
Br	1.949262	0.0	0.0
H	-1.602089	0.163038	-1.378235
H	-0.172316	1.165869	-1.802221
C	-0.414189	1.130284	0.835526
N	-0.571344	2.094175	1.490023
C	-0.410665	-1.285936	0.569449
N	-0.574566	-2.359409	1.020315
C	-0.007955	-0.855537	-2.338614
N	0.371511	-1.680731	-3.083172
Br	-3.466931	0.0	0.0
