12

C	0.0	0.0	0.0
C	-0.490904	0.297646	-1.428444
Br	1.960173	0.0	0.0
H	-1.594105	0.278986	-1.364041
H	-0.155919	1.300218	-1.707407
C	-0.408903	1.063482	0.920819
N	-0.560886	1.968297	1.656095
C	-0.408983	-1.325139	0.470119
N	-0.564492	-2.42926	0.842889
C	-0.006086	-0.674983	-2.396468
N	0.367926	-1.442545	-3.202822
Br	-3.454981	0.0	0.0
