12

C	0.0	0.0	0.0
C	-0.208123	-0.216671	-1.543766
Br	1.963076	0.0	0.0
H	0.307102	-1.155712	-1.769189
H	0.375672	0.576198	-2.019843
C	-0.428453	1.308948	0.482448
N	-0.49366	2.425349	0.854574
C	-0.422816	-1.121825	0.831708
N	-0.507373	-2.084014	1.505199
C	-1.489876	-0.259534	-2.254274
N	-2.150751	-0.341168	-3.228337
Br	-3.110472	0.0	0.0
