17

C	-0.414153	-0.109925	-1.440543
C	0.0	0.0	0.0
F	-1.795877	-0.269973	-1.576754
H	1.091829	0.0	0.0
H	-0.377974	0.941496	0.404782
N	-0.162932	1.244194	-2.111012
O	-0.821513	2.188094	-1.681517
O	0.64945	1.308464	-3.029137
C	0.29114	-1.196773	-2.20218
H	0.040599	-1.153348	-3.262808
H	-0.029493	-2.158344	-1.797889
H	1.368937	-1.085755	-2.05362
C	-0.479775	-1.180198	0.837671
H	-1.564075	-1.31383	0.793833
H	0.005571	-2.107715	0.525511
H	-0.191731	-1.012135	1.878424
H	2.973398	0.0	0.0
