17

C	-0.459615	-0.090126	-1.434046
C	0.0	0.0	0.0
F	-1.774471	-0.527692	-1.511848
H	1.091948	0.0	0.0
H	-0.307508	-0.951421	0.451003
N	-0.489119	1.310742	-2.039848
O	0.575381	1.753558	-2.459146
O	-1.559142	1.918927	-2.031337
C	0.42241	-0.975255	-2.275941
H	0.315016	-1.997516	-1.905372
H	0.123491	-0.940303	-3.326595
H	1.463709	-0.669271	-2.146122
C	-0.563076	1.171055	0.790892
H	-0.257698	1.07479	1.835591
H	-1.65425	1.224933	0.745505
H	-0.153297	2.115522	0.424852
H	2.999812	0.0	0.0
