17

C	-0.38437	0.019638	-1.458609
C	0.0	0.0	0.0
F	-0.233955	-1.243658	-1.986762
H	1.094359	0.0	0.0
H	-0.369461	-0.939783	0.421911
N	-1.886822	0.297997	-1.567558
O	-2.238734	1.458296	-1.784035
O	-2.651695	-0.637532	-1.346362
C	0.406405	0.986326	-2.296716
H	0.131457	0.887058	-3.349247
H	1.460131	0.735999	-2.13812
H	0.237919	2.01295	-1.977777
C	-0.497886	1.196022	0.800552
H	-0.056589	1.15439	1.799322
H	-1.587559	1.218933	0.90522
H	-0.178756	2.138334	0.349455
H	2.983079	0.0	0.0
