18

C	-0.56052	0.011042	-1.415312
C	0.0	0.0	0.0
Cl	0.35178	1.183012	-2.418438
H	1.093271	0.0	0.0
N	-0.287824	-1.356824	-2.063363
O	0.798669	-1.868851	-1.839631
O	-1.169686	-1.827283	-2.783336
C	-2.036256	0.322051	-1.523731
H	-2.365574	0.286045	-2.560496
H	-2.608408	-0.407227	-0.942311
H	-2.213364	1.32192	-1.124001
C	-0.531101	-1.153522	0.701232
N	-0.985184	-2.078668	1.272602
C	-0.31869	1.282024	0.776763
H	-1.377621	1.414727	1.021923
H	0.259697	1.251226	1.701943
H	0.039781	2.141267	0.205659
F	2.517553	0.0	0.0
