18

C	-0.248359	0.031901	-1.502608
C	0.0	0.0	0.0
Cl	-0.061723	-1.610269	-2.193026
H	1.097184	0.0	0.0
N	-1.692439	0.417293	-1.848503
O	-1.880443	1.098656	-2.857162
O	-2.576418	0.008249	-1.10031
C	0.739944	0.959261	-2.178003
H	0.485782	1.997765	-1.955149
H	1.71265	0.716126	-1.728144
H	0.730127	0.826427	-3.25836
C	-0.561814	-1.143327	0.689808
N	-0.987349	-2.035831	1.326219
C	-0.390595	1.307123	0.695024
H	0.180074	2.13336	0.267667
H	-0.100465	1.232866	1.745112
H	-1.461891	1.522812	0.64308
F	2.59661	0.0	0.0
