18

C	-0.295348	0.003022	-1.498433
C	0.0	0.0	0.0
Cl	-2.026413	-0.307074	-1.89357
H	1.097358	0.0	0.0
N	0.010424	1.413365	-2.012542
O	1.119475	1.588391	-2.506075
O	-0.840413	2.284424	-1.855026
C	0.602255	-0.991277	-2.198753
H	0.281272	-1.996781	-1.921007
H	1.612109	-0.810315	-1.814846
H	0.548328	-0.881672	-3.283088
C	-0.444541	-1.265596	0.554645
N	-0.796026	-2.276783	1.042226
C	-0.533865	1.174286	0.812057
H	-0.00681	2.086278	0.530766
H	-0.323197	0.986713	1.867154
H	-1.608733	1.326907	0.683317
F	2.569559	0.0	0.0
