18

C	-0.543197	0.066122	-1.425245
C	0.0	0.0	0.0
Cl	0.271855	1.373967	-2.322839
H	1.105688	0.0	0.0
N	-0.158622	-1.248954	-2.117138
O	0.995536	-1.395542	-2.48658
O	-1.053134	-2.093464	-2.196423
C	-2.041147	0.260361	-1.543946
H	-2.563251	-0.504957	-0.969716
H	-2.297436	1.24682	-1.157021
H	-2.357391	0.200313	-2.586692
C	-0.510193	-1.185452	0.659728
N	-0.924096	-2.126887	1.233444
C	-0.344665	1.2417	0.827725
H	-1.413357	1.366799	1.032933
H	0.040508	2.127261	0.32025
H	0.190495	1.157248	1.775404
F	2.513356	0.0	0.0
