19

C	-0.463173	-0.077597	-1.465815
C	0.0	0.0	0.0
Cl	-0.309478	1.678751	-2.149513
H	1.092383	0.0	0.0
N	0.371853	-0.978325	-2.142469
H	1.356313	-0.791857	-1.973354
H	0.165346	-1.036504	-3.130747
C	-1.928134	-0.427201	-1.658064
H	-2.188205	-0.338037	-2.715453
H	-2.571944	0.243302	-1.089659
H	-2.103128	-1.454294	-1.334965
N	-0.42098	-1.299622	0.633128
O	-1.501374	-1.312619	1.235507
O	0.311554	-2.274313	0.497789
C	-0.517609	1.150994	0.835723
H	-1.59419	1.294101	0.738802
H	-0.287579	0.955874	1.884367
H	0.001579	2.060551	0.539829
Br	3.519844	0.0	0.0
