19

C	-0.481852	0.05408	-1.468719
C	0.0	0.0	0.0
Cl	-0.14069	-1.569886	-2.190716
H	1.090657	0.0	0.0
N	-1.883369	0.324928	-1.690601
H	-2.43397	-0.241311	-1.054186
H	-2.061103	1.301975	-1.487827
C	0.370569	1.063363	-2.219978
H	0.163642	2.075744	-1.858358
H	0.120144	1.015469	-3.280696
H	1.429973	0.848752	-2.066138
N	-0.511139	-1.226626	0.674279
O	0.288076	-2.037637	1.123612
O	-1.742665	-1.339998	0.751243
C	-0.465694	1.193433	0.82148
H	-0.049738	2.111633	0.40437
H	-0.073058	1.096839	1.83638
H	-1.553605	1.261211	0.86681
Br	3.564028	0.0	0.0
