19

C	-0.399874	-0.014761	-1.482393
C	0.0	0.0	0.0
Cl	-2.248712	-0.428099	-1.580075
H	1.092385	0.0	0.0
N	-0.153224	1.264254	-2.026892
H	-0.293745	1.266148	-3.027986
H	-0.71873	1.984825	-1.600994
C	0.320317	-1.069035	-2.297757
H	0.039287	-2.070797	-1.98685
H	1.394012	-0.933809	-2.141309
H	0.068346	-0.943435	-3.354883
N	-0.431519	-1.27018	0.663544
O	-1.332779	-1.215482	1.504119
O	0.141564	-2.305514	0.327859
C	-0.500215	1.194465	0.782246
H	-0.25551	1.063221	1.835927
H	0.030005	2.082139	0.434599
H	-1.580415	1.324724	0.694516
Br	3.510782	0.0	0.0
