18

C	-0.32015	-0.011586	-1.478362
C	0.0	0.0	0.0
Br	-2.380833	-0.049301	-1.66095
H	1.104757	0.0	0.0
C	0.169553	1.234218	-2.172397
H	-0.304674	2.121593	-1.758764
H	1.248691	1.295438	-1.973868
H	-0.013355	1.160697	-3.246762
N	0.177623	-1.186153	-2.130074
H	0.050979	-1.945171	-1.463989
H	1.186726	-1.040379	-2.201281
N	-0.38587	-1.268695	0.614274
H	-1.332659	-1.213573	0.974542
H	0.252463	-1.4504	1.381277
N	-0.435131	1.222262	0.6515
H	0.153061	1.371365	1.463928
H	-1.400981	1.138344	0.950982
H	2.863312	0.0	0.0
