18

C	-0.427899	0.0397	-1.465101
C	0.0	0.0	0.0
F	-1.826797	0.165021	-1.536688
H	1.091965	0.0	0.0
C	0.208934	1.225694	-2.170512
H	-0.020684	1.185367	-3.236488
H	-0.192593	2.152542	-1.759804
H	1.291303	1.19236	-2.017792
C	-0.10193	-1.187613	-2.218188
N	0.060071	-2.100506	-2.93908
N	-0.488758	-1.268509	0.625537
O	-1.385833	-1.197555	1.468601
O	0.032351	-2.31295	0.244314
C	-0.482816	1.202583	0.786576
H	0.066071	2.084744	0.456448
H	-1.555508	1.361281	0.681819
H	-0.251527	1.052384	1.840628
Br	3.431525	0.0	0.0
