18

C	-0.470955	0.010112	-1.467998
C	0.0	0.0	0.0
F	-0.408236	1.338439	-1.902996
H	1.091754	0.0	0.0
C	0.388099	-0.810182	-2.406348
H	1.427574	-0.509402	-2.258144
H	0.070149	-0.612757	-3.43255
H	0.300769	-1.871578	-2.185666
C	-1.894	-0.382117	-1.552573
N	-3.014986	-0.722648	-1.634624
N	-0.388653	-1.30946	0.631036
O	0.083771	-2.330121	0.131087
O	-1.142757	-1.293665	1.605747
C	-0.544438	1.153488	0.810228
H	-1.636803	1.165216	0.83614
H	-0.174699	2.08187	0.377863
H	-0.172443	1.075559	1.831369
Br	3.447329	0.0	0.0
