18

C	-0.505104	-0.004858	-1.448349
C	0.0	0.0	0.0
F	0.078705	-1.052645	-2.139363
H	1.091437	0.0	0.0
C	-2.012714	-0.158042	-1.591175
H	-2.261614	-0.168626	-2.653898
H	-2.331671	-1.098858	-1.141816
H	-2.541134	0.665788	-1.110862
C	-0.0806	1.254339	-2.09317
N	0.221972	2.271812	-2.594304
N	-0.474184	-1.272842	0.627206
O	-1.497222	-1.229215	1.319003
O	0.154085	-2.294666	0.377793
C	-0.466783	1.197476	0.803806
H	-0.032106	2.101916	0.374782
H	-0.083768	1.102412	1.821667
H	-1.553233	1.287382	0.854711
Br	3.461505	0.0	0.0
