13

C	0.0	0.0	0.0
C	-0.528002	0.170264	-1.404358
F	1.39566	0.0	0.0
H	-0.23152	-0.693653	-2.005894
H	-0.131762	1.083299	-1.856387
H	-1.626083	0.213323	-1.313425
C	-0.351277	1.184938	0.823039
N	-0.474374	2.147082	1.484536
C	-0.528467	-1.257455	0.647236
H	-0.23228	-2.121774	0.045852
H	-1.626611	-1.157144	0.655814
H	-0.132274	-1.364368	1.660344
H	-3.297073	0.0	0.0
