11
Coordinates from ORCA-job run
  C   -0.87859066814036     -0.30932071584039     -0.43450073430570
  C   0.45104027872155     -0.61196548579179      0.24072304810831
  F   -1.80282549910472     -1.28653764947652     -0.10963808948637
  H   0.27258781690960     -0.71712515529608      1.31898315959710
  H   -0.74833446777611     -0.29787123821839     -1.51865764604447
  H   0.79047275839571     -1.57844392546921     -0.13850697744585
  C   -1.38672077290987      1.00103833404481      0.00275426759437
  N   -1.74605888626503      2.05166955376789      0.38197665294599
  N   1.39942240744484      0.42351233525087     -0.14253101241083
  H   2.34884762569069      0.09021911120183     -0.05232643742669
  H   1.29915940703370      1.23582483582699      0.45272376887413
