11
Coordinates from ORCA-job run
  C   -0.90213135073722      0.14292129251098      0.09773105705255
  C   0.58426449143864     -0.05524352050629     -0.17029135529686
  F   -1.07773751123955      1.27787665488666      0.86830836296002
  H   0.69916391870859     -0.83239778412072     -0.93413179781075
  H   -1.29439658796120     -0.70430044076589      0.66573543484195
  H   0.95310892534909      0.88042545028483     -0.60293188765448
  C   -1.65601164173928      0.29929373206055     -1.15676392519320
  N   -2.22257890404731      0.40159312393237     -2.17876975158471
  N   1.26044975913186     -0.38610119176874      1.07418223509453
  H   1.67428067986601     -1.30623358637434      1.03869164650362
  H   1.98058822123036      0.28316626986058      1.29823998108733
