11
Coordinates from ORCA-job run
  C   -0.87542315571794     -0.11417301353500     -0.00660312813925
  C   0.61679830848447      0.09096140640310     -0.17732658620828
  F   -1.23341581544966      0.27331427479969      1.27861195909457
  H   0.82698908467822      1.16236617776188     -0.04759745095182
  H   -1.11989149345646     -1.17402218825197     -0.10930915816833
  H   0.88436643991825     -0.18296039095902     -1.20135768579505
  C   -1.64610299014554      0.67964448705409     -0.97480484965176
  N   -2.23249115458063      1.31144030524954     -1.77063999706590
  N   1.30514775413056     -0.79263566773473      0.75182450757770
  H   1.17606139743417     -0.45557844183601      1.69705828914668
  H   2.29796162470455     -0.79735694895158      0.55914410016144
