11
Coordinates from ORCA-job run
  C   -0.88725757140582     -0.26735953840725     -0.42633754067519
  C   0.42890780984288     -0.57552197034959      0.27753161714166
  F   -1.80780105307854     -1.26875521847111     -0.16231077327124
  H   0.73726044560583     -1.57985120581470     -0.02759528905358
  H   -0.72836364461230     -0.22186512020371     -1.50626833174478
  H   0.23951946084497     -0.60429526469318      1.35426317408477
  C   -1.43118928914201      1.01919817160693      0.03361019044890
  N   -1.86080307178623      2.03478585478134      0.43385196151953
  N   1.39363384897067      0.44962449059502     -0.09491895122137
  H   2.18226138230002      0.06051917528569     -0.58887892179408
  H   1.73483168246054      0.95352062567057      0.70905286456537
