11
Coordinates from ORCA-job run
  C   -0.83775057095518     -0.28157926669858     -0.37952173894932
  C   0.49411904572916     -0.68465095416862      0.25883692695434
  F   -1.78471898060608     -1.26179478208236     -0.14015886789736
  H   0.78932930352062     -1.64188218186988     -0.17825107467399
  H   -0.73119801366428     -0.17877089512512     -1.46410869366498
  H   0.31635519529431     -0.85246045438468      1.32365739997758
  C   -1.30706322483159      0.99819496842079      0.17441726765064
  N   -1.62690584484217      2.02701730244622      0.63967871779633
  N   1.56637528802476      0.27441842151272      0.09708316674018
  H   1.77314268611319      0.44624827800621     -0.87770480002629
  H   1.34831511621726      1.15525956394330      0.54407169609287
