11
Coordinates from ORCA-job run
  C   -0.91364421146768     -0.31950906895543     -0.06250828768247
  C   0.56747976475064     -0.69299233217062     -0.08069645987584
  F   -1.33028646073429     -0.21752508633879      1.25826968182516
  H   0.65775379632853     -1.65899241356075      0.42422116640447
  H   -1.52801192317541     -1.08638848574209     -0.54436821017579
  H   0.87933644358384     -0.83411410922300     -1.11942389265193
  C   -1.13501365863513      0.97447503884460     -0.72586520138751
  N   -1.25602723537172      2.00332001067449     -1.27714176849239
  N   1.45029554448504      0.25741948189168      0.56103443681380
  H   1.46833571637493      1.13583444727643      0.05837282057445
  H   1.14078222386126      0.43847251730349      1.50710571464805
