14

C	-0.422558	-0.027841	-1.442879
C	0.0	0.0	0.0
Br	-2.557666	0.311063	-1.5046
H	1.095391	0.0	0.0
H	-0.449125	-1.049623	-1.808935
N	0.269747	0.816318	-2.280572
H	0.41985	1.729538	-1.8803
H	-0.076451	0.836776	-3.22723
C	-0.504217	-1.141942	0.727672
N	-0.85797	-2.125558	1.26549
N	-0.347154	1.257813	0.689809
O	-0.166306	2.303363	0.060048
O	-0.712947	1.209252	1.861493
F	2.429996	0.0	0.0
