14

C	-0.391501	-0.040306	-1.453258
C	0.0	0.0	0.0
Br	-2.525256	0.244181	-1.566798
H	1.095391	0.0	0.0
H	-0.37863	-1.064786	-1.815884
N	0.306458	0.820108	-2.272925
H	-0.036708	0.847653	-3.218611
H	0.427809	1.733552	-1.860993
C	-0.510293	-1.148747	0.712884
N	-0.871149	-2.134088	1.242362
N	-0.384061	1.251596	0.671783
O	-0.857049	1.201614	1.805762
O	-0.146502	2.301342	0.067771
F	2.425165	0.0	0.0
