14

C	-0.168783	0.087197	-1.521624
C	0.0	0.0	0.0
Br	-1.981082	0.875178	-2.024651
H	1.094465	0.0	0.0
H	-0.312255	-0.928337	-1.900107
N	0.900052	0.809408	-2.087408
H	1.725553	0.708542	-1.471712
H	1.098182	0.49341	-3.025985
C	-0.61081	-1.184442	0.556032
N	-1.047224	-2.18455	0.992746
N	-0.447654	1.224849	0.707957
O	-1.264803	1.107922	1.622498
O	0.054904	2.279134	0.336801
F	2.542852	0.0	0.0
