14

C	-0.413127	0.028803	-1.472559
C	0.0	0.0	0.0
Br	0.14283	-1.671738	-2.265336
H	1.094371	0.0	0.0
H	0.196121	0.785458	-1.962189
N	-1.803794	0.249229	-1.788306
H	-2.376871	-0.403048	-1.262903
H	-2.03276	1.193513	-1.49852
C	-0.592587	-1.083974	0.748118
N	-1.096819	-1.979571	1.32039
N	-0.357583	1.286238	0.639076
O	-0.47995	1.318059	1.862303
O	-0.437847	2.280862	-0.092024
F	2.44094	0.0	0.0
