14

C	0.0	0.0	0.0
C	-0.357935	0.070941	-1.51135
Br	1.913882	0.0	0.0
H	-1.448844	0.08905	-1.500958
H	-0.517566	-0.854714	0.474492
N	-0.425489	1.319679	0.683725
O	-1.677769	1.202312	1.227783
O	0.427322	1.932208	1.396327
N	0.056764	-1.145386	-2.208913
H	-0.353381	-1.129216	-3.138623
H	1.063887	-1.158802	-2.301831
C	0.109352	1.336883	-2.164843
N	0.373959	2.207092	-2.91072
H	-2.139286	0.0	0.0
