14

C	0.0	0.0	0.0
C	-0.558635	-0.02552	-1.432132
Br	1.921816	0.0	0.0
H	0.149019	0.538293	-2.054901
H	-0.379351	-0.791862	0.640644
N	-0.39352	1.30677	0.655721
O	-0.036888	2.336795	0.103182
O	-1.008351	1.214153	1.712317
N	-1.843868	0.60191	-1.456219
H	-2.643815	0.229156	-0.76511
H	-2.22675	0.577855	-2.395551
C	-0.469119	-1.439452	-1.899892
N	-0.422994	-2.531686	-2.335299
H	-3.720435	0.0	0.0
