14

C	0.0	0.0	0.0
C	-0.401391	-0.014259	-1.52952
Br	1.928245	0.0	0.0
H	0.522086	0.14447	-2.096153
H	-0.327314	-0.85836	0.567636
N	-0.393412	1.207166	0.76419
O	-0.356443	2.290584	0.167554
O	-0.510186	1.084155	1.984378
N	-1.360271	0.921141	-2.089411
H	-0.969294	1.846816	-1.957616
H	-2.156841	0.840188	-1.44571
C	-0.810796	-1.395244	-1.823375
N	-1.038731	-2.511181	-2.11123
H	-2.213615	0.0	0.0
