13

C	-0.09029	0.033808	0.007215
C	-0.569878	0.022504	-1.441326
Cl	1.649015	-0.277159	0.134428
H	-1.649641	0.241219	-1.374272
H	-0.651876	-0.706564	0.573824
N	-0.386337	1.362254	0.661573
O	-0.195195	1.409457	1.868717
O	-0.785936	2.276643	-0.050813
C	-0.422325	-1.330779	-1.982989
N	-0.281906	-2.403106	-2.439216
C	0.142588	0.968484	-2.302544
N	0.711464	1.690614	-3.0329
Cl	-3.141312	-0.601261	0.209916
