16

C	0.0	0.0	0.0
C	-0.358722	-0.153334	-1.506455
F	1.35683	0.0	0.0
H	0.60055	0.076775	-1.98521
N	-0.331715	1.358591	0.604365
O	-0.511795	1.399458	1.813543
O	-0.208109	2.312624	-0.154276
C	-0.452104	-1.075285	0.886469
N	-0.48863	-2.031677	1.571307
C	-1.283935	0.791918	-2.136966
N	-1.773475	1.511173	-2.928976
C	-0.719813	-1.599302	-1.855914
H	-1.679053	-1.847797	-1.405453
H	-0.79091	-1.694059	-2.941241
H	0.05372	-2.281959	-1.495032
Br	-3.178193	0.0	0.0
