17

C	-0.243201	-0.073202	-1.502607
C	0.0	0.0	0.0
Cl	-1.981615	-0.569625	-1.916298
H	1.099079	0.0	0.0
C	-0.109634	1.259508	-2.121895
N	0.064894	2.266945	-2.702684
N	0.659895	-1.043549	-2.041395
H	1.578157	-0.877904	-1.597671
H	0.743617	-0.944457	-3.045694
C	-0.448047	-1.258382	0.720326
H	-0.159565	-2.148192	0.15794
H	0.043713	-1.29146	1.697425
H	-1.534443	-1.27287	0.864465
N	-0.495244	1.239092	0.56767
H	0.236369	1.641415	1.142835
H	-1.30975	1.071155	1.145647
H	2.822474	0.0	0.0
