17

C	-0.377587	0.041919	-1.489533
C	0.0	0.0	0.0
Cl	-0.054332	-1.554779	-2.269527
H	1.096358	0.0	0.0
C	-1.819053	0.302939	-1.643334
N	-2.972477	0.523256	-1.689912
N	0.38835	1.041629	-2.206872
H	0.210261	1.90304	-1.693145
H	1.366928	0.811143	-2.004918
C	-0.573332	-1.147947	0.804293
H	-0.239951	-2.113657	0.423639
H	-0.221485	-1.056243	1.835853
H	-1.67116	-1.130407	0.807135
N	-0.366334	1.322446	0.524411
H	0.410049	1.652528	1.088673
H	-1.19395	1.270132	1.105861
H	2.88224	0.0	0.0
