17

C	-0.468199	0.016822	-1.429442
C	0.0	0.0	0.0
Cl	-2.44223	0.195647	-1.401168
H	1.095919	0.0	0.0
C	-0.086617	1.246127	-2.125508
N	0.214309	2.191144	-2.754286
N	-0.107507	-1.104106	-2.175898
H	-0.454407	-1.080841	-3.123727
H	-0.351077	-1.967451	-1.714833
C	-0.406344	-1.261462	0.749601
H	-1.49195	-1.406673	0.769668
H	0.080026	-2.151106	0.33592
H	-0.038432	-1.167696	1.774262
N	-0.388913	1.246011	0.636375
H	-1.242143	1.142604	1.172199
H	0.368991	1.526615	1.248924
H	2.769369	0.0	0.0
