17

C	-0.57757	-0.021014	-1.422651
C	0.0	0.0	0.0
Cl	-0.120021	-1.5617	-2.275961
H	1.094732	0.0	0.0
C	-2.055124	-0.050605	-1.342574
N	-3.227427	-0.006436	-1.246033
N	-0.096143	1.096319	-2.170444
H	-0.738267	1.359852	-2.905356
H	0.025298	1.855953	-1.508698
C	-0.471814	-1.157624	0.862739
H	-1.556025	-1.132653	1.034864
H	-0.207875	-2.120823	0.422678
H	0.040321	-1.084446	1.82612
N	-0.334838	1.314145	0.566488
H	0.485981	1.625418	1.079799
H	-1.116833	1.252052	1.207743
H	2.839413	0.0	0.0
