17

C	-0.465213	-0.021609	-1.434066
C	0.0	0.0	0.0
Cl	-2.422846	-0.397045	-1.429049
H	1.101058	0.0	0.0
C	-0.470754	1.299148	-2.068272
N	-0.463561	2.327302	-2.636472
N	0.211701	-0.939159	-2.221136
H	0.522382	-1.7656	-1.736432
H	-0.182188	-1.112758	-3.132354
C	-0.379458	-1.252117	0.781913
H	-0.194287	-2.178656	0.229037
H	-1.433759	-1.242521	1.073101
H	0.25095	-1.281623	1.67536
N	-0.421618	1.233363	0.639798
H	-1.21724	1.080752	1.246809
H	0.357637	1.579711	1.188457
H	2.768416	0.0	0.0
