15
Coordinates from ORCA-job run
  C   -0.68405168010729     -0.33715155759960     -0.27648700472490
  C   0.68532433874071      0.19113711771819     -0.72503939455121
  Cl  -0.62870717417438     -2.13919310965208     -0.18864742283880
  H   0.93274579602697     -0.29158640260086     -1.67442721176706
  H   0.56063068949819      1.25987909010864     -0.93367227468856
  C   -1.67838859931483      0.01056933555332     -1.29503309862208
  N   -2.46670083554775      0.33855907644694     -2.10201754717664
  C   -1.12966446262437      0.19643230024996      1.07957511099316
  H   -0.44931398202377     -0.14610659505428      1.85888336343226
  H   -2.13374331119282     -0.15712730617256      1.31551786230748
  H   -1.13417747840039      1.28961599461921      1.05965127049122
  C   1.80821852579717     -0.01666076484901      0.28394039883795
  H   2.75712729227576      0.29431986259122     -0.15776864213033
  H   1.89982224222952     -1.06647383852788      0.56648469692154
  H   1.65887863881728      0.57578679716879      1.18803989351598
