14

C	0.0	0.0	0.0
C	-0.623342	0.168799	-1.387425
Cl	1.741953	0.0	0.0
H	-1.705321	0.351945	-1.202228
H	-0.384056	-0.919714	0.43519
N	-0.430435	1.107067	0.933023
O	-0.538154	2.224363	0.448075
O	-0.546374	0.797668	2.110231
C	-0.438429	-1.068457	-2.132118
N	-0.265632	-2.079319	-2.704587
N	-0.056405	1.29696	-2.215975
O	-0.756985	2.293312	-2.353699
O	1.053982	1.120856	-2.715926
Cl	-3.391004	0.0	0.0
