15

C	-0.303024	0.037551	-1.481574
C	0.0	0.0	0.0
F	-1.683148	0.224123	-1.726072
H	1.095495	0.0	0.0
H	-0.047968	-0.936916	-1.91215
C	0.500073	1.134135	-2.138284
H	1.534179	0.99448	-1.806721
H	0.141898	2.101158	-1.784011
H	0.421702	1.086974	-3.227813
C	-0.539251	-1.200738	0.635605
N	-0.985462	-2.141296	1.184338
N	-0.418792	1.236755	0.662438
H	-1.357248	1.155826	1.033028
H	0.223073	1.407052	1.426282
F	2.616016	0.0	0.0
