15

C	-0.338404	-0.049244	-1.488622
C	0.0	0.0	0.0
F	-0.068305	1.230232	-2.011979
H	1.101958	0.0	0.0
H	-1.406459	-0.2184	-1.675996
C	0.577382	-1.035819	-2.179845
H	0.518047	-0.917977	-3.264926
H	1.589122	-0.839234	-1.809055
H	0.295919	-2.060249	-1.920669
C	-0.505016	-1.215275	0.627371
N	-0.904156	-2.199445	1.132393
N	-0.612515	1.186197	0.634989
H	-0.158609	1.281565	1.538046
H	-0.268064	1.966598	0.085021
F	2.655215	0.0	0.0
