15

C	-0.299838	-0.095023	-1.479614
C	0.0	0.0	0.0
F	-1.678221	0.070004	-1.744039
H	1.104417	0.0	0.0
H	-0.043893	-1.104069	-1.821022
C	0.504681	0.938277	-2.230694
H	0.425552	0.795062	-3.31204
H	0.147163	1.93291	-1.962781
H	1.537939	0.827154	-1.887857
C	-0.539513	-1.140149	0.737356
N	-0.992625	-2.033411	1.355393
N	-0.421407	1.290675	0.548435
H	0.216304	1.52995	1.297574
H	-1.361835	1.241768	0.92042
F	2.615379	0.0	0.0
