15

C	-0.339146	-0.023229	-1.493702
C	0.0	0.0	0.0
F	-0.043588	1.233385	-2.020765
H	1.094468	0.0	0.0
H	-1.410189	-0.18178	-1.686166
C	0.54744	-1.039353	-2.184377
H	0.497929	-0.915743	-3.270803
H	0.247112	-2.058651	-1.930245
H	1.561396	-0.859179	-1.809749
C	-0.465585	-1.246779	0.60281
N	-0.890938	-2.231813	1.087212
N	-0.508486	1.184178	0.691262
H	-1.354643	0.974604	1.204153
H	0.202263	1.478387	1.349089
F	2.632759	0.0	0.0
