15

C	-0.304699	-0.043625	-1.504708
C	0.0	0.0	0.0
F	-0.041827	1.238113	-2.016889
H	1.096729	0.0	0.0
H	-1.3691	-0.226382	-1.715862
C	0.617675	-1.026537	-2.189548
H	0.558343	-0.919386	-3.275596
H	1.625713	-0.81546	-1.816714
H	0.347598	-2.050521	-1.918196
C	-0.52363	-1.217044	0.610454
N	-0.971655	-2.200924	1.073753
N	-0.485255	1.185016	0.701213
H	0.217786	1.89745	0.551658
H	-1.345449	1.516167	0.277003
F	2.63153	0.0	0.0
