15

C	-0.499594	0.014652	-1.434065
C	0.0	0.0	0.0
F	-0.209378	-1.217627	-2.03429
H	1.095513	0.0	0.0
H	0.08923	0.772024	-1.958284
C	-1.984443	0.260373	-1.588162
H	-2.2635	0.266541	-2.645427
H	-2.545282	-0.533314	-1.086792
H	-2.243653	1.223485	-1.145712
C	-0.5398	-1.133995	0.738541
N	-0.971251	-2.043041	1.34926
N	-0.331795	1.296549	0.627417
H	-1.090671	1.206741	1.291276
H	0.502117	1.575952	1.132132
F	2.582268	0.0	0.0
