16
Coordinates from ORCA-job run
  C   -0.49913804950346      0.44395934990340     -0.09694091211227
  C   0.98375564698205      0.17225780054922      0.18153092980367
  F   -0.54463265692678      1.59334223471096     -0.85754270054101
  H   1.36940577082528      1.03635157862480      0.73407762246483
  C   -1.23623294443118     -0.66404138193711     -0.78370996843467
  H   -1.31939499984388     -1.53138188572808     -0.12778112379659
  H   -0.67666896489041     -0.93940717856583     -1.67637122126514
  H   -2.23563212533133     -0.32569001771929     -1.04984646242037
  N   -1.19105898585609      0.83140787630000      1.21066745298264
  O   -2.40027247056619      0.63918056230407      1.27653545655098
  O   -0.49760953935488      1.36974256884073      2.07079655041970
  N   1.64320490688837     -0.06899647743695     -1.09950576854847
  H   1.69946416899829      0.80855672420352     -1.60299409979775
  H   2.58705534309279     -0.39997180039962     -0.94109564529741
  C   1.10689976627743     -1.00665454314765      1.04160312514301
  N   1.20985513364000     -1.95765541050218      1.72157676484884
