16
Coordinates from ORCA-job run
  C   -0.48928686440822      0.32011412138357      0.10018093562865
  C   0.85379341169184     -0.39831225106497     -0.03241838050620
  F   -0.27078388581085      1.52460271795807      0.70012075804325
  H   0.64767739090207     -1.39871759604646     -0.42098586219626
  C   -1.27016555774280      0.51031045555970     -1.17238282708377
  H   -2.21736486722937      0.99970123455613     -0.93822400335711
  H   -1.46864831540483     -0.45044825323205     -1.64631162720835
  H   -0.70467383855820      1.14868830924786     -1.85229710545086
  N   -1.31367708818048     -0.52304990150715      1.06277653025050
  O   -1.71697037843302      0.00251323933062      2.08698636387473
  O   -1.51682258048297     -1.67318803712284      0.68824680602323
  N   1.43319497552200     -0.52830175014500      1.28983827146798
  H   1.72044109969274      0.37724306465524      1.64020685381482
  H   2.23962283088441     -1.13874829153760      1.26934193021490
  C   1.68844781173133      0.32471630683697     -1.01184941428805
  N   2.38521585582635      0.90187663112790     -1.76122922922745
