16
Coordinates from ORCA-job run
  C   -0.47413607466182      0.47271190875978     -0.09549727290065
  C   0.99547212603333      0.11418321220050      0.15393422087305
  F   -0.46613745283231      1.60843993188039     -0.87750857149419
  H   1.44708995334309      0.96506890863768      0.67613369548217
  C   -1.29518468416661     -0.59916587163048     -0.74273318284425
  H   -0.77792117390720     -0.92167010406731     -1.64510515578846
  H   -2.27966044529008     -0.20566496704238     -0.98798386134606
  H   -1.41186779173534     -1.44957534881140     -0.07004792747182
  N   -1.10573086938752      0.92697959380825      1.22130956511212
  O   -0.36255693240692      1.46907745533831      2.03612845402363
  O   -2.31724624502016      0.77762592125911      1.33942217879863
  N   1.60688068756465     -0.19682281613283     -1.13576810008811
  H   1.70889035871268      0.66424159037708     -1.66017495969890
  H   2.53022982583709     -0.58672021076103     -0.99149076591049
  C   1.06750769028032     -1.04994095568811      1.03950371206840
  N   1.13237102763679     -1.98876824812757      1.74087797118495
