16
Coordinates from ORCA-job run
  C   -0.47040879261917      0.34704625540264      0.09889719800164
  C   0.83186713502893     -0.44261741453571     -0.03590528476276
  F   -0.17901503628751      1.55676700258865      0.65619554495776
  H   0.56817435519402     -1.44228738082966     -0.38998365972138
  C   -1.26594963700086      0.53862265585916     -1.16449383625848
  H   -2.18222620438740      1.08269989489983     -0.92783848299514
  H   -0.68232367737437      1.12717474629969     -1.87353252917434
  H   -1.52206903050707     -0.42429521138354     -1.60530504102655
  N   -1.31680815936649     -0.42243543266296      1.10260834138057
  O   -1.67237059083340      0.15421162044413      2.11694044194018
  O   -1.58524460196510     -1.57161857229865      0.76862222505473
  N   1.42990395826587     -0.56198569021444      1.27901586689486
  H   2.20423172346447     -1.21261550173778      1.26296521287095
  H   1.76935122335153      0.33794990902793      1.59569526916732
  C   1.68197104473447      0.20817899598277     -1.05214251771768
  N   2.39191629030210      0.72620412315794     -1.83173874861168
