16
Coordinates from ORCA-job run
  C   -0.54005389746577      0.51102052771525     -0.09925588365640
  C   0.96328656090454      0.27721161532312      0.11873025527586
  F   -0.67813360489180      1.69855328895443     -0.75646515583736
  H   1.33981816769153      1.20900830467469      0.54957748257487
  C   -1.25925859740838     -0.57658136033346     -0.83842901542260
  H   -0.83125557574647     -0.63489731810102     -1.83947645503553
  H   -1.16215009572748     -1.53438796895897     -0.32778327595942
  H   -2.31745700580470     -0.32958398092593     -0.91670390811883
  N   -1.13936200151026      0.74509614269656      1.28565759444095
  O   -1.99668352586426     -0.03433415224329      1.68832023959866
  O   -0.68378651067706      1.70870645954197      1.89461814268293
  N   1.60962004886814      0.04150323836969     -1.15940905043310
  H   1.62835612566322     -0.94546500796286     -1.38286615411947
  H   2.56252830404551      0.37846087754150     -1.14005701094336
  C   1.16233365877501     -0.80432966861347      1.09953189344848
  N   1.34319794914823     -1.70998099767821      1.82601030150433
