16
Coordinates from ORCA-job run
  C   -0.54530011950112      0.49255526923973     -0.06959042605358
  C   0.96047344070792      0.24752975618852     -0.24696315452520
  F   -0.74606219786208      1.83866874635689     -0.13031474980085
  H   1.21586941459878      0.82790328613599     -1.14040576197232
  C   -1.41843164352416     -0.21542222985816     -1.06904608631803
  H   -1.30934084851146     -1.29340295853032     -0.97683456497872
  H   -2.45528878781646      0.08142766683768     -0.89905723521192
  H   -1.12038341692151      0.08400053187044     -2.07507065843170
  N   -0.96842031662937      0.05696097892716      1.32712497932971
  O   -0.56764032625184     -1.05326908115622      1.67141712037971
  O   -1.68909256215508      0.80510241746679      1.96771966410387
  N   1.26941452468935     -1.14246714075436     -0.51538318920798
  H   1.15157590693013     -1.68893276555625      0.32841436959645
  H   2.22898889812876     -1.22554190736082     -0.82692092035224
  C   1.69255974772979      0.85437455117872      0.88480946407953
  N   2.30107828638834      1.33151287901420      1.76910114936325
