16
Coordinates from ORCA-job run
  C   -0.49829808586019      0.31283866946608      0.07920915343640
  C   0.86337006470478     -0.37743179540362     -0.00538638651900
  F   -0.31532584006088      1.55058764465404      0.62053956900327
  H   0.68631597886300     -1.40061804172395     -0.34611781599409
  C   -1.27078898903832      0.42041418854998     -1.20797373314983
  H   -0.71469848159847      1.03978121227732     -1.91287834918927
  H   -2.23265518173093      0.89578164026025     -1.00680987761442
  H   -1.43962038364785     -0.56709729082251     -1.63626859478526
  N   -1.31054300487198     -0.50234706752093      1.07546841663360
  O   -1.73525178054686      0.06183575029913      2.07000901817669
  O   -1.48257416198772     -1.67390862992090      0.75569887400339
  N   1.43169309500609     -0.42755946760154      1.32695053860126
  H   1.69844057361402      0.49989797766484      1.63324910477567
  H   2.24862256347262     -1.02345117209072      1.34660372112734
  C   1.69061017429945      0.31702416234451     -1.01144667446436
  N   2.38070345938324      0.87425221956802     -1.78184696404137
