16
Coordinates from ORCA-job run
  C   -0.48511346052192      0.30474950547298      0.15489420620714
  C   0.85522161307576     -0.37495427277431     -0.12661141199551
  F   -0.23764313269048      1.49975673410053      0.76246709488984
  H   0.63538132299917     -1.37033275814013     -0.52025749383731
  C   -1.39041964088059      0.50517281250881     -1.03067828389095
  H   -0.90826297510286      1.17374424853927     -1.74496894001753
  H   -2.32143474227347      0.96464708777212     -0.69354786823603
  H   -1.61211113451060     -0.44858542900234     -1.50843553351089
  N   -1.19110396260736     -0.58276478644221      1.17029319418447
  O   -1.40381767607899     -1.72805805743591      0.78618807672918
  O   -1.50506308108937     -0.09280222623124      2.24229486716848
  N   1.56275169482628     -0.52352911073087      1.13018902034194
  H   1.86027837447211      0.38038028383025      1.47637497222609
  H   2.37861828808052     -1.11046046646530      1.01443023801812
  C   1.57532196939253      0.39446347622931     -1.15959147096255
  N   2.18539654290930      1.00957295876904     -1.95304066731449
