16
Coordinates from ORCA-job run
  C   -0.48446380466342      0.46170118596295     -0.09259800209875
  C   0.98738617171725      0.13741939541082      0.18847662651469
  F   -0.48832965573223      1.62371057304885     -0.83509352938737
  H   1.39791768137933      0.97986518972975      0.75621994515925
  C   -1.25389336011902     -0.61061647632893     -0.80005508952742
  H   -1.36818030768131     -1.48524221782375     -0.15868218945266
  H   -0.69923060549977     -0.88940577356813     -1.69472130967298
  H   -2.24053921769664     -0.23572908472405     -1.06484417785916
  N   -1.16980536018656      0.85141970490485      1.21804501990453
  O   -2.38395612568523      0.69120890240199      1.27880937922061
  O   -0.46414082368387      1.35823097606308      2.08727695777924
  N   1.64512914767807     -0.10497872196398     -1.09320200701281
  H   2.57395694403295     -0.47614023976304     -0.93656598301446
  H   1.73878766528243      0.77865824739165     -1.57982813404331
  C   1.06841695099790     -1.05808965532470      1.03014527392590
  N   1.13994469986010     -2.02301200541736      1.69461721956471
