16
Coordinates from ORCA-job run
  C   -0.46628754238988      0.33829743529497      0.14222371472041
  C   0.83471855666659     -0.42261301455552     -0.11496626917596
  F   -0.15003247769280      1.56318578058147      0.65025156493077
  H   0.56044623656246     -1.43429408285197     -0.42414178193711
  C   -1.39235265412514      0.48985316019824     -1.03455386414353
  H   -2.29059792792329      1.02020831492017     -0.71335866200802
  H   -1.67204175729285     -0.48629035129234     -1.42910653251527
  H   -0.89886329484233      1.07532183940080     -1.81112987936800
  N   -1.18534830574650     -0.43565535141346      1.23841001161469
  O   -1.45708892266799     -1.59624072003631      0.94941369506606
  O   -1.44857612948445      0.14820343495701      2.27644576825652
  N   1.56824695189222     -0.50512619838341      1.13233877628770
  H   2.35107822049239     -1.14001033633322      1.04689235504909
  H   1.91786117968070      0.40738168656341      1.39763203179181
  C   1.55852185006035      0.22825397962221     -1.22441713996923
  N   2.17031601681051      0.74852442332795     -2.08193378859994
