16
Coordinates from ORCA-job run
  C   -0.42417854653322      0.32739699230551      0.09244115685192
  C   0.92750441962890     -0.36425445559739     -0.16865073528783
  F   -0.17756268471595      1.57034078609097      0.59156432561767
  H   0.71637064617212     -1.37323818928520     -0.53295716565317
  C   -1.37060987672101      0.41065212600912     -1.07444707732778
  H   -0.91360876468038      1.00883574446361     -1.86361048932782
  H   -1.59890354477460     -0.58537240694909     -1.45277440112134
  H   -2.29439459510133      0.89741101350060     -0.75571205215134
  N   -1.08028709553902     -0.47429952941329      1.20600436942659
  O   -1.26635182538788     -1.66042754460342      0.94498824889935
  O   -1.35569984555705      0.09818410196614      2.25005620083026
  N   1.78807903163610     -0.46655578178739      0.99024884941081
  H   1.45668553723048     -1.17998865069242      1.62636306102610
  H   1.84765989460904      0.42024935682213      1.47548312653350
  C   1.61118000139764      0.38038112593482     -1.23642269167122
  N   2.13411724833617      0.99168531123530     -2.09057472605570
