16
Coordinates from ORCA-job run
  C   -0.44392128483819      0.47606116562459     -0.10267593636291
  C   1.04679681486444      0.18748554435913      0.17907686494938
  F   -0.47019830501123      1.57367101065170     -0.92667843216546
  H   1.43576615785275      1.09627341311695      0.65129102398811
  C   -1.23628748578745     -0.64038243538635     -0.71527437297248
  H   -2.26883632874585     -0.32153306869347     -0.85712316550198
  H   -1.22680377536277     -1.52536034397456     -0.08129619891939
  H   -0.80996211445568     -0.87800283743797     -1.69074617431509
  N   -1.05620431666595      0.93405001467404      1.21375871167520
  O   -0.63358071264426      2.00078822909196      1.64879703662820
  O   -1.88060451165587      0.19927654965494      1.74937799633820
  N   1.84720515073046     -0.08972435781977     -0.99377007119701
  H   1.77472310902009      0.67609827794470     -1.65155392317865
  H   1.56742229989852     -0.95107607991251     -1.44494848798675
  C   1.15090761182303     -0.91653107752444      1.13773315734841
  N   1.20357769097796     -1.82109400436896      1.88403197167222
