16
Coordinates from ORCA-job run
  C   -0.43173974086558      0.32820571863959      0.02495394652261
  C   0.94271471276313     -0.36571542182599     -0.02671694735325
  F   -0.25460488811383      1.58921295403591      0.50823922701665
  H   0.77966047226506     -1.39146653678964     -0.36815636996558
  C   -1.21331322528428      0.36624988242691     -1.26043605935756
  H   -2.17319272217244      0.85555549004440     -1.08387376129815
  H   -0.65679536566209      0.94243517814453     -2.00064876665933
  H   -1.38526844817465     -0.64319845210154     -1.63323856567853
  N   -1.23269082872703     -0.43695814398732      1.06767733665420
  O   -1.38672074471025     -1.63125052522904      0.82370046287131
  O   -1.64106602986518      0.16952686861219      2.04705934074739
  N   1.64464624961370     -0.40986095298662      1.23762489740383
  H   1.63422261851944      0.49660707446114      1.68847094634147
  H   1.23683093777404     -1.09993015557714      1.85462677411701
  C   1.75740194490395      0.33088789828588     -1.03261315324386
  N   2.38191505773602      0.90069912384675     -1.84666930811822
