16
Coordinates from ORCA-job run
  C   -0.45417461522698      0.45776541049296     -0.08538921851696
  C   1.04531418935097      0.19815641489726      0.21707551372335
  F   -0.49785384386855      1.49189277816722     -0.97692389271171
  H   1.39195748608710      1.03091002213052      0.84029079838425
  C   -1.23650124150614     -0.71237306368160     -0.61677471189805
  H   -1.29169425919458     -1.50801254993367      0.12556898989168
  H   -0.75635210710604     -1.09208855610399     -1.52017353702611
  H   -2.24293651490217     -0.37775801186179     -0.87453279473834
  N   -1.13096309661862      0.95431277372541      1.18062920537709
  O   -0.94008642666028      0.26149996672630      2.17609917688249
  O   -1.81381182058299      1.96623019196654      1.10768985355437
  N   1.88213515547953      0.15248342168234     -0.96747885357185
  H   1.73767722980725      0.98297402839465     -1.52729636044842
  H   1.68301741389571     -0.66644519970173     -1.52830800304416
  C   1.22736650726461     -1.04971455908206      0.96388483907004
  N   1.39590594378119     -2.08783306781838      1.48463899507235
