16
Coordinates from ORCA-job run
  C   -0.47850174848730      0.34046683027367      0.08539973419388
  C   0.84084551281744     -0.42566503505824     -0.01542109815438
  F   -0.21888520646169      1.56726195677168      0.62026210244579
  H   0.60148180634304     -1.43821291796059     -0.34983857575327
  C   -1.26086074391779      0.48801590175781     -1.19184064809331
  H   -1.48764826291318     -0.48954152714834     -1.61643638103371
  H   -0.68159092065293      1.07612724241015     -1.90488994624259
  H   -2.19351216703375      1.01407271220929     -0.97913185443193
  N   -1.32251888666211     -0.42486641250988      1.09467912771672
  O   -1.56535011983372     -1.58547519389472      0.78090901934341
  O   -1.70142310649487      0.16522268158279      2.09270232383258
  N   1.42375086585041     -0.50450061717340      1.30913632084394
  H   2.20963534685373     -1.14137746854817      1.31795372533775
  H   1.74194459534842      0.40827370710428      1.61052761518452
  C   1.69124207823161      0.21844777741740     -1.03557437328430
  N   2.40039095701272      0.73275036276628     -1.81843709190512
