16
Coordinates from ORCA-job run
  C   -0.50680025201585      0.25217469014012      0.17794088475053
  C   0.87815755576677     -0.31463190125653     -0.13476261550977
  F   -0.35340415942980      1.31300721273137      1.01999177548092
  H   0.72900390468064     -1.22327737063082     -0.72335492276210
  C   -1.34558998167438      0.64952116745360     -1.00705555817208
  H   -1.48708553633528     -0.19779435393957     -1.67715394385610
  H   -0.85515073954351      1.46496979421599     -1.54001757462074
  H   -2.31841082989310      0.99638622736270     -0.65380817202853
  N   -1.23325887835070     -0.83939046583957      0.95135992723453
  O   -1.63564857578609     -0.57858327573143      2.07280562253006
  O   -1.36833581151813     -1.89418373611551      0.34029005117359
  N   1.51531165039782     -0.67558928550588      1.11604171663334
  H   1.75144353403829      0.15485715735828      1.64508068998402
  H   2.36113730779504     -1.20440442461992      0.94809139311168
  C   1.62142698460609      0.66127435283576     -0.95585996367296
  N   2.24620382726238      1.43566421154140     -1.58058931027639
