16
Coordinates from ORCA-job run
  C   -0.45539287451754      0.46438115810780     -0.11062358255418
  C   1.03670837533651      0.21701706577703      0.20189004668234
  F   -0.49575796667468      1.56405312724613     -0.93097294687984
  H   1.38980216739004      1.13430962831458      0.68555460938888
  C   -1.20171725955633     -0.67225165045849     -0.74371178748517
  H   -2.24068657511867     -0.38452411634888     -0.90442699906803
  H   -0.74902501451577     -0.89183386134478     -1.71157069445803
  H   -1.17778452451182     -1.55988307834959     -0.11365102284759
  N   -1.10806016489157      0.89902852848195      1.19431134578777
  O   -0.72478418581094      1.97525623335894      1.64219747690308
  O   -1.92257090140827      0.13915429701241      1.70966889302485
  N   1.86923690968556     -0.03326980736347     -0.95441002963260
  H   1.62399965901522     -0.90075892917008     -1.41384925286683
  H   1.78980423829065      0.73232829589766     -1.61156278309560
  C   1.15163440397378     -0.88739225940511      1.15880967803748
  N   1.21459371331383     -1.79361463175609      1.90234704906349
