16
Coordinates from ORCA-job run
  C   -0.47465720333717      0.49205608892912     -0.10446152473383
  C   0.98274658502358      0.08574449548968      0.16039484219066
  F   -0.41682559682575      1.63485961517753     -0.86274147942151
  H   1.43718411410836      0.92532765025923      0.70578992927568
  C   -1.33134019305824     -0.53427889559574     -0.78006515437662
  H   -0.86699216864585     -0.78311272847289     -1.73315199690987
  H   -1.41773991812565     -1.43244692818113     -0.17148994428591
  H   -2.32716850824870     -0.12250015666084     -0.94589242772729
  N   -1.05541717434695      0.92046676643596      1.23886195079552
  O   -1.90988832869135      0.20191786965832      1.74792501647362
  O   -0.58436799604214      1.94776270637218      1.71653979970422
  N   1.61230966139879     -0.21009860088360     -1.12072788942582
  H   1.75756100970540      0.65961006448731     -1.61967051121018
  H   2.51462261304241     -0.64487275679162     -0.97252324650006
  C   1.01732968189175     -1.09522402018653      1.02530594811975
  N   1.06264342215151     -2.04421117003699      1.71490668803165
