16
Coordinates from ORCA-job run
  C   -0.55514274712478      0.48488587628339     -0.07234661248656
  C   0.96543051961289      0.29207654023714     -0.16861570011558
  F   -0.79181622505083      1.82660307993561     -0.05409831382033
  H   1.25876913362008      0.93916521741072     -1.00255033065498
  C   -1.34238701933646     -0.17355593446454     -1.17206865407832
  H   -2.39701886242912      0.08030310248761     -1.04738086417009
  H   -0.99384559403292      0.20682733848707     -2.13351830818682
  H   -1.20344025971398     -1.25184194616531     -1.14885948252071
  N   -1.05117899468863     -0.05767412345089      1.26132500319524
  O   -1.82475385022538      0.62902597773057      1.90909213748793
  O   -0.64662517995800     -1.18246128261986      1.54953425937472
  N   1.33332444234851     -1.06744099397994     -0.50931124446408
  H   2.31292092348357     -1.10312337063498     -0.76180139403838
  H   1.17873339021221     -1.67393536593078      0.28631828835272
  C   1.60721039059963      0.83330765570863      1.04817079149195
  N   2.14881993268319      1.21783822896557      2.01711042463325
