16
Coordinates from ORCA-job run
  C   -0.51843699436329      0.52811600906614     -0.02588460362071
  C   0.97651952729413      0.22476696111576     -0.20538446206156
  F   -0.64871987498187      1.88164665725321      0.05645744285994
  H   1.27903931431049      0.88143095568224     -1.02846466624911
  C   -1.40474335619806     -0.02157945415745     -1.10967299476758
  H   -1.07200860343566      0.36958417994008     -2.07233988437003
  H   -2.42912213653928      0.30723853459506     -0.92387730036472
  H   -1.35024928340055     -1.10730584479381     -1.13387617168059
  N   -0.99215191342132     -0.03201374332591      1.30876577187989
  O   -0.66765992606550     -1.19713141667840      1.53012114319209
  O   -1.67481543491505      0.68468801233991      2.02287177812578
  N   1.22137861336190     -1.14334202824411     -0.61405649243980
  H   2.18242034862031     -1.24399623077935     -0.91572854724712
  H   1.05552543241814     -1.76900230879723      0.16413842814882
  C   1.71450027180351      0.66676510165245      0.99703319325249
  N   2.32952401551210      0.97013461513142      1.95089736534220
