16
Coordinates from ORCA-job run
  C   -0.51728277236031      0.53630449589895     -0.08206330115470
  C   0.97943956423612      0.23084625271526      0.08675370576706
  F   -0.62029360530797      1.72814515314120     -0.73721021548445
  H   1.41458244388838      1.14144450124435      0.50783768836895
  C   -1.31199650811458     -0.51662963650820     -0.79381883852948
  H   -1.24329277740914     -1.47769049960498     -0.28489388410961
  H   -2.35925465168944     -0.21929793514177     -0.83704816234660
  H   -0.92224833976506     -0.59597176194392     -1.80898945935457
  N   -1.05806643392877      0.79966928489218      1.32143274832310
  O   -0.54924924766166      1.75164510634075      1.90624942050690
  O   -1.92630987484376      0.05230498432415      1.76024416912447
  N   1.57238490402207     -0.03002569933406     -1.21223486448234
  H   2.54078624046592      0.25994983257009     -1.22195427643012
  H   1.53531911419284     -1.01551307374730     -1.43968781388498
  C   1.15613546606491     -0.86342505378198      1.05822963492217
  N   1.31034647821045     -1.78075595106473      1.77615344876419
