16
Coordinates from ORCA-job run
  C   -0.51141047524542      0.47423337377017     -0.05959608282528
  C   1.03202202515982      0.33833382454855     -0.09685766357658
  F   -0.80068838660589      1.80435472307965     -0.05968959335794
  H   1.33317497920313      0.98597858321302     -0.92884378417787
  C   -1.22937339985815     -0.20963230137038     -1.19270965149109
  H   -0.85223401466113      0.17704956477708     -2.14188930469974
  H   -2.29533875574056      0.01564938453457     -1.12499895733053
  H   -1.08855619561950     -1.28774580637033     -1.14986185386688
  N   -1.02169658916200     -0.09076175735799      1.25439727427732
  O   -0.76972546623954     -1.28238684805078      1.43086925919199
  O   -1.62190178448256      0.65071267784243      2.01566266634648
  N   1.60293507353237     -0.96995458212468     -0.31290088997355
  H   1.23298287357730     -1.63471698893163      0.35433763291409
  H   1.41526502299971     -1.29472667023394     -1.25175561550832
  C   1.58060113550125      0.93150972217933      1.13249778539289
  N   1.99494395764116      1.39210310049496      2.12933877868502
