16
Coordinates from ORCA-job run
  C   -0.41751662560350      0.48802715687719     -0.06181340892359
  C   1.05931463539202      0.11822718340699      0.23233511976254
  F   -0.38969867228569      1.56558726059833     -0.90313392587136
  H   1.45458205875667      0.88987611772103      0.90264522334169
  C   -1.27088026511513     -0.60135512903076     -0.65251205029081
  H   -0.80911372331429     -0.97023615059685     -1.57003701605982
  H   -1.38483503804736     -1.42645027733007      0.05067063724282
  H   -2.25026195839960     -0.18725905815537     -0.89850444557505
  N   -1.07921869856422      0.96882129743660      1.21882113730624
  O   -0.83090990528086      0.30477777095080      2.22147308682706
  O   -1.82001707336263      1.93876095822792      1.14292612587275
  N   1.89957303301515      0.08166793040946     -0.95046754014233
  H   1.81361312138187      0.94883294516074     -1.46467637105829
  H   1.64975392901531     -0.68974246928358     -1.55615668865962
  C   1.15326930650359     -1.17732013066066      0.91081332812325
  N   1.22334587590866     -2.25221540573177      1.37661678810451
