16
Coordinates from ORCA-job run
  C   -0.51101264332704      0.54477793600340     -0.03757139410844
  C   0.97793014894062      0.21241371938856      0.14938758593659
  F   -0.58669906578654      1.80591347844072     -0.55214917377000
  H   1.39818779612118      1.06516210906405      0.68974931487092
  C   -1.28076988041511     -0.41233442179831     -0.89655791556834
  H   -1.23753329217492     -1.42567685086750     -0.49829440989672
  H   -2.32389321437243     -0.10194238876121     -0.94715001173730
  H   -0.85059206051399     -0.37871575897676     -1.89782639318658
  N   -1.10423354976266      0.64673843983273      1.36588892971987
  O   -1.99918129395352     -0.13191384511401      1.67798421097162
  O   -0.60811748408035      1.51385851049061      2.07949011409111
  N   1.61838552015196      0.10145209185921     -1.14845289358079
  H   1.58945479699148     -0.85068667830300     -1.49028551574993
  H   2.58644859249970      0.38654077454305     -1.08940108610152
  C   1.11420344715805     -0.98891717185019      0.99191336272927
  N   1.21742218252358     -1.98766994395136      1.60227527538024
