16
Coordinates from ORCA-job run
  C   -0.43260574999103      0.49573792184273     -0.03445599378439
  C   1.04291417570213      0.13146712360152      0.24028792234819
  F   -0.41287797966089      1.71694834000481     -0.66119275127793
  H   1.42991422488727      0.93926510166472      0.87104715253621
  C   -1.22158161972859     -0.48363647052165     -0.85171697519769
  H   -2.24306913790543     -0.12218238762146     -0.96986160663236
  H   -0.76574519540847     -0.56252803516134     -1.83960924784028
  H   -1.24889177329295     -1.46300939479957     -0.37696629328389
  N   -1.08167758500506      0.73789070980271      1.32098147511806
  O   -0.65735304799359      1.70679313353188      1.94313539507618
  O   -1.93417256557348     -0.05987572839911      1.69952546318294
  N   1.87845872954745      0.03909605782871     -0.93718305015321
  H   1.84208277561746      0.90727916224249     -1.45624753827454
  H   1.59870043491412     -0.72564996312620     -1.53786023272168
  C   1.09655244996638     -1.12005072068201      1.00145929628064
  N   1.10935186392469     -2.13754485020822      1.58665698462376
