13

C	0.0	0.0	0.0
C	-0.497256	0.290656	-1.399255
Br	1.947892	0.0	0.0
H	-0.162712	-0.467274	-2.103304
H	-0.266364	0.829337	0.658418
H	-1.594431	0.33935	-1.348811
N	-0.500739	-1.292236	0.383803
H	-0.281471	-1.45147	1.360817
H	-1.52222	-1.22394	0.313747
N	-0.026929	1.6025	-1.906751
O	-0.072019	2.56052	-1.138679
O	0.341803	1.659011	-3.080072
Br	-3.709019	0.0	0.0
