13

C	0.0	0.0	0.0
C	-0.51686	-0.092017	-1.42717
Br	1.953224	0.0	0.0
H	-0.196138	0.772674	-2.002143
H	-0.260291	1.006885	0.346392
H	-1.609879	-0.158168	-1.369117
N	-0.480069	-1.071689	0.815893
H	-1.492218	-1.126611	0.66966
H	-0.328426	-0.839274	1.790555
N	-0.019204	-1.286028	-2.156704
O	0.814846	-1.097759	-3.047523
O	-0.47202	-2.382412	-1.837992
Br	-3.732593	0.0	0.0
