13

C	0.0	0.0	0.0
C	-0.453412	-0.16889	-1.436832
Br	1.996454	0.0	0.0
H	-0.079121	0.634138	-2.067565
H	-0.28222	1.006135	0.306788
H	-1.554986	-0.193914	-1.42736
N	-0.518138	-0.934701	0.884063
H	-0.253476	-1.88674	0.696843
H	-0.479851	-0.673632	1.853522
N	0.006237	-1.42353	-2.094129
O	0.08131	-2.451005	-1.420903
O	0.242717	-1.3647	-3.299419
Br	-3.780882	0.0	0.0
