13

C	0.0	0.0	0.0
C	-0.552958	-0.285092	-1.378222
Br	1.99058	0.0	0.0
H	-1.651934	-0.317329	-1.260764
H	-0.246821	1.037952	0.221733
H	-0.255635	0.472285	-2.099244
N	-0.529609	-0.827382	0.987731
H	-0.331922	-0.533412	1.93001
H	-0.386337	-1.810076	0.826557
N	-0.119153	-1.583985	-1.955316
O	-0.020218	-2.554455	-1.204496
O	0.072006	-1.622545	-3.16879
Br	-3.893603	0.0	0.0
