15

C	-0.360741	-0.039304	-1.50325
C	0.0	0.0	0.0
Br	-2.3167	-0.225313	-1.741548
H	1.099356	0.0	0.0
C	0.002966	1.229751	-2.12923
N	0.289933	2.253477	-2.631769
C	0.35048	-1.205972	-2.176536
H	1.422736	-1.096307	-1.985737
H	0.150844	-1.202921	-3.248839
H	0.001302	-2.147161	-1.748742
C	-0.44987	-1.215271	0.673509
N	-0.797127	-2.20199	1.208324
C	-0.515933	1.185347	0.674058
N	-0.932151	2.140109	1.217674
Cl	3.143443	0.0	0.0
