15

C	-0.516056	-0.002863	-1.463208
C	0.0	0.0	0.0
Br	0.239803	1.55254	-2.379674
H	1.096514	0.0	0.0
C	-0.031612	-1.207794	-2.134962
N	0.286401	-2.21712	-2.646106
C	-2.038503	0.068548	-1.555026
H	-2.474232	-0.799526	-1.053429
H	-2.393907	0.982036	-1.075213
H	-2.351698	0.071281	-2.599997
C	-0.478956	-1.205835	0.680168
N	-0.882909	-2.187665	1.184542
C	-0.485655	1.184178	0.708231
N	-0.899823	2.12557	1.276167
Cl	3.130578	0.0	0.0
