15

C	-0.364309	-0.037048	-1.501987
C	0.0	0.0	0.0
Br	-2.321057	-0.230604	-1.734489
H	1.099405	0.0	0.0
C	-0.008855	1.235187	-2.124689
N	0.270426	2.260684	-2.627173
C	0.349297	-1.198707	-2.181476
H	1.422308	-1.085014	-1.996643
H	0.006392	-2.142408	-1.754128
H	0.144221	-1.194178	-3.252885
C	-0.447795	-1.216577	0.673061
N	-0.790349	-2.205987	1.205959
C	-0.515017	1.184276	0.677252
N	-0.930432	2.138007	1.223237
Cl	3.144524	0.0	0.0
