15

C	-0.406745	0.019278	-1.497158
C	0.0	0.0	0.0
Br	0.229776	-1.643384	-2.314062
H	1.097332	0.0	0.0
C	-1.860651	0.045775	-1.655519
N	-3.028952	0.099873	-1.779227
C	0.262178	1.199267	-2.197052
H	0.05461	1.165803	-3.267776
H	-0.126725	2.134463	-1.785981
H	1.338889	1.141052	-2.0172
C	-0.515114	-1.166929	0.711201
N	-0.926058	-2.102456	1.291487
C	-0.46862	1.226876	0.646215
N	-0.834871	2.22756	1.141816
Cl	3.173777	0.0	0.0
