15

C	-0.506402	-0.180763	-1.456705
C	0.0	0.0	0.0
Br	0.228901	1.279737	-2.53838
H	1.107346	0.0	0.0
C	0.002717	-1.436909	-2.003327
N	0.322729	-2.467456	-2.472047
C	-2.029755	-0.150705	-1.561604
H	-2.335787	-0.276133	-2.601084
H	-2.45075	-0.964552	-0.964611
H	-2.404689	0.804642	-1.190824
C	-0.470633	-1.120543	0.813525
N	-0.866962	-2.026345	1.450183
C	-0.494499	1.254398	0.563137
N	-0.926038	2.249732	1.015661
Cl	3.125371	0.0	0.0
