15

C	-0.523447	-0.073366	-1.459065
C	0.0	0.0	0.0
Br	0.234943	1.434274	-2.455336
H	1.102509	0.0	0.0
C	-0.057025	-1.30591	-2.091234
N	0.211455	-2.31758	-2.62676
C	-2.046322	0.001032	-1.541463
H	-2.39242	0.940407	-1.107413
H	-2.368879	-0.051478	-2.582128
H	-2.481117	-0.837033	-0.989561
C	-0.475424	-1.170186	0.739231
N	-0.878662	-2.116512	1.307937
C	-0.47859	1.217637	0.652371
N	-0.885878	2.189642	1.172022
Cl	3.132019	0.0	0.0
