16

C	0.0	0.0	0.0
C	-0.384025	-0.063948	-1.490147
Cl	1.788449	0.0	0.0
H	0.12611	0.757799	-1.996528
H	-0.304379	0.997705	0.323991
C	-0.59351	-1.037167	0.925361
H	-1.684099	-0.999178	0.844425
H	-0.323397	-0.79828	1.956057
H	-0.243288	-2.036142	0.679953
N	-1.752912	-0.108595	-1.81251
H	-2.440252	-0.26052	-1.070359
H	-2.044389	0.67937	-2.367136
N	0.297345	-1.277461	-2.155297
O	0.896919	-1.058546	-3.207113
O	0.138597	-2.38634	-1.655377
Cl	-4.298065	0.0	0.0
