16

C	0.0	0.0	0.0
C	-0.548474	0.366561	-1.37842
Cl	1.790217	0.0	0.0
H	-1.617308	0.563767	-1.222533
H	-0.292543	0.790342	0.690527
C	-0.515529	-1.341992	0.469013
H	-0.159791	-1.546368	1.480786
H	-0.164554	-2.142787	-0.186293
H	-1.607913	-1.301977	0.46597
N	-0.377134	-0.572748	-2.433179
H	-1.138294	-1.236287	-2.413968
H	0.514446	-1.047875	-2.383386
N	0.068796	1.699238	-1.764412
O	0.77447	1.765225	-2.764498
O	-0.163716	2.633127	-0.999065
Cl	-3.701163	0.0	0.0
