16

C	0.0	0.0	0.0
C	-0.395333	0.028779	-1.490456
Cl	1.788476	0.0	0.0
H	0.063036	0.914046	-1.933925
H	-0.30068	0.973372	0.395148
C	-0.58163	-1.099413	0.859219
H	-1.672126	-1.007813	0.864396
H	-0.22697	-0.983579	1.885895
H	-0.297286	-2.08251	0.48937
N	-1.766005	-0.043811	-1.824854
H	-2.145703	0.860792	-2.059023
H	-2.393148	-0.435749	-1.124069
N	0.322793	-1.101176	-2.232705
O	1.039324	-0.78572	-3.181293
O	0.097417	-2.252259	-1.873628
Cl	-4.309276	0.0	0.0
