16

C	0.0	0.0	0.0
C	-0.413998	-0.075225	-1.485299
Cl	1.790796	0.0	0.0
H	0.125044	0.710941	-2.014657
H	-0.292489	1.003091	0.321055
C	-0.57803	-1.025641	0.949734
H	-0.253907	-2.032262	0.695551
H	-0.262366	-0.78903	1.968376
H	-1.669993	-0.968888	0.909229
N	-1.792037	-0.02053	-1.812673
H	-2.430738	-0.461811	-1.151654
H	-2.11524	0.933333	-1.901356
N	0.141283	-1.344223	-2.110503
O	-0.31553	-2.410837	-1.706698
O	0.9718	-1.224034	-3.009442
Cl	-4.355314	0.0	0.0
