16

C	-0.42855	0.075093	-1.440103
C	0.0	0.0	0.0
Cl	-2.249212	0.046513	-1.57632
H	1.091621	0.0	0.0
H	-0.134499	1.041525	-1.844157
C	0.171764	-1.066564	-2.224832
H	1.255422	-1.030769	-2.069574
H	-0.058837	-0.975902	-3.288661
H	-0.202223	-2.016116	-1.844464
N	-0.424673	-1.181502	0.669173
H	-1.355199	-1.069451	1.050942
H	0.219378	-1.360247	1.431009
N	-0.382498	1.261379	0.71078
O	-0.190032	2.327847	0.123634
O	-0.789055	1.177068	1.874454
H	2.661534	0.0	0.0
