16

C	-0.509521	0.060445	-1.444114
C	0.0	0.0	0.0
Cl	-0.167554	-1.515247	-2.247481
H	1.090576	0.0	0.0
H	-1.601996	0.147712	-1.448612
C	0.161441	1.17273	-2.227835
H	-0.134168	2.144616	-1.827786
H	-0.119749	1.128782	-3.282227
H	1.244442	1.0713	-2.119989
N	-0.450884	-1.088154	0.806017
H	-1.300758	-1.510958	0.462469
H	0.292712	-1.773255	0.835605
N	-0.521479	1.279273	0.611193
O	0.227669	2.25065	0.690839
O	-1.70649	1.27935	0.959997
H	2.843875	0.0	0.0
