16

C	-0.510998	0.033007	-1.443436
C	0.0	0.0	0.0
Cl	-0.143552	-1.546629	-2.226141
H	1.090581	0.0	0.0
H	-1.604284	0.103066	-1.448505
C	0.140552	1.147199	-2.239984
H	-0.173095	2.11849	-1.85204
H	-0.140284	1.086058	-3.293777
H	1.224992	1.066449	-2.13152
N	-0.450154	-1.076676	0.82466
H	0.302624	-1.750718	0.877049
H	-1.287807	-1.5204	0.475797
N	-0.524096	1.287984	0.590752
O	0.233367	2.249635	0.693265
O	-1.719779	1.303075	0.901218
H	2.847609	0.0	0.0
