12

C	-0.205296	0.151125	0.073418
C	-0.587638	0.573811	-1.341674
Br	1.472408	-0.872971	0.100025
H	0.216925	1.159839	-1.804113
H	-1.052044	-0.536907	0.380028
H	-1.458387	1.233599	-1.187084
C	-0.041461	1.293347	0.950899
N	0.060567	2.236692	1.646507
N	-0.894267	-0.616988	-2.118765
H	-1.60619	-1.091658	-1.531183
H	-1.337391	-0.323673	-2.982856
F	-2.430396	-1.25537	-0.032894
