12

C	-0.224892	0.172749	0.077805
C	-0.581657	0.582566	-1.364131
Br	1.40114	-0.943875	0.093612
H	0.253884	1.118777	-1.829998
H	-1.100509	-0.489928	0.381994
H	-1.419881	1.279134	-1.250247
C	0.007464	1.312047	0.939532
N	0.158297	2.267766	1.610036
N	-1.029078	-0.519136	-2.191723
H	-0.250337	-1.160003	-2.304252
H	-1.722092	-0.994321	-1.584987
F	-2.428127	-1.234022	-0.018869
