12

C	-0.231546	0.182698	0.025594
C	-0.588773	0.125977	-1.471834
Br	1.398906	-0.868857	0.384328
H	0.243872	0.496738	-2.081436
H	-1.10402	-0.356464	0.520608
H	-1.430674	0.819163	-1.577964
C	-0.002622	1.532687	0.494352
N	0.146176	2.647694	0.841543
N	-1.031399	-1.179298	-1.91869
H	-1.724537	-1.444691	-1.194477
H	-0.251059	-1.82159	-1.824535
F	-2.431045	-1.193056	0.367468
