10
Coordinates from ORCA-job run
  C   -0.97601123486314     -0.03260598303888     -0.58914784908877
  C   0.19655587546143      0.62053459133695      0.09878743138015
  Br  -1.96024353394924     -1.16791315905332      0.63741778486261
  H   0.71256276568492      1.28885187755850     -0.59656958132713
  H   -0.64071023326912     -0.65744421089594     -1.41343974820899
  H   -1.66720799103111      0.72768145669383     -0.95086591047299
  H   -0.08443837000218      1.15799089734231      1.00165088357599
  N   1.21368153524071     -0.39856620632275      0.50852476005339
  O   1.52699465704532     -1.23232674042296     -0.33611497949565
  O   1.67881652968240     -0.30520252319775      1.63975720872137
