10
Coordinates from ORCA-job run
  C   -1.07737871060370     -0.08139619646149     -0.36496293382063
  C   0.11835229731359      0.59372485960646      0.25861832733755
  Br  -0.67677789892712     -0.68803309781955     -2.16345084958189
  H   0.52009894954724      1.39835295203486     -0.35305248214682
  H   -1.37502351185024     -0.95267003882287      0.21338468470522
  H   -1.90590771224279      0.62194316554480     -0.43915460293085
  H   -0.13962309171278      0.96586220679835      1.25430875314022
  N   1.23516440517407     -0.38053850254117      0.46872982921163
  O   0.93813052215484     -1.45387987457860      0.98500315305282
  O   2.36196475114688     -0.02336547376079      0.14057612103275
