10
Coordinates from ORCA-job run
  C   -0.97696806251578     -0.30006278017000     -0.32766146349254
  C   0.13063401357211      0.52511648536434      0.29871659719218
  Br  -2.66500682812066      0.63004413961423     -0.13278468836257
  H   0.25320994760928      1.48211874659015     -0.20437033953815
  H   -0.80099459653218     -0.44115307096310     -1.39293619755298
  H   -1.07329296994195     -1.26308114428187      0.17134103095482
  H   -0.02051862686801      0.65576843020347      1.36832121926250
  N   1.40954321039181     -0.22903102224937      0.12505192044613
  O   2.03833207717305     -0.02700658889174     -0.91141222119755
  O   1.70506183523232     -1.03371319521610      1.00573414228815
