15

C	-0.509499	0.018414	-1.443495
C	0.0	0.0	0.0
F	-0.009776	1.102768	-2.088701
H	1.094285	0.0	0.0
N	0.075925	-1.189755	-2.222242
O	-0.241688	-1.220535	-3.410927
O	0.741791	-2.021732	-1.622802
N	-1.915164	0.031734	-1.538694
H	-2.201222	-0.076549	-2.503972
H	-2.34654	-0.673546	-0.954632
C	-0.524995	-1.157045	0.721524
N	-0.989534	-2.088455	1.26598
C	-0.447739	1.23065	0.657514
N	-0.800031	2.215305	1.190443
Cl	3.146534	0.0	0.0
