15

C	-0.524329	-0.000307	-1.438677
C	0.0	0.0	0.0
F	0.010262	1.04229	-2.12654
H	1.094343	0.0	0.0
N	0.038625	-1.248023	-2.182864
O	1.036478	-1.792879	-1.734291
O	-0.574234	-1.556752	-3.20796
N	-1.922643	0.063661	-1.526758
H	-2.211692	-0.087639	-2.486361
H	-2.361882	-0.620385	-0.925789
C	-0.492634	-1.195291	0.683057
N	-0.931949	-2.166236	1.176964
C	-0.477268	1.204294	0.681051
N	-0.850525	2.167676	1.238139
Cl	3.207771	0.0	0.0
