15

C	-0.49632	-0.042072	-1.446285
C	0.0	0.0	0.0
F	0.120802	0.983914	-2.124707
H	1.093874	0.0	0.0
N	-0.029905	-1.308763	-2.154709
O	-0.334209	-1.357906	-3.342944
O	0.574723	-2.156325	-1.516183
N	-1.896835	-0.027547	-1.566956
H	-2.291221	0.758466	-1.066027
H	-2.157318	0.006985	-2.543972
C	-0.529211	-1.102522	0.799747
N	-0.974564	-1.945533	1.485336
C	-0.455589	1.271015	0.5703
N	-0.857524	2.29282	0.988458
Cl	3.145241	0.0	0.0
