15

C	-0.537087	-0.012528	-1.431796
C	0.0	0.0	0.0
F	-0.021564	1.033302	-2.123225
H	1.094356	0.0	0.0
N	0.001487	-1.256944	-2.184427
O	0.73648	-2.041609	-1.598125
O	-0.404225	-1.351811	-3.343076
N	-1.942214	0.042978	-1.498178
H	-2.252491	-0.11599	-2.44856
H	-2.374863	-0.616419	-0.864763
C	-0.517903	-1.150692	0.737526
N	-0.982124	-2.080965	1.284428
C	-0.447721	1.235939	0.648221
N	-0.800516	2.226303	1.170771
Cl	3.146853	0.0	0.0
