15

C	-0.516096	-0.019351	-1.441143
C	0.0	0.0	0.0
F	0.119077	0.996567	-2.124606
H	1.093912	0.0	0.0
N	-0.079408	-1.28873	-2.164529
O	-0.556322	-1.424835	-3.289614
O	0.707469	-2.037913	-1.605075
N	-1.914525	0.032537	-1.536695
H	-2.197281	0.002035	-2.507905
H	-2.274316	0.861619	-1.081928
C	-0.512413	-1.138337	0.75956
N	-0.934576	-2.038411	1.383647
C	-0.465657	1.247943	0.609551
N	-0.877101	2.255128	1.052274
Cl	3.171963	0.0	0.0
