15

C	-0.247058	-0.003819	-1.507778
C	0.0	0.0	0.0
F	-0.072364	-1.307209	-1.963094
H	1.098926	0.0	0.0
N	-1.704552	0.26644	-1.890024
O	-1.905953	0.522436	-3.074593
O	-2.557446	0.156394	-1.015402
N	0.560575	0.948448	-2.115221
H	1.524727	0.854787	-1.795111
H	0.482186	0.920699	-3.120565
C	-0.527712	-1.176356	0.678446
N	-0.935835	-2.126956	1.233095
C	-0.455181	1.240463	0.618186
N	-0.801355	2.240874	1.126241
Cl	3.157601	0.0	0.0
