15
Coordinates from ORCA-job run
  C   -0.66131792229982      0.23573943850429      0.18361656824275
  C   0.87477864706723      0.12811509047301      0.24716352303173
  H   -0.89939778390268      1.14998582848546     -0.37073829057307
  H   1.18560073728915     -0.75312007628947      0.81238837100863
  C   -1.16230607628587      0.37534381660733      1.55154092094868
  N   -1.56860409050786      0.45481060630394      2.65059438831784
  C   -1.28538423445667     -0.97753698158245     -0.51162649441352
  H   -0.98307920403190     -1.01630497658740     -1.55923354616961
  H   -2.37273935719804     -0.90314394545823     -0.47590380292254
  H   -0.98557932320032     -1.90568907807572     -0.02093199096657
  C   1.48851112556215      1.33572091527927      0.78723771826923
  N   1.96550228707275      2.31096963129044      1.23520206939706
  N   1.36613584180166     -0.08755291134215     -1.16580788423392
  O   1.15708411620543      0.82614503008571     -1.95508193902332
  O   1.88079523688477     -1.17348238769399     -1.40741961091338
