15
Coordinates from ORCA-job run
  C   -0.54842065092497      0.16307137598327      0.62545268290205
  C   0.93070439423872      0.33780506659158      0.23165092668375
  H   -0.82411844078408      1.10316750400737      1.11984626804076
  H   1.57264385227873      0.30868215214274      1.11887483627174
  C   -0.71079082764321     -0.89346418210280      1.62706133116984
  N   -0.88063554336492     -1.70410400875753      2.45912659364953
  C   -1.46733635512072     -0.03838540377567     -0.58317995668523
  H   -1.27358101160243     -0.99572891823823     -1.06569842669411
  H   -2.50825019181606     -0.02382235453338     -0.25771536862499
  H   -1.32299032534234      0.76953102229224     -1.30393939923214
  C   1.12611779262291      1.59850908163205     -0.47658310331163
  N   1.21822146179562      2.64170250276160     -1.00799328103436
  N   1.43117289043092     -0.80971665395663     -0.63666897529644
  O   0.98258499948319     -1.91659596399441     -0.36874445164002
  O   2.27367795574865     -0.54065122005220     -1.48248967619875
