15
Coordinates from ORCA-job run
  C   -0.50637007237753     -0.13091014804124      0.51564464217175
  C   0.81552039187248      0.41089860322289     -0.05547267544908
  H   -0.40478458798148     -0.09892684945029      1.60532989702738
  H   0.98413730417337      1.41936980627205      0.33336910389691
  C   -0.68072048239131     -1.52920556566595      0.11567647667560
  N   -0.83657767885857     -2.64616184026709     -0.21227006144181
  C   -1.69272987218087      0.72796400187404      0.07061934979996
  H   -1.54397527209521      1.76436190191314      0.38276863915867
  H   -1.81225775807238      0.69695010360922     -1.01355775085893
  H   -2.61071092104422      0.35834172459625      0.52938917378229
  C   0.83324259945920      0.41986128512182     -1.51180298539742
  N   0.78546458907909      0.47221302309802     -2.68415528329093
  N   1.95815968413535     -0.42197625317339      0.49483950409570
  O   2.61203858930917     -1.10241755293942     -0.28346142024456
  O   2.09856348697291     -0.34136224017006      1.71008339007448
