15

C	0.0	0.0	0.0
C	-0.559626	0.080698	-1.429206
F	1.37957	0.0	0.0
H	-1.451887	0.711714	-1.378548
H	-0.358651	-0.902877	0.494871
C	-0.370717	1.193217	0.790654
N	-0.505963	2.178205	1.41408
N	-0.906577	-1.281683	-1.845668
H	-1.798104	-1.473585	-1.385195
H	-1.118033	-1.256071	-2.838738
C	0.455613	0.694037	-2.381063
H	0.805689	1.664081	-2.020659
H	-0.011735	0.845647	-3.358833
H	1.314299	0.031961	-2.501268
Br	-3.64136	0.0	0.0
