15

C	0.0	0.0	0.0
C	-0.452026	-0.211713	-1.477377
F	1.385155	0.0	0.0
H	0.414697	0.159985	-2.040307
H	-0.358245	-0.784966	0.670188
C	-0.40526	1.320565	0.508533
N	-0.606713	2.415732	0.879875
N	-1.619271	0.494041	-1.943678
H	-1.518118	1.492339	-1.79873
H	-2.460347	0.214154	-1.431469
C	-0.621241	-1.703235	-1.729525
H	0.247529	-2.266582	-1.374431
H	-0.750193	-1.882214	-2.797711
H	-1.517969	-2.057799	-1.213305
Br	-4.338787	0.0	0.0
