15

C	0.0	0.0	0.0
C	-0.443396	-0.032288	-1.492705
F	1.385212	0.0	0.0
H	0.400221	0.458417	-1.996932
H	-0.36293	-0.857859	0.570836
C	-0.40459	1.252871	0.659394
N	-0.62119	2.291092	1.16211
N	-1.647783	0.666449	-1.863211
H	-2.472948	0.299279	-1.380915
H	-1.587291	1.645885	-1.609848
C	-0.528266	-1.483715	-1.945305
H	-1.407065	-1.953245	-1.493732
H	0.367613	-2.042649	-1.657706
H	-0.643256	-1.522849	-3.029928
Br	-4.377605	0.0	0.0
