15

C	0.0	0.0	0.0
C	-0.513525	0.116862	-1.422876
F	1.39049	0.0	0.0
H	-1.600512	0.020082	-1.332354
H	-0.347612	-0.941619	0.427301
C	-0.396732	1.124071	0.866682
N	-0.582841	2.01591	1.606441
N	0.003242	-1.046062	-2.148599
H	-0.579864	-1.208802	-2.959552
H	0.944159	-0.852339	-2.473229
C	-0.161705	1.461904	-2.051252
H	-0.510428	1.483607	-3.087024
H	-0.641716	2.285416	-1.517277
H	0.921671	1.623632	-2.046944
Br	-3.759949	0.0	0.0
