15

C	0.0	0.0	0.0
C	-0.451008	-0.167328	-1.488696
F	1.386676	0.0	0.0
H	0.47046	0.073718	-2.034962
H	-0.360378	-0.801921	0.647347
C	-0.39768	1.306248	0.55003
N	-0.590728	2.38701	0.964391
N	-1.498762	0.692195	-1.989239
H	-1.27293	1.66694	-1.824673
H	-2.374809	0.499365	-1.496146
C	-0.831443	-1.620554	-1.736021
H	-0.05635	-2.301267	-1.369193
H	-0.971441	-1.78519	-2.804946
H	-1.774594	-1.833914	-1.226486
Br	-4.134824	0.0	0.0
