15

C	0.0	0.0	0.0
C	-0.559931	0.081031	-1.430284
F	1.379566	0.0	0.0
H	-1.444239	0.725215	-1.385431
H	-0.354629	-0.909538	0.486292
C	-0.390376	1.173066	0.810911
N	-0.56024	2.128322	1.471756
N	-0.925074	-1.278916	-1.836846
H	-1.139656	-1.256626	-2.83032
H	-1.818203	-1.454551	-1.373827
C	0.462948	0.672388	-2.387174
H	-0.001955	0.815771	-3.367172
H	1.315244	0.000193	-2.496663
H	0.823195	1.643491	-2.039887
Br	-3.64498	0.0	0.0
