15

C	0.0	0.0	0.0
C	-0.507427	-0.036557	-1.429946
F	1.390497	0.0	0.0
H	-1.592869	-0.141596	-1.336837
H	-0.34766	-0.890422	0.525326
C	-0.397397	1.21076	0.742881
N	-0.581871	2.17436	1.387348
N	0.034539	-1.257151	-2.030362
H	-0.517748	-1.49116	-2.847265
H	0.987334	-1.087959	-2.336177
C	-0.173976	1.244273	-2.188796
H	0.906337	1.423878	-2.195951
H	-0.516613	1.155656	-3.223649
H	-0.671402	2.108296	-1.742171
Br	-3.757319	0.0	0.0
