13

C	0.0	0.0	0.0
C	-0.529583	0.233708	-1.42366
Cl	1.772385	0.0	0.0
H	-1.635545	0.212455	-1.310557
H	-0.307978	0.863153	0.600481
N	-0.487624	-1.273907	0.446738
H	-1.510828	-1.208046	0.438601
H	-0.196805	-1.420584	1.406693
C	-0.112743	-0.825879	-2.342562
N	0.204934	-1.651787	-3.113839
C	-0.136248	1.543547	-1.941367
N	0.16028	2.603818	-2.349466
Br	-3.626967	0.0	0.0
