13

C	0.0	0.0	0.0
C	-0.39487	0.161309	-1.535212
Cl	1.824031	0.0	0.0
H	0.530307	0.143967	-2.122397
H	-0.329888	0.888843	0.533466
N	-0.453929	-1.153233	0.686049
H	-1.469908	-1.046878	0.781298
H	-0.269106	-1.989389	0.143291
C	-0.995795	1.465812	-1.810356
N	-1.295309	2.567716	-2.084885
C	-1.165256	-0.978554	-2.03426
N	-1.534873	-1.985152	-2.512274
Br	-3.446858	0.0	0.0
