14

C	0.0	0.0	0.0
C	-0.503638	0.044959	-1.446786
F	1.384644	0.0	0.0
H	-1.603484	0.06203	-1.399682
H	-0.314597	-0.965104	0.417518
N	-0.46135	1.155463	0.693116
H	-0.247865	1.043883	1.677574
H	-1.480742	1.162783	0.606068
C	-0.011201	-1.091453	-2.213166
N	0.343394	-2.023023	-2.833078
N	-0.039579	1.317163	-2.098674
O	1.094799	1.328066	-2.571979
O	-0.823726	2.258357	-2.085381
Cl	-3.459708	0.0	0.0
