14

C	0.0	0.0	0.0
C	-0.435458	0.042838	-1.490559
F	1.393467	0.0	0.0
H	-1.526815	0.191979	-1.478324
H	-0.354561	-0.956355	0.388488
N	-0.46626	1.037573	0.838197
H	-0.340853	1.933469	0.383026
H	-1.469724	0.888668	0.955257
C	-0.076172	-1.185085	-2.186435
N	0.172161	-2.20332	-2.715517
N	0.210273	1.210539	-2.172861
O	-0.14976	2.322175	-1.788535
O	1.059376	1.001905	-3.034727
Cl	-3.417579	0.0	0.0
