14

C	0.0	0.0	0.0
C	-0.407521	-0.290888	-1.461259
F	1.404262	0.0	0.0
H	0.541991	-0.432932	-1.990253
H	-0.308135	-0.834609	0.630125
N	-0.422468	1.299678	0.404081
H	-0.170126	1.416076	1.379495
H	-1.445977	1.280272	0.359458
C	-1.124549	0.762818	-2.168753
N	-1.532528	1.625476	-2.852439
N	-1.07924	-1.635127	-1.651088
O	-1.795856	-1.768978	-2.631142
O	-0.730191	-2.526102	-0.885873
Cl	-3.254505	0.0	0.0
