14

C	0.0	0.0	0.0
C	-0.426429	-0.022582	-1.487813
F	1.367839	0.0	0.0
H	0.515863	-0.082604	-2.045444
H	-0.323329	-0.931732	0.467754
N	-0.435822	1.204705	0.632579
H	-0.172672	1.151992	1.610867
H	-1.459393	1.18011	0.593835
C	-1.126304	1.155259	-1.983783
N	-1.509573	2.139922	-2.49522
N	-1.124994	-1.297752	-1.908733
O	-0.781891	-2.318137	-1.322779
O	-1.855025	-1.239454	-2.8861
Cl	-3.27882	0.0	0.0
