14

C	-0.30361	-0.165399	-1.482327
C	0.0	0.0	0.0
F	-1.664814	-0.366587	-1.704983
H	1.104719	0.0	0.0
H	-0.057433	0.762576	-2.012118
N	0.398392	-1.329336	-1.945811
H	1.367931	-1.268121	-1.637916
H	0.387402	-1.35611	-2.957243
N	-0.536293	-1.124906	0.77836
H	0.163115	-1.35931	1.474919
H	-0.585092	-1.915968	0.144236
C	-0.528415	1.271011	0.499037
N	-0.951574	2.290499	0.899231
Br	3.486616	0.0	0.0
