14

C	-0.359103	0.039994	-1.491528
C	0.0	0.0	0.0
F	-0.12719	-1.269032	-1.992499
H	1.09782	0.0	0.0
H	-1.42778	0.211041	-1.664508
N	0.416855	1.024739	-2.128142
H	1.40258	0.903287	-1.90646
H	0.277222	1.026858	-3.128553
N	-0.476499	-1.161893	0.734175
H	0.026738	-1.967466	0.379418
H	-1.465508	-1.304712	0.547304
C	-0.494493	1.223761	0.634666
N	-0.95464	2.170296	1.154653
Br	3.545473	0.0	0.0
