14

C	-0.360941	0.01217	-1.500827
C	0.0	0.0	0.0
F	-0.19738	-1.293377	-1.957056
H	1.098042	0.0	0.0
H	-1.416983	0.269326	-1.658183
N	0.462219	0.880267	-2.278832
H	0.136268	1.834846	-2.214195
H	1.423745	0.834301	-1.943653
N	-0.489623	-1.120451	0.789215
H	0.153266	-1.887549	0.640163
H	-1.398724	-1.413127	0.447662
C	-0.472878	1.271841	0.559782
N	-0.913059	2.289667	0.946986
Br	3.498139	0.0	0.0
