14

C	-0.365855	0.059753	-1.480446
C	0.0	0.0	0.0
F	-0.124037	-1.243082	-2.000934
H	1.104431	0.0	0.0
H	-1.433644	0.225524	-1.644836
N	0.416129	1.049193	-2.103428
H	1.401798	0.917699	-1.882438
H	0.277397	1.062325	-3.105146
N	-0.596758	-1.181356	0.631307
H	-0.234687	-1.978711	0.119703
H	-0.211901	-1.24978	1.567645
C	-0.487352	1.209939	0.663424
N	-0.885276	2.157381	1.23053
Br	3.544722	0.0	0.0
