14

C	-0.507204	-0.166667	-1.424123
C	0.0	0.0	0.0
F	-1.937737	-0.03956	-1.367442
H	1.096941	0.0	0.0
H	-0.180111	0.655704	-2.063229
N	-0.108549	-1.406973	-1.939707
H	-0.550441	-1.610527	-2.823953
H	-0.281444	-2.12881	-1.252807
N	-0.437722	-1.14223	0.803729
H	0.208006	-1.262298	1.574307
H	-1.368202	-0.983745	1.170477
C	-0.462069	1.289004	0.541143
N	-0.83745	2.297783	1.011551
Br	3.5096	0.0	0.0
