14

C	-0.482973	-0.023587	-1.45244
C	0.0	0.0	0.0
F	-0.244804	1.225183	-2.009531
H	1.09888	0.0	0.0
H	0.156306	-0.712533	-2.020175
N	-1.878484	-0.315677	-1.511179
H	-2.124456	-0.759927	-2.384663
H	-2.094516	-0.935418	-0.738971
N	-0.473592	-1.231231	0.683086
H	-0.428827	-1.07066	1.683379
H	0.231725	-1.939185	0.494126
C	-0.528717	1.171784	0.692925
N	-0.932736	2.101779	1.284211
Br	3.499945	0.0	0.0
