17

C	0.0	0.0	0.0
C	-0.386837	-0.270652	-1.476303
F	1.369074	0.0	0.0
H	0.066922	-1.266978	-1.610733
N	-0.352804	1.410828	0.447733
O	-0.142077	1.659828	1.632528
O	-0.7439	2.211435	-0.392759
C	-0.592925	-0.986918	0.961217
H	-0.394724	-1.998258	0.602037
H	-0.167927	-0.858968	1.957583
H	-1.679296	-0.819433	0.973936
C	0.379875	0.612286	-2.369454
N	0.952891	1.291739	-3.136792
N	-1.776315	-0.308858	-1.864435
H	-2.015736	0.559215	-2.327382
H	-2.450922	-0.310815	-1.035026
H	-3.499238	0.0	0.0
