17

C	0.0	0.0	0.0
C	-0.396253	-0.015158	-1.507737
F	1.367353	0.0	0.0
H	0.494773	0.398315	-1.997931
N	-0.317338	1.348369	0.625796
O	-0.234674	2.327502	-0.115434
O	-0.427162	1.401882	1.847171
C	-0.386206	-1.139204	0.899571
H	-0.052705	-2.06277	0.416653
H	-1.463026	-1.130608	1.042937
H	0.153486	-1.011399	1.836558
C	-1.513386	0.804331	-2.011586
N	-2.238767	1.482706	-2.641106
N	-0.539344	-1.417395	-1.897543
H	-0.571781	-1.455165	-2.91042
H	-1.463897	-1.688781	-1.551797
H	-2.693859	0.0	0.0
