13

C	0.0	0.0	0.0
C	-0.55666	0.238287	-1.397582
Cl	1.789461	0.0	0.0
H	-0.275849	1.237408	-1.74477
H	-0.299153	-0.994621	0.332066
H	-1.652662	0.193632	-1.295747
C	-0.505661	1.049344	0.970022
H	-0.163688	2.042361	0.665284
H	-0.132416	0.850071	1.97668
H	-1.597764	1.014602	0.971058
C	-0.10827	-0.746141	-2.377372
N	0.25208	-1.537152	-3.166532
Cl	-3.747233	0.0	0.0
