14

C	0.0	0.0	0.0
C	-0.476915	0.217672	-1.44262
Br	2.015737	0.0	0.0
H	-1.583587	0.128205	-1.306644
H	-0.165636	1.18093	-1.839475
C	-0.343332	1.233054	0.730003
N	-0.539489	2.242236	1.298924
N	-0.522753	-1.117245	0.699718
H	-1.556046	-0.884212	0.6383
H	-0.360931	-1.936908	0.123779
N	0.019409	-0.80046	-2.387544
O	0.41487	-0.409483	-3.48626
O	-0.016232	-1.985622	-2.053471
F	-2.727584	0.0	0.0
