14

C	0.0	0.0	0.0
C	-0.278131	0.280014	-1.509635
Br	2.042779	0.0	0.0
H	0.507536	-0.181641	-2.109063
H	-0.321669	1.350738	-1.701516
C	-0.377788	1.166447	0.804984
N	-0.532142	2.149619	1.429168
N	-0.483881	-1.185708	0.575963
H	-0.327019	-1.943735	-0.080745
H	-1.5321	-0.935444	0.544283
N	-1.523545	-0.310586	-2.094733
O	-2.274004	0.443452	-2.700271
O	-1.588512	-1.537654	-2.10299
F	-2.570269	0.0	0.0
