14

C	0.0	0.0	0.0
C	-0.528146	-0.024066	-1.439924
Br	1.964876	0.0	0.0
H	-1.623482	0.039851	-1.286652
H	-0.083333	0.775714	-2.028192
C	-0.335698	1.338695	0.540946
N	-0.537887	2.405088	0.993199
N	-0.551445	-1.09088	0.726045
H	-0.328331	-0.979406	1.708967
H	-1.588028	-0.905354	0.579615
N	-0.198928	-1.300263	-2.122195
O	0.844523	-1.340436	-2.782806
O	-0.994454	-2.230921	-2.011585
F	-2.774599	0.0	0.0
