14

C	0.0	0.0	0.0
C	-0.492084	-0.100718	-1.453952
Br	1.980776	0.0	0.0
H	-0.217425	0.771074	-2.041924
H	-1.5902	-0.192896	-1.286271
C	-0.370085	1.34728	0.462809
N	-0.533141	2.443523	0.849042
N	-0.496393	-0.963737	0.925603
H	-0.291421	-1.880874	0.542948
H	-1.526478	-0.787417	0.817794
N	0.050662	-1.271413	-2.16817
O	0.541485	-1.084565	-3.282321
O	-0.038434	-2.37977	-1.633918
F	-2.706923	0.0	0.0
