14

C	0.0	0.0	0.0
C	-0.517078	-0.05587	-1.441376
Br	1.964639	0.0	0.0
H	-1.615786	-0.115839	-1.293638
H	-0.192096	0.821554	-1.99582
C	-0.334482	1.354378	0.504222
N	-0.5318	2.419765	0.961241
N	-0.539897	-1.05916	0.778775
H	-0.311057	-0.893981	1.753939
H	-1.576356	-0.883577	0.630729
N	-0.012342	-1.229795	-2.188926
O	-0.458122	-2.337807	-1.900581
O	0.813167	-1.017035	-3.084184
F	-2.761634	0.0	0.0
