14

C	0.000714	0.014349	0.005138
C	-0.517739	0.016453	-1.417481
F	1.383224	-0.081632	0.019841
H	-0.1555	0.905568	-1.932737
H	-1.615115	0.042407	-1.370587
N	-0.170794	1.461402	0.602881
O	-0.17151	2.421181	-0.161742
O	-0.21305	1.526132	1.82722
N	-0.567726	-0.967616	0.78934
H	-0.339261	-0.824947	1.764936
H	-1.589031	-0.96759	0.657517
C	-0.065406	-1.175637	-2.125967
N	0.305209	-2.104889	-2.738896
Cl	-3.608095	-0.352016	0.019525
