13

C	-0.538877	-0.045343	-1.437079
C	0.0	0.0	0.0
Br	-0.041964	1.545468	-2.450784
H	1.094111	0.0	0.0
H	-1.632128	-0.054972	-1.416592
C	-0.087488	-1.237688	-2.144348
N	0.199358	-2.19231	-2.765168
N	-0.426177	-1.227779	0.66418
H	0.323727	-1.546292	1.269142
H	-1.264868	-1.086805	1.215225
C	-0.489602	1.205988	0.679421
N	-0.928097	2.109	1.291194
Br	3.42265	0.0	0.0
