13

C	-0.491501	-0.050301	-1.463178
C	0.0	0.0	0.0
Br	0.153874	1.458276	-2.515759
H	1.095105	0.0	0.0
H	-1.583233	0.026172	-1.488078
C	-0.104628	-1.302467	-2.102754
N	0.176112	-2.319584	-2.619772
N	-0.411681	-1.16836	0.761479
H	0.279749	-1.897043	0.637999
H	-1.325687	-1.510751	0.491522
C	-0.523142	1.217717	0.627952
N	-0.986583	2.173354	1.129914
Br	3.40939	0.0	0.0
