13

C	-0.456698	0.002132	-1.465313
C	0.0	0.0	0.0
Br	0.166003	-1.610297	-2.376227
H	1.10108	0.0	0.0
H	0.025285	0.831125	-1.987454
C	-1.90575	0.086932	-1.606578
N	-3.068378	0.188087	-1.741416
N	-0.579642	-1.142213	0.714097
H	0.010254	-1.94257	0.502125
H	-0.473691	-0.975232	1.709155
C	-0.467024	1.250063	0.60457
N	-0.848443	2.249287	1.090902
Br	3.439978	0.0	0.0
