13

C	-0.478628	-0.016299	-1.462032
C	0.0	0.0	0.0
Br	0.220817	-1.564929	-2.407539
H	1.094014	0.0	0.0
H	-0.083218	0.859035	-1.983479
C	-1.936229	-0.032833	-1.542152
N	-3.111334	-0.04264	-1.575105
N	-0.462421	-1.167083	0.725438
H	0.258073	-1.454441	1.37319
H	-1.320329	-0.987559	1.230075
C	-0.450144	1.269661	0.596077
N	-0.844022	2.250945	1.110236
Br	3.411789	0.0	0.0
