13

C	-0.554476	0.000164	-1.43417
C	0.0	0.0	0.0
Br	0.039195	1.549047	-2.456221
H	1.099748	0.0	0.0
H	-1.644152	0.056379	-1.387759
C	-0.184331	-1.222777	-2.136623
N	0.093842	-2.202675	-2.721549
N	-0.50963	-1.231552	0.63441
H	-0.689108	-1.059901	1.617454
H	0.246245	-1.906363	0.593696
C	-0.494324	1.178957	0.706957
N	-0.898492	2.129097	1.266994
Br	3.410972	0.0	0.0
