13

C	-0.541737	-0.045107	-1.435368
C	0.0	0.0	0.0
Br	-0.04661	1.543067	-2.455756
H	1.094074	0.0	0.0
H	-1.634754	-0.050879	-1.411871
C	-0.097564	-1.240603	-2.142147
N	0.185608	-2.197603	-2.761454
N	-0.428431	-1.225159	0.668194
H	0.328872	-1.555064	1.255607
H	-1.252762	-1.076463	1.235562
C	-0.485895	1.207669	0.67949
N	-0.922466	2.110589	1.292785
Br	3.417014	0.0	0.0
