13

C	-0.418133	-0.060745	-1.466729
C	0.0	0.0	0.0
Br	-2.35998	-0.323276	-1.652104
H	1.103981	0.0	0.0
H	0.039486	-0.954363	-1.892651
C	-0.046921	1.121106	-2.232402
N	0.224897	2.06887	-2.871527
N	-0.38257	-1.234217	0.670329
H	0.344086	-1.465965	1.335589
H	-1.263982	-1.137828	1.15613
C	-0.499066	1.214755	0.653336
N	-0.935597	2.146725	1.221431
Br	3.377963	0.0	0.0
