13

C	-0.313594	-0.040072	-1.507646
C	0.0	0.0	0.0
Br	-2.213353	-0.434644	-1.870092
H	1.097688	0.0	0.0
H	0.244912	-0.87272	-1.94057
C	0.02244	1.194085	-2.202173
N	0.265794	2.190396	-2.776075
N	-0.382474	-1.18486	0.73927
H	-1.271342	-1.55537	0.42916
H	0.346341	-1.880417	0.64067
C	-0.563099	1.202838	0.613691
N	-1.046026	2.155283	1.103132
Br	3.365878	0.0	0.0
