13

C	-0.535634	0.114248	-1.43618
C	0.0	0.0	0.0
Br	-0.018273	1.796755	-2.270541
H	1.105014	0.0	0.0
H	-1.629024	0.110056	-1.420499
C	-0.092697	-1.007318	-2.257769
N	0.198873	-1.909081	-2.95157
N	-0.419519	-1.294445	0.519594
H	0.359695	-1.72942	0.995049
H	-1.21341	-1.222907	1.138103
C	-0.507471	1.114355	0.809416
N	-0.989017	1.93816	1.495855
Br	3.385991	0.0	0.0
