13

C	-0.45191	0.327174	-1.429716
C	0.0	0.0	0.0
Br	0.146641	-1.055198	-2.67412
H	1.105936	0.0	0.0
H	0.049853	1.240452	-1.756169
C	-1.897792	0.473319	-1.54928
N	-3.057187	0.638616	-1.648321
N	-0.584155	-1.268233	0.446367
H	0.001137	-2.004684	0.062413
H	-0.474832	-1.323213	1.453823
C	-0.465255	1.087405	0.862874
N	-0.848585	1.957319	1.553153
Br	3.447538	0.0	0.0
