17

C	0.0	0.0	0.0
C	-0.19557	0.016889	-1.592855
Br	1.979438	0.0	0.0
H	0.598421	-0.618688	-1.97256
N	-0.481923	1.224057	0.551119
H	-1.501314	1.129195	0.470929
H	-0.268618	1.235458	1.545918
C	-0.410023	-1.292627	0.664084
H	-1.496143	-1.374833	0.68977
H	-0.020493	-1.282233	1.689771
H	0.014996	-2.158068	0.146734
C	0.003552	1.359599	-2.123313
N	0.1679	2.42282	-2.59526
N	-1.389688	-0.638213	-2.291029
O	-2.025817	0.00581	-3.110016
O	-1.476932	-1.840882	-2.074805
Cl	-3.329485	0.0	0.0
