17

C	0.0	0.0	0.0
C	-0.304652	-0.051315	-1.553531
Br	2.019318	0.0	0.0
H	-0.206554	0.968541	-1.934611
N	-0.549569	1.139869	0.627096
H	-0.403319	1.975506	0.071247
H	-1.561699	0.968377	0.70376
C	-0.417699	-1.266655	0.721062
H	-1.508853	-1.329683	0.685681
H	-0.094671	-1.193655	1.760537
H	0.0245	-2.14642	0.254057
C	-1.568687	-0.630299	-2.027567
N	-2.324831	-1.175391	-2.748147
N	0.709271	-0.839068	-2.377692
O	1.321365	-0.210131	-3.235501
O	0.812242	-2.037166	-2.151476
Cl	-3.591706	0.0	0.0
