17

C	0.0	0.0	0.0
C	-0.51204	0.004016	-1.44948
Br	2.028755	0.0	0.0
H	-1.611925	0.140796	-1.332555
N	-0.497227	1.091948	0.697153
H	-0.361578	1.054057	1.692749
H	-0.353868	1.99663	0.283071
C	-0.428603	-1.288323	0.680694
H	-1.523012	-1.316614	0.632907
H	-0.110466	-1.255925	1.725875
H	0.018399	-2.164349	0.212216
C	-0.213991	-1.235292	-2.153356
N	-0.028402	-2.252534	-2.710593
N	0.015504	1.162394	-2.261847
O	0.544759	0.922651	-3.342046
O	-0.143213	2.283534	-1.786584
Cl	-3.66895	0.0	0.0
