17

C	0.0	0.0	0.0
C	-0.540929	-0.117771	-1.441166
Br	1.959399	0.0	0.0
H	-1.641204	-0.099287	-1.339185
N	-0.468448	1.253867	0.520511
H	-1.492428	1.232609	0.456846
H	-0.218571	1.311744	1.501867
C	-0.434846	-1.236921	0.782548
H	-0.085417	-1.13755	1.813503
H	-1.527279	-1.26772	0.772243
H	-0.020255	-2.157156	0.365379
C	-0.104324	-1.329573	-2.120058
N	0.194097	-2.318715	-2.678745
N	-0.16546	1.076953	-2.278373
O	0.890086	1.021635	-2.907316
O	-0.945997	2.020879	-2.259207
Cl	-3.594516	0.0	0.0
