17

C	0.0	0.0	0.0
C	-0.227188	0.559933	-1.44811
Br	2.018681	0.0	0.0
H	0.169158	1.576828	-1.446748
N	-0.535417	0.932216	0.880444
H	-0.054855	1.803706	1.016961
H	-1.06973	0.58328	1.658487
C	-0.562229	-1.376453	0.244866
H	-0.198124	-2.09014	-0.488381
H	-0.284505	-1.704702	1.249649
H	-1.65379	-1.275154	0.171007
C	-1.571134	0.608228	-2.028682
N	-2.412255	0.765381	-2.836536
N	0.590008	-0.14123	-2.522311
O	0.435016	-1.34997	-2.65449
O	1.314896	0.56987	-3.21162
Cl	-3.862654	0.0	0.0
