17

C	0.0	0.0	0.0
C	-0.498755	-0.115072	-1.47146
Br	1.967937	0.0	0.0
H	-1.59499	0.013752	-1.391953
N	-0.475307	1.151527	0.698554
H	-0.340025	1.983276	0.137106
H	-1.486017	1.018837	0.80606
C	-0.433272	-1.252965	0.751779
H	-0.126859	-1.135236	1.791798
H	0.027325	-2.150073	0.336903
H	-1.523035	-1.329655	0.701692
C	-0.178488	-1.38933	-2.099436
N	0.018611	-2.435449	-2.59653
N	0.029885	0.998492	-2.332753
O	0.784172	0.719276	-3.260646
O	-0.32615	2.135108	-2.028225
Cl	-3.575646	0.0	0.0
