15

C	0.0	0.0	0.0
C	-0.508271	0.240769	-1.412297
F	1.350635	0.0	0.0
H	-1.547461	0.581458	-1.361101
H	-0.47396	-0.694084	-1.969501
N	-0.353958	1.205814	0.902119
O	0.121767	1.15886	2.030534
O	-1.022535	2.115414	0.432889
N	-0.528712	-1.148365	0.625797
H	-1.55088	-1.032572	0.653477
H	-0.316314	-1.961911	0.059142
N	0.290512	1.208489	-2.218742
O	0.846112	2.145256	-1.653948
O	0.311369	1.004287	-3.432885
Cl	-3.550689	0.0	0.0
