15

C	0.0	0.0	0.0
C	-0.197362	-0.038815	-1.540599
F	1.366742	0.0	0.0
H	0.508369	0.679849	-1.95093
H	0.072581	-1.049064	-1.847215
N	-0.333274	1.398576	0.548281
O	-0.925696	1.487322	1.612295
O	0.123544	2.325747	-0.114357
N	-0.557889	-0.968488	0.831239
H	-0.503226	-1.868567	0.367798
H	-1.560928	-0.738092	0.918677
N	-1.483155	0.27246	-2.228086
O	-2.007485	-0.649389	-2.847179
O	-1.822108	1.448404	-2.253846
Cl	-3.518075	0.0	0.0
