19

C	-0.416824	0.037686	-1.470212
C	0.0	0.0	0.0
Br	-2.375806	0.166854	-1.645944
H	1.09513	0.0	0.0
C	0.240249	1.157318	-2.255712
H	1.31245	1.133642	-2.042234
H	0.069661	1.030863	-3.327008
H	-0.174287	2.120125	-1.954257
N	0.013052	-1.291374	-2.09872
O	1.227	-1.398387	-2.213873
O	-0.817476	-2.124884	-2.429121
N	-0.435181	-1.258753	0.587129
H	0.201325	-1.499409	1.337948
H	-1.373811	-1.175357	0.964231
C	-0.437586	1.243032	0.770211
H	-1.527434	1.31469	0.835108
H	-0.046117	2.16157	0.327625
H	-0.028653	1.171279	1.781114
Cl	3.400787	0.0	0.0
