19

C	-0.375513	-0.032397	-1.507324
C	0.0	0.0	0.0
Br	0.493916	1.433014	-2.438429
H	1.095199	0.0	0.0
C	0.024474	-1.329128	-2.179687
H	-0.202447	-1.29668	-3.247606
H	1.099422	-1.452062	-2.038564
H	-0.505232	-2.161874	-1.727771
N	-1.881243	0.161224	-1.601797
O	-2.356294	1.265429	-1.830083
O	-2.549955	-0.839713	-1.325206
N	-0.405237	-1.192618	0.728134
H	0.226622	-1.956672	0.525499
H	-1.353588	-1.468134	0.494757
C	-0.540388	1.230284	0.710259
H	-0.297956	2.153674	0.184179
H	-0.091189	1.259656	1.703825
H	-1.629009	1.168291	0.829264
Cl	3.45615	0.0	0.0
