19

C	-0.367625	-0.019512	-1.482112
C	0.0	0.0	0.0
Br	-2.285931	0.301709	-1.76038
H	1.097549	0.0	0.0
C	0.452188	0.961133	-2.30132
H	1.51055	0.765356	-2.094618
H	0.233068	0.83758	-3.362148
H	0.220355	1.984759	-2.010262
N	-0.077078	-1.393143	-2.103137
O	0.625493	-2.166849	-1.462048
O	-0.492962	-1.596449	-3.238942
N	-0.597865	-1.12282	0.720798
H	-0.683323	-0.85983	1.694839
H	0.049477	-1.899601	0.677918
C	-0.426455	1.299193	0.67343
H	-1.50761	1.319367	0.830849
H	0.079726	1.354714	1.640974
H	-0.131397	2.182493	0.107436
Cl	3.462356	0.0	0.0
