18

C	0.0	0.0	0.0
C	-0.660255	-0.257535	-1.358954
F	1.393402	0.0	0.0
H	-1.466804	-0.964913	-1.148157
N	-0.51032	1.111272	0.628809
H	-0.042604	1.357495	1.484891
H	-0.69114	1.858541	-0.024201
N	-0.203365	-1.221461	0.928386
O	-0.103334	-1.010537	2.1325
O	-0.33133	-2.326836	0.410235
C	0.31736	-0.855863	-2.355993
H	-0.223699	-1.139699	-3.263432
H	1.091575	-0.130259	-2.617367
H	0.789756	-1.749704	-1.94879
N	-1.229419	1.002995	-1.849591
H	-2.188303	1.028735	-1.486504
H	-1.299755	0.952461	-2.858985
Br	-4.032795	0.0	0.0
