18

C	0.0	0.0	0.0
C	-0.39248	0.235103	-1.479094
F	1.402703	0.0	0.0
H	0.445136	-0.217597	-2.017953
N	-0.569486	0.835686	0.94348
H	-0.494278	0.42878	1.868658
H	-1.562561	0.942658	0.729959
N	-0.209561	-1.516943	0.355953
O	0.082161	-2.338318	-0.50726
O	-0.563222	-1.78514	1.500481
C	-0.407794	1.734076	-1.754279
H	-1.28115	2.196435	-1.290118
H	0.491643	2.223329	-1.374579
H	-0.480592	1.881673	-2.833149
N	-1.600857	-0.365741	-1.984952
H	-2.431914	-0.073486	-1.470792
H	-1.549444	-1.373536	-1.912118
Br	-4.239327	0.0	0.0
