18

C	0.0	0.0	0.0
C	-0.524706	-0.04743	-1.443089
F	1.359103	0.0	0.0
H	-1.603446	-0.215981	-1.352553
N	-0.513807	1.011246	0.848323
H	-1.499788	0.787551	1.012139
H	-0.490278	1.88696	0.341151
N	-0.319555	-1.344848	0.701041
O	-1.335818	-1.40559	1.378039
O	0.490832	-2.255158	0.528863
C	0.114998	-1.142627	-2.284531
H	-0.068998	-2.134224	-1.873221
H	1.195142	-0.99788	-2.355606
H	-0.310539	-1.087804	-3.287517
N	-0.344745	1.244266	-2.110444
H	-1.075441	1.885023	-1.828722
H	0.558228	1.644817	-1.889367
Br	-3.991686	0.0	0.0
