18

C	0.0	0.0	0.0
C	-0.454784	0.051175	-1.463188
F	1.396275	0.0	0.0
H	0.229545	-0.629888	-1.977425
N	-0.587046	0.931392	0.826973
H	-0.602521	1.873558	0.48001
H	-0.380334	0.836493	1.807085
N	-0.253831	-1.387092	0.609418
O	-0.202598	-2.348608	-0.150147
O	-0.376763	-1.448883	1.828156
C	-0.239689	1.462786	-2.005421
H	-1.019157	2.133467	-1.632596
H	0.745302	1.860804	-1.74688
H	-0.341438	1.432724	-3.090491
N	-1.801796	-0.370518	-1.742908
H	-2.512367	0.093757	-1.175141
H	-1.914079	-1.359768	-1.566979
Br	-4.746423	0.0	0.0
