16

C	-0.544791	-0.028242	-1.374812
C	0.0	0.0	0.0
F	-1.904896	0.048708	-1.439822
H	1.090202	0.0	0.0
H	-0.32088	0.946045	0.444646
N	-0.066456	1.110361	-2.264874
O	-0.31791	0.985799	-3.461326
O	0.447858	2.078617	-1.721159
N	-0.141648	-1.300072	-2.098605
O	-0.975005	-2.199858	-2.131006
O	1.002953	-1.33071	-2.525486
C	-0.474724	-1.197384	0.818549
H	-0.143823	-1.057344	1.849708
H	-0.006168	-2.116206	0.459029
H	-1.55951	-1.328448	0.807854
H	2.840276	0.0	0.0
