16

C	-0.43561	-0.013253	-1.415087
C	0.0	0.0	0.0
F	-0.114861	-1.127826	-2.074201
H	1.09521	0.0	0.0
H	-0.338137	0.932497	0.451353
N	-1.959649	0.168219	-1.621031
O	-2.587039	0.737048	-0.735383
O	-2.418851	-0.260983	-2.676004
N	0.132631	1.171372	-2.199513
O	-0.140148	2.27419	-1.739171
O	0.774772	0.927143	-3.207395
C	-0.490707	-1.220995	0.765309
H	-0.034308	-1.207999	1.757419
H	-1.578219	-1.247069	0.882521
H	-0.16066	-2.138232	0.27424
H	2.840833	0.0	0.0
