16

C	-0.539488	-0.003855	-1.377677
C	0.0	0.0	0.0
F	-1.897646	0.099788	-1.447682
H	1.090261	0.0	0.0
H	-0.317678	0.941775	0.456187
N	-0.034735	1.132542	-2.252851
O	0.501741	2.081531	-1.697791
O	-0.286397	1.026993	-3.451094
N	-0.158437	-1.277473	-2.111414
O	0.987487	-1.328306	-2.533278
O	-1.00852	-2.160374	-2.152954
C	-0.484351	-1.204613	0.801253
H	-1.570257	-1.327047	0.786115
H	-0.022672	-2.122477	0.430593
H	-0.155199	-1.081113	1.835083
H	2.841239	0.0	0.0
