16

C	-0.458135	-0.026221	-1.406674
C	0.0	0.0	0.0
F	0.011017	-1.061983	-2.109111
H	1.096904	0.0	0.0
H	-0.340305	0.929749	0.457907
N	-1.987127	-0.093683	-1.499098
O	-2.588698	0.945055	-1.236854
O	-2.487811	-1.187515	-1.733931
N	-0.124346	1.240791	-2.196864
O	0.17807	2.247007	-1.57245
O	-0.23082	1.134777	-3.416142
C	-0.478925	-1.225623	0.769078
H	-1.555752	-1.224609	0.966383
H	0.051671	-1.25345	1.723284
H	-0.22573	-2.14106	0.230746
H	2.802497	0.0	0.0
