16

C	-0.466488	-0.02943	-1.409235
C	0.0	0.0	0.0
F	-0.2011	1.118943	-2.050191
H	1.092623	0.0	0.0
H	-0.306548	0.987586	0.36413
N	0.101858	-1.151258	-2.274013
O	-0.003587	-0.97757	-3.484293
O	0.587718	-2.122008	-1.71292
N	-1.979154	-0.239193	-1.500601
O	-2.674995	0.76708	-1.409631
O	-2.378205	-1.400872	-1.552798
C	-0.537148	-1.090782	0.915131
H	-1.615685	-1.01159	1.087112
H	-0.315196	-2.081023	0.522976
H	-0.027531	-0.994861	1.8766
H	2.797692	0.0	0.0
