16

C	-0.446715	-0.095629	-1.406112
C	0.0	0.0	0.0
F	-0.250881	1.01781	-2.124264
H	1.094693	0.0	0.0
H	-0.324163	-0.904966	0.516588
N	0.246988	-1.246239	-2.129418
O	1.002445	-0.974374	-3.045421
O	-0.030547	-2.35844	-1.691285
N	-1.940715	-0.442447	-1.599876
O	-2.600897	-0.752561	-0.614409
O	-2.351866	-0.36951	-2.753736
C	-0.489906	1.263738	0.691062
H	-1.578502	1.302653	0.79767
H	-0.148222	2.149029	0.151687
H	-0.038094	1.302827	1.68567
H	2.829324	0.0	0.0
