16

C	-0.571032	-0.0181	-1.364605
C	0.0	0.0	0.0
F	-1.930285	-0.129672	-1.397423
H	1.088304	0.0	0.0
H	-0.312006	-0.935896	0.473939
N	-0.224698	1.250184	-2.126304
O	0.895714	1.297455	-2.61116
O	-1.07436	2.132908	-2.130176
N	-0.082674	-1.160057	-2.239889
O	-0.415436	-1.095477	-3.421071
O	0.533276	-2.068918	-1.700701
C	-0.474395	1.211839	0.796513
H	-0.114453	1.103938	1.82182
H	-0.03002	2.128678	0.401746
H	-1.561112	1.325431	0.809949
H	2.837921	0.0	0.0
