16

C	-0.428343	0.113744	-1.413936
C	0.0	0.0	0.0
F	-0.040182	1.23982	-2.008821
H	1.09836	0.0	0.0
H	-0.343915	-0.958975	0.385466
N	0.067793	-1.056404	-2.273175
O	0.550962	-0.779198	-3.36213
O	-0.104468	-2.174101	-1.803054
N	-1.961111	0.037633	-1.601469
O	-2.554368	-0.787956	-0.916083
O	-2.465223	0.802321	-2.417502
C	-0.502796	1.168809	0.835383
H	-1.591356	1.174939	0.956265
H	-0.18827	2.11828	0.397742
H	-0.045532	1.10506	1.825079
H	2.846743	0.0	0.0
