16

C	-0.441553	0.084353	-1.411519
C	0.0	0.0	0.0
F	0.013858	1.162557	-2.053079
H	1.093517	0.0	0.0
H	-0.342975	-0.948889	0.413835
N	-0.061892	-1.136247	-2.252614
O	-0.03324	-0.950287	-3.465403
O	0.138024	-2.190843	-1.668389
N	-1.97159	0.124119	-1.52494
O	-2.489162	1.204566	-1.784141
O	-2.55792	-0.923021	-1.26314
C	-0.491541	1.191728	0.812022
H	-0.220966	2.129191	0.322442
H	0.014312	1.174031	1.779848
H	-1.573196	1.18649	0.983148
H	2.815275	0.0	0.0
