16

C	-0.45253	0.046994	-1.409387
C	0.0	0.0	0.0
F	0.081698	1.075918	-2.087393
H	1.097507	0.0	0.0
H	-0.311525	0.953224	0.438342
N	-0.150568	-1.22666	-2.18052
O	-0.852124	-2.188793	-1.878911
O	0.751567	-1.198254	-3.001446
N	-1.974738	0.222415	-1.625172
O	-2.66206	0.526018	-0.657098
O	-2.364116	0.11415	-2.784216
C	-0.476893	-1.17611	0.840341
H	-1.562253	-1.290131	0.859729
H	-0.028332	-2.107494	0.493659
H	-0.121493	-1.012986	1.860548
H	2.831843	0.0	0.0
