16

C	-0.448758	0.059673	-1.410802
C	0.0	0.0	0.0
F	0.05364	1.121536	-2.063217
H	1.094562	0.0	0.0
H	-0.313822	0.9494	0.444472
N	-0.101613	-1.185084	-2.207334
O	-0.748232	-2.184574	-1.904812
O	0.775428	-1.100227	-3.051319
N	-1.974767	0.191937	-1.628417
O	-2.367342	0.044738	-2.781676
O	-2.664099	0.5113	-0.66707
C	-0.476367	-1.182849	0.830405
H	-1.561527	-1.301625	0.842139
H	-0.129841	-1.023267	1.854041
H	-0.021498	-2.109849	0.481593
H	2.832664	0.0	0.0
