16

C	0.0	0.0	0.0
C	-0.490624	-0.074146	-1.434608
F	1.406171	0.0	0.0
H	-1.589154	-0.131662	-1.363397
H	-0.337202	-0.873456	0.552582
N	-0.479329	1.199788	0.594936
H	0.199486	1.939987	0.494053
H	-0.74786	1.078625	1.558555
N	-0.049954	-1.367839	-2.062316
O	0.0199	-1.417318	-3.290589
O	0.166965	-2.326518	-1.32327
C	-0.052241	1.099852	-2.283856
H	-0.428858	0.999133	-3.299105
H	1.037625	1.170808	-2.317934
H	-0.469071	2.007425	-1.846858
Br	-3.830086	0.0	0.0
