16

C	0.0	0.0	0.0
C	-0.309419	0.603225	-1.39887
F	1.409749	0.0	0.0
H	-0.122156	-0.160688	-2.154622
H	-0.351424	-1.033288	0.022976
N	-0.479266	0.682013	1.143076
H	-1.461613	0.463074	1.28551
H	-0.364171	1.680688	1.029576
N	0.72372	1.652168	-1.688441
O	0.749908	2.632952	-0.944626
O	1.462904	1.489827	-2.657036
C	-1.671153	1.234642	-1.55927
H	-2.476874	0.545142	-1.30201
H	-1.801892	1.571715	-2.590922
H	-1.771611	2.09113	-0.893586
Br	-4.520945	0.0	0.0
