16

C	0.0	0.0	0.0
C	-0.296115	0.276305	-1.499612
F	1.412576	0.0	0.0
H	0.524583	-0.17329	-2.058919
H	-0.300697	-1.027449	0.216624
N	-0.578307	0.877039	0.938277
H	-1.377055	0.438238	1.380031
H	-0.909025	1.735949	0.520463
N	-0.120142	1.749782	-1.737955
O	1.013772	2.164137	-1.97894
O	-1.119295	2.465645	-1.636753
C	-1.641895	-0.17869	-2.002939
H	-1.690534	-1.267159	-1.929643
H	-1.763261	0.092056	-3.056204
H	-2.474459	0.222794	-1.426582
Br	-4.505854	0.0	0.0
