16

C	0.0	0.0	0.0
C	-0.44141	0.150359	-1.463054
F	1.399189	0.0	0.0
H	-1.500704	-0.127958	-1.484877
H	-0.325735	-0.979499	0.351801
N	-0.474753	0.991252	0.901858
H	-1.479859	0.842496	1.007035
H	-0.332854	1.917105	0.517068
N	0.28731	-0.901221	-2.243685
O	1.068185	-0.557697	-3.131955
O	0.069664	-2.069081	-1.923529
C	-0.214546	1.5244	-2.048895
H	-0.399665	1.518631	-3.122734
H	-0.923119	2.217406	-1.59274
H	0.808508	1.864994	-1.878815
Br	-3.681908	0.0	0.0
