16

C	0.0	0.0	0.0
C	-0.24143	0.031745	-1.533723
F	1.416768	0.0	0.0
H	0.301389	-0.817691	-1.951294
H	-0.330671	-0.972469	0.372219
N	-0.536119	1.015297	0.817012
H	-0.482607	1.912536	0.351486
H	-1.516197	0.80639	0.997369
N	0.487068	1.216256	-2.088597
O	1.401502	1.015599	-2.886845
O	0.112979	2.334107	-1.727257
C	-1.670981	0.067576	-2.014647
H	-2.213308	0.920089	-1.615421
H	-1.689421	0.09512	-3.108376
H	-2.214569	-0.810518	-1.670217
Br	-4.368217	0.0	0.0
