16

C	0.0	0.0	0.0
C	-0.576096	-0.069462	-1.399676
Br	1.950084	0.0	0.0
H	-1.678839	-0.17734	-1.146265
H	-0.236861	-0.941981	0.499483
N	-0.543623	1.165884	0.63789
H	-0.33035	1.111307	1.629511
H	-1.573167	0.996861	0.548745
N	-0.173674	-1.329402	-2.066651
O	-0.167135	-2.360294	-1.388823
O	0.079236	-1.304336	-3.276166
C	-0.321532	1.137942	-2.265499
H	-0.622742	2.019795	-1.700571
H	0.735308	1.225149	-2.527116
H	-0.904329	1.078771	-3.184977
H	-2.973252	0.0	0.0
