16

C	0.0	0.0	0.0
C	-0.364575	0.030663	-1.513788
Br	2.032773	0.0	0.0
H	0.171724	-0.8014	-1.97868
H	-0.184449	-0.984162	0.437702
N	-0.668269	1.022352	0.689102
H	-0.33765	1.152763	1.638764
H	-0.586973	1.858305	0.041667
N	0.170011	1.252295	-2.153347
O	-0.00566	1.106226	-3.489506
O	-0.373853	2.363955	-1.552815
C	-1.835769	-0.072343	-1.944761
H	-2.457327	0.739835	-1.565433
H	-2.336394	-1.033209	-1.773703
H	-1.734643	0.116398	-3.026695
H	-2.142078	0.0	0.0
