16

C	0.0	0.0	0.0
C	-0.207995	0.043661	-1.561261
Br	1.983308	0.0	0.0
H	0.40052	-0.753663	-1.988704
H	-0.27548	-1.011535	0.304651
N	-0.653872	0.926441	0.827205
H	-0.586162	1.848891	0.415896
H	-1.664161	0.638008	0.788601
N	0.396379	1.286573	-2.146505
O	1.118541	1.1607	-3.135393
O	0.087802	2.369174	-1.647021
C	-1.612678	-0.045943	-2.124745
H	-1.536033	-0.007154	-3.219158
H	-2.266147	0.727998	-1.731015
H	-2.081651	-0.975774	-1.809353
H	-3.276969	0.0	0.0
