14

C	-0.513503	-0.032822	-1.416142
C	0.0	0.0	0.0
F	-1.866	0.150872	-1.487824
H	1.093502	0.0	0.0
H	-0.26012	-0.994886	-1.863554
N	0.137997	0.98696	-2.334037
O	-0.561875	1.876856	-2.799513
O	1.317225	0.770323	-2.576559
C	-0.510573	-1.155162	0.707955
N	-0.904651	-2.138759	1.217351
N	-0.395629	1.248462	0.688085
O	-0.744656	1.187002	1.865596
O	-0.275132	2.284678	0.036708
F	2.420698	0.0	0.0
