14

C	-0.463875	-0.052364	-1.441837
C	0.0	0.0	0.0
F	0.332516	0.694744	-2.236495
H	1.091925	0.0	0.0
H	-1.500734	0.250817	-1.588065
N	-0.393667	-1.481568	-1.93549
O	-1.403713	-2.152971	-1.736691
O	0.631979	-1.850391	-2.488698
C	-0.472199	-1.091249	0.820232
N	-0.815852	-1.993238	1.49192
N	-0.421946	1.281573	0.611236
O	-0.811631	2.179209	-0.140575
O	-0.303274	1.38806	1.828397
F	2.410338	0.0	0.0
