14

C	-0.497007	7e-05	-1.429784
C	0.0	0.0	0.0
F	0.054469	1.032433	-2.10432
H	1.091944	0.0	0.0
H	-1.58193	0.040479	-1.537167
N	-0.071037	-1.286176	-2.105601
O	0.782827	-1.232776	-2.977964
O	-0.672807	-2.287299	-1.724941
C	-0.487082	-1.097843	0.806891
N	-0.872505	-1.962327	1.504944
N	-0.473129	1.250849	0.667557
O	-1.363994	1.90642	0.126741
O	0.061346	1.543606	1.726058
F	2.434963	0.0	0.0
