19

C	-0.331061	-0.049927	-1.488512
C	0.0	0.0	0.0
F	-1.726368	-0.237375	-1.655441
H	1.098454	0.0	0.0
C	0.007163	1.244301	-2.200101
H	-0.563834	2.070704	-1.78384
H	-0.215938	1.137964	-3.266993
H	1.071682	1.447651	-2.069207
N	0.322092	-1.209386	-2.048417
H	0.389417	-1.104397	-3.054275
H	1.271436	-1.242238	-1.683246
C	-0.504216	-1.240665	0.73048
H	-0.164582	-1.212263	1.769962
H	-1.599132	-1.2683	0.715484
H	-0.135433	-2.155946	0.266858
N	-0.465877	1.251793	0.598097
H	0.136931	1.469529	1.381313
H	-1.40389	1.118054	0.958976
Cl	3.479658	0.0	0.0
