19

C	-0.373344	0.023928	-1.479867
C	0.0	0.0	0.0
F	-0.010795	-1.245032	-2.019804
H	1.106048	0.0	0.0
C	-1.850042	0.1806	-1.77146
H	-2.007302	0.255308	-2.851528
H	-2.390982	-0.693908	-1.408028
H	-2.235661	1.070459	-1.277357
N	0.395452	1.057264	-2.091175
H	0.28265	1.025666	-3.097193
H	1.37853	0.914252	-1.86364
C	-0.521116	-1.216088	0.737961
H	-0.194855	-2.131828	0.245286
H	-0.118896	-1.221393	1.755667
H	-1.613414	-1.196781	0.803126
N	-0.52712	1.230039	0.621747
H	-0.133907	2.005241	0.095044
H	-0.109377	1.288666	1.545321
Cl	3.583448	0.0	0.0
