19

C	-0.449964	-0.023619	-1.456265
C	0.0	0.0	0.0
F	-0.009582	1.223974	-2.011377
H	1.101135	0.0	0.0
C	0.239587	-1.085515	-2.280508
H	-0.099525	-2.079638	-1.987854
H	1.318847	-1.005074	-2.135403
H	0.005432	-0.931954	-3.338491
N	-1.872155	-0.094012	-1.541223
H	-2.164	0.115893	-2.488487
H	-2.239893	0.614671	-0.913485
C	-0.481202	-1.216613	0.77371
H	-0.090613	-2.137016	0.336781
H	-0.102828	-1.16511	1.799477
H	-1.571968	-1.263902	0.793981
N	-0.563849	1.218954	0.610976
H	-0.073165	2.002412	0.192102
H	-0.295954	1.215004	1.589802
Cl	3.599552	0.0	0.0
