19

C	-0.449039	-0.01497	-1.456512
C	0.0	0.0	0.0
F	-0.006877	1.235364	-2.0033
H	1.10097	0.0	0.0
C	0.239468	-1.073316	-2.286657
H	0.006915	-0.912505	-3.3438
H	-0.102384	-2.068493	-2.000804
H	1.318766	-0.996109	-2.14008
N	-1.871379	-0.082869	-1.542632
H	-2.237894	0.6223	-0.910094
H	-2.161968	0.13454	-2.488748
C	-0.481292	-1.221075	0.766559
H	-1.572008	-1.269271	0.785093
H	-0.089217	-2.138766	0.325129
H	-0.104303	-1.174865	1.793111
N	-0.563438	1.215586	0.618334
H	-0.295885	1.205797	1.597347
H	-0.072198	2.001443	0.204604
Cl	3.604423	0.0	0.0
