14
Coordinates from ORCA-job run
  C   -0.25957358803065      0.26198473353844     -0.39483218823139
  C   0.60729268822740     -0.56066193210928      0.55263136854663
  Br  0.83462035183407      0.80032726871165     -1.93274547138835
  H   0.92279188432875     -1.48262674167957      0.06742812340349
  H   0.04816693447590     -0.77662601397508      1.46754803522086
  C   -1.41443401209724     -0.60551149372924     -0.89712598721851
  H   -2.03392815552158     -0.03962741044010     -1.59269902109437
  H   -1.02515205034451     -1.48787574893564     -1.40772547360008
  H   -2.03278397337764     -0.91704230982521     -0.05045588919764
  C   -0.79644662664715      1.46955746043083      0.22707992645294
  N   -1.33514273467530      2.39996988514642      0.70220548185391
  N   1.85489224851673      0.14279403432624      0.97522718824016
  O   1.72329955770796      1.27214062116979      1.43513835735365
  O   2.90739747560328     -0.47580235262925      0.84832554965870
