14
Coordinates from ORCA-job run
  C   -0.28074556235873      0.56349616445670     -0.40522455599039
  C   1.10995182419145      0.29343968055238      0.17293416991773
  Br  0.03633907326734      1.78508361152614     -1.92011534284357
  H   1.51759854582933      1.18317310723941      0.65566465416504
  H   1.78314711780284     -0.05897387580963     -0.60590640369429
  C   -0.95020384446267     -0.70330279130784     -0.92392091076508
  H   -0.28902156286055     -1.21180865717092     -1.62845219045421
  H   -1.17418598427020     -1.36846564398342     -0.08671274129158
  H   -1.88332590662231     -0.45625878615175     -1.43000668146899
  C   -1.14687432931093      1.27772879871526      0.52817190342438
  N   -1.87478806105173      1.85509366108695      1.24802448414580
  N   1.06115309327965     -0.78754176486780      1.20717752278359
  O   0.21030846992463     -0.67883140304580      2.08600722627818
  O   1.88264712664189     -1.69383210123968      1.10035886579339
