14
Coordinates from ORCA-job run
  C   -0.31848121312831      0.54800911563132     -0.38768358356512
  C   1.11243938088730      0.34934162261430      0.12302170134078
  Br  -0.16901615189644      1.89885716998237     -1.81112376486104
  H   1.50395467577805      1.26782383466473      0.55703961508393
  H   1.74414424368515     -0.01264625385131     -0.68657046115828
  C   -0.92853365499839     -0.72189824575758     -0.96998926656341
  H   -1.05465125187889     -1.46972592847802     -0.18438269741794
  H   -0.27482636803916     -1.12870592433484     -1.74296015550150
  H   -1.90356142283670     -0.50065388081786     -1.40443113151813
  C   -1.17893896304240      1.10614580681791      0.65177559021693
  N   -1.90026060034819      1.52073200686201      1.48222934664446
  N   1.12772490415480     -0.69255451871862      1.19392910703460
  O   1.32513313552271     -1.85343850487610      0.83766231403336
  O   0.91487328614047     -0.31028629973829      2.34248338623136
