14
Coordinates from ORCA-job run
  C   -0.31946856213860      0.23173799722113     -0.36894067791952
  C   0.70598838341066     -0.49690651354379      0.49335369235829
  Br  0.56442054899181      0.83459200169113     -2.01421112873072
  H   0.26188021150205     -0.74365418329172      1.46195266276045
  H   1.05026293820534     -1.39691683253810     -0.01304211319352
  C   -1.43888596209290     -0.74037178044253     -0.74405886868597
  H   -1.93824356847301     -1.09062662871991      0.16384341389811
  H   -1.02767100044510     -1.59381553068285     -1.28568957728173
  H   -2.17301167751393     -0.24135756355043     -1.37641925437856
  C   -0.89457087315877      1.39954952216368      0.29337604305871
  N   -1.46113414962067      2.28914423644256      0.81223700782182
  N   1.92342130787794      0.31854353154243      0.78137680211387
  O   1.74005807744379      1.43881854957991      1.24576269557544
  O   3.00795432601140     -0.20773680587150      0.55045930260333
