14
Coordinates from ORCA-job run
  C   -0.37787411062756      0.49440515382768     -0.23161511347368
  C   0.53147093575658      0.13296225250414      0.95057366070778
  Br  0.58115236524015      1.72995664892558     -1.41965480847428
  H   0.00460107752878     -0.56365344935485      1.60661169366501
  H   0.83519821394563      1.02669972317856      1.49192657659571
  C   -0.88105100328886     -0.69398145722974     -1.04587103835750
  H   -1.39408087229085     -1.39723884434605     -0.38443851427002
  H   -1.58012204371057     -0.34332855498980     -1.80540476092417
  H   -0.05210045056292     -1.20738700136122     -1.52836505134977
  C   -1.50888411520506      1.22747261073840      0.33513083395542
  N   -2.43000268580236      1.77418748644831      0.81949307750644
  N   1.78073422482795     -0.55290876623619      0.51192157198832
  O   1.66018660087865     -1.70535358778182      0.09938410720918
  O   2.82977186331045      0.07816778567704      0.60130776522156
