14
Coordinates from ORCA-job run
  C   -0.36871984796153      0.50231121077080     -0.22627581947464
  C   0.49228329306807      0.09057140958985      0.97577369962366
  Br  0.63865421285089      1.78263115484185     -1.32319486709362
  H   -0.05802172018163     -0.63702608624028      1.57658315758391
  H   0.76800483105922      0.96000457808658      1.56919924485171
  C   -0.84020887951544     -0.65051538072235     -1.10778117449227
  H   0.00730295056936     -1.14702419982367     -1.57536280878400
  H   -1.50676269283696     -0.26750993150858     -1.88078051178289
  H   -1.38167937146668     -1.37758892767474     -0.49667328956954
  C   -1.52053165032685      1.21500905910314      0.32404418616247
  N   -2.46172053809762      1.74188507918470      0.79193144222146
  N   1.76253512346582     -0.57033306716015      0.55974198924973
  O   2.80398901305118      0.05733374626019      0.72727134508206
  O   1.66487527632217     -1.70074864470735      0.08452340642200
