14
Coordinates from ORCA-job run
  C   -0.29554166342091      0.24440022629256     -0.38070233572778
  C   0.66347675449400     -0.52760283909169      0.51950202558268
  Br  0.66918619872590      0.78426778517848     -2.00227166173306
  H   0.97563033550887     -1.44937815211908      0.03175883711899
  H   0.17747333216639     -0.74118590945711      1.47580538739365
  C   -1.45175544977245     -0.67235484949821     -0.78263528390329
  H   -2.13904385382116     -0.14247642947027     -1.44196154408378
  H   -1.99656892991319     -0.98700543060206      0.11203853925963
  H   -1.06888609335828     -1.55135451869118     -1.30375657501401
  C   -0.82962526061055      1.44692422817996      0.25321453568202
  N   -1.36535810202672      2.36969640291721      0.74624559209509
  N   1.91225918355290      0.22640726295998      0.83865569991974
  O   1.77322997454711      1.35944198184806      1.28721692543664
  O   2.97452357392809     -0.35777975844663      0.64688985797349
