14
Coordinates from ORCA-job run
  C   -0.28936220192958      0.56694902422190     -0.38232469198364
  C   1.08604009662779      0.35612699681947      0.25926644998412
  Br  -0.02541702324730      2.01356051425878     -1.69032037107237
  H   1.41109467267426      1.24927734028323      0.79026983774057
  H   1.80535531741732      0.05818366923376     -0.50191009664077
  C   -0.80882668621347     -0.66937067370937     -1.10709924847021
  H   -0.07096434704887     -1.01129415532027     -1.83444019373626
  H   -0.99641089188589     -1.47148913528000     -0.39039211932167
  H   -1.73951743215013     -0.43438262403644     -1.62375061433205
  C   -1.26201873405593      1.04131848896388      0.59815809733471
  N   -2.06886270627201      1.39353967034066      1.37721756518492
  N   1.01382117333980     -0.75412952019978      1.25666759241978
  O   0.67801389131810     -0.45187793057642      2.39955581926909
  O   1.26605487142593     -1.88641166499937      0.84710197362376
