14
Coordinates from ORCA-job run
  C   -0.26151688183388      0.23062537989524     -0.41419144395064
  C   0.60408991941326     -0.51944747478300      0.59260942868421
  Br  0.81597643136554      0.59515728261036     -2.01345575672166
  H   0.88925499381510     -1.49060296426702      0.19193066342191
  H   0.05744713683508     -0.63522249097925      1.53295193775181
  C   -1.44395804900956     -0.65342127211319     -0.81331312355161
  H   -2.06462675468927     -0.14068283670107     -1.54796913828586
  H   -2.05228522517333     -0.87049348346354      0.06933670914963
  H   -1.08347932884702     -1.58813367585220     -1.24592820011575
  C   -0.76091715707624      1.50340716200246      0.09931606356176
  N   -1.26607150495660      2.48719982297696      0.49747339288337
  N   1.87551327456074      0.18906129836792      0.92731620696859
  O   1.78123000352925      1.36410796802725      1.26547717220091
  O   2.90834314206690     -0.47055471572094      0.85944608800330
