14
Coordinates from ORCA-job run
  C   -0.36753785050870      0.51243111078057     -0.20736187144671
  C   0.47899673027289      0.04715039872739      0.98546461614295
  Br  0.64853206372151      1.84583214199454     -1.23014436434929
  H   -0.07748091851965     -0.70774636577889      1.54549606494926
  H   0.74627148444043      0.88863662784639      1.62152135879437
  C   -0.82239404343460     -0.60000622077951     -1.14759853215838
  H   0.03360665774630     -1.07201233128366     -1.62500799454193
  H   -1.47853081324600     -0.18396358837246     -1.91235492875519
  H   -1.37036485796435     -1.35590611282310     -0.57880829241498
  C   -1.52914763643897      1.19448582151067      0.36098268082656
  N   -2.47655019565336      1.69802575919171      0.84164566134157
  N   1.75503298964778     -0.59326415238007      0.55518669106528
  O   1.66559468332175     -1.70487098861482      0.03625646001374
  O   2.79297170661500      0.03120789998124      0.75472245053273
