18

C	0.0	0.0	0.0
C	-0.649964	-0.061503	-1.381084
Cl	1.764038	0.0	0.0
H	-1.674299	-0.423624	-1.195005
C	-0.52235	1.186562	0.780416
H	-0.219081	2.102834	0.280328
H	-0.118193	1.147525	1.79175
H	-1.614811	1.123385	0.79238
N	-0.401692	-1.249702	0.831097
O	-1.211668	-2.030897	0.359574
O	0.096751	-1.317984	1.950192
N	0.037374	-1.096929	-2.273692
O	0.121932	-0.827108	-3.473767
O	0.444416	-2.13198	-1.758159
N	-0.703715	1.216429	-2.002251
H	0.07666	1.355671	-2.629342
H	-1.569362	1.312462	-2.514234
Cl	-3.774279	0.0	0.0
