18

C	0.0	0.0	0.0
C	-0.75105	-0.29274	-1.316519
Cl	1.758034	0.0	0.0
H	-1.672881	-0.794649	-1.014118
C	-0.51265	1.270974	0.630021
H	-1.598674	1.197302	0.728339
H	-0.256198	2.102517	-0.022641
H	-0.05796	1.397821	1.610286
N	-0.309923	-1.181902	0.946144
O	-0.299139	-2.294818	0.431862
O	-0.465529	-0.940911	2.135452
N	-0.036196	-1.23049	-2.243006
O	0.951879	-0.784606	-2.829511
O	-0.523988	-2.343882	-2.426863
N	-1.049514	0.929982	-2.030188
H	-0.823109	0.841927	-3.010164
H	-2.046829	1.083365	-1.910887
Cl	-3.739206	0.0	0.0
