18

C	0.0	0.0	0.0
C	-0.295479	-0.181471	-1.523934
Cl	1.768211	0.0	0.0
H	0.398168	0.513404	-1.997877
C	-0.585239	1.227807	0.6467
H	-0.213932	1.292379	1.669956
H	-1.677184	1.122955	0.637175
H	-0.301278	2.116701	0.086309
N	-0.448952	-1.19632	0.836028
O	-0.039832	-1.21954	1.991632
O	-1.2159	-2.003779	0.328026
N	-1.623432	0.396032	-2.066465
O	-2.330762	-0.357142	-2.716858
O	-1.75472	1.609037	-1.955285
N	-0.027095	-1.492369	-1.997033
H	-0.794145	-2.10137	-1.743956
H	0.047439	-1.471332	-3.004596
Cl	-3.933597	0.0	0.0
