18

C	0.0	0.0	0.0
C	-0.645252	0.061042	-1.387926
Cl	1.787027	0.0	0.0
H	-1.725422	-0.051918	-1.205233
C	-0.503399	1.145072	0.845033
H	-1.595877	1.093492	0.872975
H	-0.186866	2.078203	0.385318
H	-0.098183	1.057109	1.850872
N	-0.359362	-1.326906	0.676347
O	-0.430948	-1.333967	1.89748
O	-0.480408	-2.302422	-0.055531
N	-0.25694	-1.065539	-2.333323
O	-1.155419	-1.770938	-2.777053
O	0.924357	-1.115472	-2.683769
N	-0.352089	1.319327	-2.00407
H	0.568055	1.291351	-2.426996
H	-1.051589	1.52708	-2.704227
Cl	-3.73409	0.0	0.0
