18

C	0.0	0.0	0.0
C	-0.237175	-0.149017	-1.554733
Cl	1.774313	0.0	0.0
H	0.364529	0.665565	-1.957025
C	-0.603584	1.227183	0.619755
H	-1.695468	1.103698	0.595763
H	-0.327916	2.108193	0.040076
H	-0.254591	1.326628	1.647851
N	-0.442808	-1.211338	0.804116
O	-0.156029	-1.190217	1.995715
O	-1.057554	-2.0974	0.223091
N	-1.611369	0.208645	-2.076842
O	-2.309081	-0.691471	-2.514132
O	-1.849363	1.412437	-2.110191
N	0.154952	-1.370163	-2.199066
H	-0.499023	-2.095963	-1.937701
H	1.083051	-1.631882	-1.898491
Cl	-3.944449	0.0	0.0
