13

C	-0.489438	-0.001731	-1.440976
C	0.0	0.0	0.0
Br	-0.349285	1.92041	-2.125013
H	1.098049	0.0	0.0
H	0.213207	-0.500952	-2.107169
H	-0.360193	0.899032	0.506539
N	-1.784434	-0.540975	-1.58881
H	-2.164644	-0.383106	-2.511262
H	-2.41274	-0.198053	-0.875451
N	-0.550986	-1.171073	0.719497
H	0.007213	-1.262362	1.563312
H	-0.343328	-1.997965	0.168738
Br	3.705969	0.0	0.0
