13

C	-0.441916	0.071445	-1.452307
C	0.0	0.0	0.0
Br	-0.277891	-1.710933	-2.300456
H	1.102206	0.0	0.0
H	-1.506427	0.298932	-1.540504
H	-0.30969	0.963274	0.430455
N	0.33089	1.004342	-2.235625
H	1.315871	0.864156	-2.013962
H	0.085135	1.944084	-1.942167
N	-0.65129	-1.061413	0.76848
H	-0.256537	-1.942502	0.457143
H	-0.355951	-0.955069	1.733149
Br	3.690296	0.0	0.0
