13

C	-0.45726	0.0318	-1.433725
C	0.0	0.0	0.0
Br	-2.625585	0.555309	-1.29722
H	1.094675	0.0	0.0
H	-0.164554	0.910816	-1.999548
H	-0.339476	0.905241	0.510253
N	-0.275433	-1.14723	-2.075264
H	-0.600992	-1.220682	-3.023753
H	-0.455187	-1.939729	-1.471756
N	-0.452616	-1.24428	0.622129
H	0.239702	-1.541001	1.297674
H	-1.33891	-1.102531	1.089651
Br	3.63374	0.0	0.0
