13

C	-0.294732	-0.011867	-1.490209
C	0.0	0.0	0.0
Br	-2.283168	-0.22037	-1.809321
H	1.098021	0.0	0.0
H	-0.129835	0.98347	-1.916328
H	-0.348052	-0.941399	0.432989
N	0.40412	-1.078932	-2.123899
H	0.520071	-0.908718	-3.113727
H	1.323981	-1.163055	-1.693832
N	-0.505798	1.128903	0.756871
H	-1.471687	1.307016	0.50698
H	0.041774	1.950464	0.534951
Br	3.615345	0.0	0.0
