13

C	-0.3912	0.002029	-1.462756
C	0.0	0.0	0.0
Br	-2.588287	-0.033948	-1.488738
H	1.094691	0.0	0.0
H	-0.285086	0.968973	-1.948196
H	-0.341428	-0.939724	0.448359
N	0.144846	-1.01807	-2.191554
H	-0.069291	-1.05644	-3.173369
H	0.198226	-1.914026	-1.73681
N	-0.467789	1.120442	0.792093
H	-1.439062	1.316753	0.580362
H	0.091469	1.936317	0.580086
Br	3.668729	0.0	0.0
