14
Coordinates from ORCA-job run
  C   -0.73492460415247      0.38080333955597      0.09965093208416
  C   0.61584797871234      0.15224371795940     -0.61251992636903
  F   -1.19617518011327      1.58894664741682     -0.44542496357523
  H   0.42516058181355      0.11733411433277     -1.68768635391302
  C   -0.57283391783221      0.60051472910826      1.54593918453737
  N   -0.49247643500088      0.80052660798813      2.70019286642340
  N   -1.58020292195716     -0.71470726063255     -0.12606477615812
  H   -1.74663997633238     -0.88787102892564     -1.10916848795787
  H   -2.44946530826835     -0.65294237321638      0.38654300814050
  N   1.14433983485781     -1.20666906052117     -0.22658553724201
  O   1.62628361550975     -1.30651081897748      0.89395030818805
  O   1.00509401231237     -2.08949778916873     -1.06418440220279
  C   1.58684334662328      1.18731240255889     -0.29542033452187
  N   2.36914897382762      2.03051677252169     -0.05922151743355
