14
Coordinates from ORCA-job run
  C   -0.73767268802901      0.36311176661647      0.13565839922318
  C   0.59619771811105      0.18774192824725     -0.62188568941811
  F   -1.23132519103353      1.58636814272814     -0.34315318886536
  H   0.37666811144728      0.19532027992455     -1.69200451696338
  C   -0.53913367328794      0.52158586727513      1.58535114331814
  N   -0.42904606099306      0.67414083697574      2.74435594098987
  N   -1.57292001294196     -0.73478219974122     -0.11569893764393
  H   -1.76694500018089     -0.86316245325615     -1.10084636782160
  H   -2.42796463121700     -0.70892455492230      0.42322521312398
  N   1.15800424635703     -1.17642888496177     -0.30945415650285
  O   1.67597162056269     -1.31470538493279      0.79092372584339
  O   1.00829757468005     -2.02593243384729     -1.17907058251570
  C   1.55842086138998      1.22529574750066     -0.28656235769035
  N   2.33144712513531      2.07137134239360     -0.03083862507729
