16

C	0.0	0.0	0.0
C	-0.264953	-0.010275	-1.567421
Cl	1.75606	0.0	0.0
H	0.243698	-0.925376	-1.901573
H	-0.294631	-0.928191	0.479091
N	-0.814644	1.034467	0.678546
O	-0.882869	2.159187	0.071811
O	-0.809819	0.973833	1.938287
N	0.442694	1.12886	-2.182215
H	0.070051	1.239287	-3.119218
H	0.139613	1.936802	-1.640408
C	-1.699073	-0.069873	-2.101382
H	-2.25912	-0.947343	-1.775537
H	-2.237387	0.834032	-1.810873
H	-1.633455	-0.101281	-3.203912
H	-1.981799	0.0	0.0
