16

C	0.0	0.0	0.0
C	-0.660165	0.17908	-1.357406
Cl	1.750643	0.0	0.0
H	-1.646378	0.594785	-1.084646
H	-0.360284	-0.904786	0.479008
N	-0.378731	1.11451	0.953136
O	-0.537719	0.804458	2.128391
O	-0.419169	2.256326	0.503775
N	-0.851191	-1.181338	-1.877263
H	-0.990235	-1.118062	-2.881051
H	-1.752331	-1.464302	-1.477436
C	0.078414	1.063893	-2.339529
H	1.014155	0.606357	-2.67487
H	0.293152	2.036021	-1.895498
H	-0.561942	1.223335	-3.213501
H	-3.116681	0.0	0.0
