16

C	0.0	0.0	0.0
C	-0.660738	0.25907	-1.351607
Cl	1.750601	0.0	0.0
H	-1.56097	0.828621	-1.083587
H	-0.359593	-0.924848	0.437901
N	-0.36084	1.07774	1.002245
O	-0.413917	2.233627	0.593172
O	-0.478082	0.72775	2.171337
N	-1.066937	-1.059412	-1.844534
H	-1.952295	-1.206302	-1.331945
H	-1.328579	-0.951684	-2.821096
C	0.183918	1.018031	-2.354821
H	0.554157	1.948944	-1.92274
H	-0.441487	1.270288	-3.21735
H	1.030825	0.421918	-2.704541
H	-3.066241	0.0	0.0
