16

C	0.0	0.0	0.0
C	-0.373403	-0.037772	-1.489795
Cl	1.757342	0.0	0.0
H	-1.480401	-0.126626	-1.419678
H	-0.425633	-0.843382	0.573861
N	-0.502841	1.251713	0.597613
O	-1.749295	1.109577	1.092953
O	0.313353	1.895045	1.289915
N	0.092572	-1.202279	-2.228466
H	-0.253105	-2.025189	-1.73005
H	1.103219	-1.215088	-2.156451
C	-0.055864	1.253708	-2.229956
H	-0.4567	1.127148	-3.23352
H	1.019869	1.455769	-2.353037
H	-0.530403	2.092717	-1.701574
H	-2.499059	0.0	0.0
