17

C	-0.657939	0.040187	-1.378397
C	0.0	0.0	0.0
Cl	0.065403	1.33985	-2.364721
H	1.09209	0.0	0.0
N	-0.315702	-1.276926	-2.078649
O	0.860326	-1.602155	-2.09943
O	-1.247015	-1.907822	-2.579216
C	-2.158517	0.212676	-1.34505
H	-2.576009	0.188019	-2.350971
H	-2.594728	-0.598826	-0.761058
H	-2.39107	1.170111	-0.878468
N	-0.351038	-1.268488	0.645422
H	-0.973828	-1.134377	1.430049
H	0.529362	-1.650588	0.989548
C	-0.42473	1.161485	0.769032
N	-0.77735	2.078948	1.416949
H	2.629796	0.0	0.0
