17

C	-0.65842	-0.020932	-1.376134
C	0.0	0.0	0.0
Cl	0.049828	1.25447	-2.408825
H	1.091935	0.0	0.0
N	-0.301948	-1.349402	-2.041633
O	0.828923	-1.773021	-1.869878
O	-1.16995	-1.878348	-2.735531
C	-2.16159	0.132857	-1.344444
H	-2.58405	-0.678789	-0.749477
H	-2.407834	1.092615	-0.888676
H	-2.576053	0.089248	-2.350123
N	-0.368477	-1.232985	0.708071
H	-0.963881	-1.041907	1.506017
H	0.51242	-1.624063	1.043916
C	-0.420758	1.198513	0.712631
N	-0.749088	2.139498	1.338602
H	2.647832	0.0	0.0
