17

C	-0.426891	-0.017858	-1.454028
C	0.0	0.0	0.0
Cl	-2.219804	-0.187425	-1.618424
H	1.092089	0.0	0.0
N	-0.074783	1.300227	-2.140538
O	0.454525	2.175044	-1.463705
O	-0.316761	1.376373	-3.342365
C	0.282516	-1.118231	-2.199613
H	0.003957	-2.068245	-1.749076
H	0.017539	-1.094569	-3.255896
H	1.358882	-0.963522	-2.052017
N	-0.318622	-1.294078	0.606736
H	-1.152636	-1.237055	1.176822
H	0.474499	-1.537491	1.194745
C	-0.541789	1.110543	0.771953
N	-0.987631	1.92234	1.497235
H	2.648419	0.0	0.0
