17

C	-0.383156	-0.031669	-1.467673
C	0.0	0.0	0.0
Cl	0.19537	-1.543768	-2.198297
H	1.095623	0.0	0.0
N	-1.904848	-0.027031	-1.667041
O	-2.317081	0.046352	-2.822147
O	-2.613416	-0.072579	-0.662292
C	0.201595	1.143295	-2.209446
H	-0.253643	2.066226	-1.849339
H	0.028213	1.039541	-3.279461
H	1.270802	1.156339	-1.984078
N	-0.392801	-1.17423	0.753196
H	0.39189	-1.428956	1.340401
H	-1.210902	-1.000178	1.316276
C	-0.416483	1.26585	0.604599
N	-0.721301	2.2733	1.128787
H	2.662885	0.0	0.0
