17

C	-0.405811	0.036602	-1.471512
C	0.0	0.0	0.0
Cl	0.240319	-1.40892	-2.268087
H	1.101364	0.0	0.0
N	-1.934442	-0.004021	-1.584841
O	-2.491629	1.076208	-1.375118
O	-2.510178	-1.062551	-1.80372
C	0.139149	1.27252	-2.151188
H	-0.292811	2.167035	-1.704154
H	-0.082679	1.252169	-3.220636
H	1.221457	1.267206	-1.992094
N	-0.460572	-1.224479	0.665297
H	-0.755417	-1.009864	1.608652
H	0.364269	-1.812982	0.748494
C	-0.43766	1.192119	0.702414
N	-0.733142	2.152316	1.315508
H	2.636607	0.0	0.0
