17

C	-0.388115	0.181771	-1.456436
C	0.0	0.0	0.0
Cl	0.0299	-1.277048	-2.381861
H	1.107408	0.0	0.0
N	-1.908234	0.334863	-1.629031
O	-2.629069	-0.067261	-0.718004
O	-2.310682	0.839957	-2.673451
C	0.314846	1.379361	-2.049222
H	-0.043917	2.294954	-1.573006
H	1.380956	1.253203	-1.827579
H	0.140361	1.43977	-3.121992
N	-0.393128	-1.253757	0.603604
H	-1.267424	-1.174864	1.10299
H	0.35272	-1.533518	1.232152
C	-0.414563	1.18322	0.751915
N	-0.729979	2.12156	1.38892
H	2.649818	0.0	0.0
