17

C	-0.313658	-0.004254	-1.503149
C	0.0	0.0	0.0
Cl	0.100715	-1.598704	-2.190587
H	1.092804	0.0	0.0
N	-1.815726	0.144856	-1.778666
O	-2.160251	0.784321	-2.768624
O	-2.586581	-0.4043	-0.993155
C	0.467859	1.074432	-2.206869
H	0.121931	2.05458	-1.873377
H	0.355072	1.004508	-3.287771
H	1.513969	0.939433	-1.903354
N	-0.395928	-1.118466	0.822946
H	0.347645	-1.805633	0.776443
H	-1.268913	-1.519439	0.51189
C	-0.487594	1.261718	0.550672
N	-0.870041	2.291882	0.970497
H	2.672147	0.0	0.0
