17

C	-0.428908	-0.012289	-1.456118
C	0.0	0.0	0.0
Cl	-2.216906	-0.192537	-1.640191
H	1.105925	0.0	0.0
N	-0.065691	1.341731	-2.064224
O	-0.751545	2.309163	-1.7487
O	0.924105	1.375282	-2.791193
C	0.278	-1.115353	-2.198604
H	1.35097	-1.011858	-2.011172
H	-0.066683	-2.062559	-1.789283
H	0.066453	-1.062048	-3.267192
N	-0.30094	-1.290009	0.61487
H	-1.112195	-1.231335	1.216075
H	0.514534	-1.54109	1.169467
C	-0.505258	1.121106	0.77703
N	-0.887025	1.957161	1.512462
H	2.604578	0.0	0.0
