17

C	-0.648123	0.091366	-1.381924
C	0.0	0.0	0.0
Cl	-0.101504	1.572183	-2.207453
H	1.105776	0.0	0.0
N	-0.134894	-1.100472	-2.195172
O	-0.934322	-2.013815	-2.39836
O	1.033374	-1.081217	-2.550357
C	-2.159698	0.061703	-1.353977
H	-2.566651	0.059235	-2.366601
H	-2.516091	0.946904	-0.825669
H	-2.489293	-0.839368	-0.838305
N	-0.299484	-1.307017	0.586427
H	-0.986454	-1.249849	1.326677
H	0.58148	-1.642611	0.976559
C	-0.461355	1.108618	0.820196
N	-0.847439	1.969415	1.525021
H	2.603058	0.0	0.0
