15
Coordinates from ORCA-job run
  C   0.93070670532244     -0.27057186366897      0.07249071830453
  C   -0.30783754949573      0.24057291972345     -0.67959472134631
  F   1.48986353991430     -1.36959117652273     -0.48535185418216
  H   0.04363837858216      0.54589301143918     -1.66853741920881
  C   1.92166944060807      0.80726921904482      0.14194563178559
  N   2.72778807052673      1.66152271830666      0.12982832241146
  N   0.57625957003441     -0.68349820948388      1.50492214766616
  O   1.51289081799168     -0.75504840232852      2.28684347852224
  O   -0.59593113899282     -0.97884406491622      1.71142338325198
  N   -0.85879151551495      1.32832695981515      0.03096113092477
  H   -1.37057448424187      1.95401604293655     -0.57402484988908
  H   -1.46937744135115      1.00492679533473      0.77074435389420
  N   -1.29779826335863     -0.89950148717656     -0.98970486613321
  O   -2.43809131321865     -0.77492424697488     -0.56536569245712
  O   -0.86541481680597     -1.80854821552878     -1.68757976354423
