15
Coordinates from ORCA-job run
  C   0.94411571955719     -0.29946545412755     -0.03154837576316
  C   -0.29620108276175      0.29371417603121     -0.72017865247647
  F   1.56041033597107     -1.19908293136711     -0.82202990148251
  H   -0.04135336336579      0.36811894204949     -1.78166818212371
  C   1.89309878247194      0.75065439772840      0.34987986888592
  N   2.70568584765984      1.54416972484515      0.65095004863887
  N   0.53717916881854     -1.00788047163789      1.27246801800762
  O   1.09441290707844     -2.05405270643991      1.53795197897752
  O   -0.29889136160739     -0.40079254178189      1.93171945763731
  N   -0.66404426194931      1.55112209523619     -0.21114213082878
  H   -1.00933966223961      1.48351656603734      0.73688592920771
  H   -1.34657152422551      2.00746240284559     -0.79867876529528
  N   -1.42506638036857     -0.76565682518243     -0.69282534385726
  O   -2.56532597065952     -0.32628610786241     -0.75239363328217
  O   -1.09010915437957     -1.94454126637419     -0.66939031624561
