15
Coordinates from ORCA-job run
  C   0.83833783152607     -0.13039918039708      0.24623593969690
  C   -0.36608369950260     -0.22478034755931     -0.72192704646059
  F   1.94240186872339     -0.43652938249121     -0.48325200473655
  H   -0.37746735516597     -1.25077270601515     -1.09503404364989
  C   0.98714824938218      1.18819769526909      0.85277585981574
  N   1.10972881309613      2.28361610755822      1.26058436557352
  N   0.69088567934748     -1.19185196403964      1.33382378564175
  O   1.00939552752916     -2.32296176691200      1.00195384027175
  O   0.21468459617781     -0.81446180034498      2.39635326435371
  N   -0.36026934969073      0.70995472049437     -1.78659610273195
  H   0.38383180442191      0.52302625137339     -2.44383007077285
  H   -0.33379850053447      1.66847109968661     -1.46261660629940
  N   -1.61657432989286     -0.04484205471502      0.09479500354041
  O   -2.12088047624563     -1.06485580931086      0.55513704337130
  O   -2.00134065917192      1.10918913740360      0.25159677238612
