15
Coordinates from ORCA-job run
  C   0.87015021597312     -0.29574055243194     -0.03999719392164
  C   -0.41328851379343      0.26457377796236     -0.70101259324532
  F   1.34875982946358     -1.30951323336319     -0.79199525647854
  H   -0.13164542325371      0.53243162033970     -1.72069749074784
  C   1.85816171259422      0.77379497754174      0.09214514409231
  N   2.62969804226423      1.65896577984672      0.14122479715595
  N   0.59164344550126     -0.84460419555863      1.36747319807153
  O   0.26051560081327      0.00563075931998      2.18416353366076
  O   0.71377388681404     -2.04324301337858      1.53018259218885
  N   -1.08744952922576      1.33062094311764     -0.06272834302771
  H   -1.12447417166137      1.23386228839649      0.94232849899413
  H   -0.72529119041516      2.23322167234603     -0.33115764943068
  N   -1.36182689791738     -0.90511016924598     -0.84388946376402
  O   -1.59936749693694     -1.30677999340119     -1.97600810974887
  O   -1.82935951021997     -1.32911066149113      0.20896833620109
