15
Coordinates from ORCA-job run
  C   0.65163136150106     -0.44770902663445      0.28394945050793
  C   -0.46063035199784      0.44109927602644     -0.27634408935884
  F   0.16396287683795     -1.68868977161578      0.50943318624401
  H   -0.06063582529498      1.43527591949818     -0.47357249103137
  C   1.86905062855458     -0.51535226689458     -0.52069216972520
  N   2.86735162236451     -0.60479061473155     -1.13415404750141
  N   1.02967755914115      0.17505127682779      1.63996960581596
  O   1.49855057676926      1.30008590270370      1.55476017837999
  O   0.81673536845465     -0.49155932955107      2.63385608167396
  N   -1.52964975841730      0.46521741571182      0.63865683084086
  H   -1.99127175999629     -0.43348317508672      0.69679724994942
  H   -2.20422784841616      1.18285359166196      0.41438773229480
  N   -0.80585792454854     -0.13577946887490     -1.66118525746714
  O   -1.79448931606897     -0.85684802453933     -1.73048231591864
  O   -0.04819720888305      0.17362829549850     -2.57537994470433
