15
Coordinates from ORCA-job run
  C   0.78294374557520     -0.11846928443590      0.39353570980910
  C   -0.26669177112256     -0.32933036501499     -0.72484915415928
  F   1.96142165115022     -0.58724977434961     -0.09255270463338
  H   -0.28728766053613     -1.40249130914557     -0.92449957895631
  C   0.92375802706397      1.27736585727198      0.79399454097161
  N   1.04026829762997      2.42099405614175      1.03859129377624
  N   0.40622846528662     -0.97297233790672      1.60157871542177
  O   -0.19733890856392     -0.40252095905921      2.50072536887595
  O   0.69644921276538     -2.15565695274012      1.51139760847445
  N   -0.04191012577482      0.41034677489484     -1.91180705106016
  H   0.77314887591533      0.08078568644543     -2.40928361653299
  H   0.00409903366746      1.40790681829776     -1.74748103409636
  N   -1.61142517783082      0.03342259431252     -0.15587983655468
  O   -2.24207526551460     -0.87393966786500      0.37865476542042
  O   -1.94158839971123      1.21080886315287     -0.25112502675632
