15
Coordinates from ORCA-job run
  C   0.73004171286113     -0.29592245231261      0.29490918853386
  C   -0.54079318724900      0.33033037451463     -0.28362897999727
  F   0.52354888279995     -1.61520324097058      0.50817319023229
  H   -0.36494278000018      1.38861745289503     -0.47416159683668
  C   1.94494145465040     -0.08760053262829     -0.48912151579354
  N   2.94238084474342      0.06155382138704     -1.09231125244980
  N   0.93861007609870      0.38571307906010      1.65885273758444
  O   0.86317618936210     -0.31839811768708      2.64690886060864
  O   1.14817845549974      1.58718840931567      1.58534208934288
  N   -1.60398565120996      0.11594473089203      0.61328612879328
  H   -2.41541729355148      0.66973255526635      0.37811725258093
  H   -1.85882746741680     -0.86226638900070      0.66216112235321
  N   -0.72876061885046     -0.30354709658359     -1.67377984949830
  O   -0.04787318691398      0.17175698991829     -2.57716598063614
  O   -1.52927743082356     -1.22789958406633     -1.75758139481779
