15
Coordinates from ORCA-job run
  C   0.89270739039509     -0.13861108420347      0.28909910107854
  C   -0.26220327485363     -0.22941683850250     -0.70994043488154
  F   2.02494684584239     -0.53459817745292     -0.35220876458239
  H   -0.27596280076756     -1.24255206500012     -1.11220758527339
  C   1.06861540463135      1.20783915326050      0.82872745116090
  N   1.20740525849266      2.32833036321815      1.15344557268344
  N   0.71172867517866     -1.14775478154902      1.42155561552756
  O   1.12906384302917     -0.83094759402755      2.52507165666468
  O   0.23640435261221     -2.22282001747449      1.07824544091246
  N   -0.08912542819046      0.71829665531787     -1.74349515928034
  H   -0.23669515805776      1.67264688778777     -1.43910693711751
  H   -0.67109623060819      0.51109510304997     -2.54258877463253
  N   -1.58920965633674     -0.08001713002433      0.03382099926205
  O   -1.55750290985956      0.22036303428779      1.22608162893823
  O   -2.58907631150774     -0.23285350868764     -0.65649981046010
