15
Coordinates from ORCA-job run
  C   0.62240480608454     -0.44823364690761      0.24198957853191
  C   -0.49834275738859      0.42357266108223     -0.36478791197377
  F   0.15580189648929     -1.69448451134745      0.46942835343175
  H   -0.10242086911898      1.41947495553958     -0.55871753482168
  C   1.86468656184706     -0.49116858956137     -0.52297523203347
  N   2.86872302328566     -0.54309558925194     -1.13190538274016
  N   0.92757535168155      0.19839352113945      1.60029527136315
  O   0.62405012412932     -0.43257359998448      2.59783370737858
  O   1.40461167585497      1.32284919515466      1.52640942694184
  N   -1.68135161908900      0.47385824710185      0.40280553648247
  H   -1.95949715952825     -0.41769751681850      0.78665847896168
  H   -1.68041225359473      1.20744977477584      1.09461690867328
  N   -0.78712452994358     -0.19010472593761     -1.72291103646972
  O   -0.09365022929877      0.21436173933476     -2.65246531088289
  O   -1.66605402141061     -1.04060191431940     -1.76727485284301
