15
Coordinates from ORCA-job run
  C   0.92077661022555     -0.29733266340509     -0.02516719874246
  C   -0.29694950455203      0.35008857258679     -0.69975995558396
  F   1.38581624404558     -1.29848617866121     -0.79888621765425
  H   -0.00408465919671      0.57241633484803     -1.72794398124253
  C   1.97030485128323      0.68450140839332      0.23822369556413
  N   2.86655449485050      1.42664341494628      0.40093364083697
  N   0.49828871190871     -0.91404945446232      1.32339389028511
  O   0.44891924615942     -2.12910198988306      1.37871103348607
  O   0.22967165070059     -0.10007986031624      2.19671505860824
  N   -0.73682587950976      1.49871950233595     -0.02138979628714
  H   -1.08021992894754      1.29701601398446      0.90818805006691
  H   -1.42439881601270      2.01357055244548     -0.55288873464487
  N   -1.34380873365731     -0.77128486538331     -0.84275208769400
  O   -2.09468425967895     -0.92831334262563      0.11654597090517
  O   -1.34136002761855     -1.40330744480346     -1.89292336790340
