13

C	0.0	0.0	0.0
C	-0.324859	-0.265583	-1.504433
Cl	1.778091	0.0	0.0
H	-0.036172	0.639246	-2.043257
H	-0.382034	0.976989	0.279957
C	-0.449256	-1.031433	0.935246
N	-0.498092	-1.856063	1.772169
C	-1.633035	-0.714146	-2.001948
N	-2.274791	-1.204008	-2.867438
N	0.611613	-1.336192	-2.053232
O	0.582216	-2.426194	-1.497834
O	1.285143	-1.032699	-3.032367
Cl	-2.995004	0.0	0.0
