13

C	0.0	0.0	0.0
C	-0.283679	-0.08738	-1.525644
Cl	1.780003	0.0	0.0
H	0.304369	0.716544	-1.972163
H	-0.379646	0.947349	0.373804
C	-0.442194	-1.106792	0.846568
N	-0.545596	-1.987684	1.618858
C	-1.612981	-0.029752	-2.144162
N	-2.258999	0.025279	-3.1338
N	0.359527	-1.34031	-2.093636
O	1.106489	-1.18704	-3.055861
O	0.052449	-2.407667	-1.577572
Cl	-2.989197	0.0	0.0
