14

C	-0.361473	0.000139	-1.486719
C	0.0	0.0	0.0
Br	-2.293144	0.245685	-1.814346
H	1.098287	0.0	0.0
H	0.121967	0.846236	-1.978902
C	0.03545	-1.237612	-2.148672
N	0.331262	-2.231057	-2.702729
C	-0.501116	-1.220723	0.764534
H	-0.084855	-2.12625	0.318625
H	-0.147862	-1.163711	1.795467
H	-1.59247	-1.28062	0.763316
C	-0.452631	1.24313	0.6156
N	-0.824038	2.233541	1.127055
Br	3.402019	0.0	0.0
