14

C	-0.364538	-0.003449	-1.486129
C	0.0	0.0	0.0
Br	-2.303077	0.196113	-1.804973
H	1.098239	0.0	0.0
H	0.095415	0.855803	-1.978661
C	0.062032	-1.228501	-2.152691
N	0.377048	-2.213225	-2.71086
C	-0.490244	-1.221627	0.771077
H	-0.081511	-2.126398	0.316444
H	-1.581186	-1.281455	0.787777
H	-0.119155	-1.167416	1.795876
C	-0.457002	1.241532	0.615307
N	-0.833309	2.229071	1.12862
Br	3.401335	0.0	0.0
