14

C	-0.365011	-0.003892	-1.48576
C	0.0	0.0	0.0
Br	-2.304884	0.179082	-1.800207
H	1.098275	0.0	0.0
H	0.087584	0.859946	-1.976205
C	0.070827	-1.223467	-2.155401
N	0.393146	-2.203574	-2.717184
C	-0.487978	-1.222566	0.770698
H	-1.578694	-1.279736	0.796473
H	-0.085234	-2.126996	0.310356
H	-0.107733	-1.172002	1.792241
C	-0.45732	1.241306	0.615501
N	-0.832082	2.229541	1.128757
Br	3.399752	0.0	0.0
