14

C	-0.420408	-0.023337	-1.473628
C	0.0	0.0	0.0
Br	0.10933	1.599597	-2.416683
H	1.095486	0.0	0.0
H	0.128307	-0.832896	-1.960787
C	-1.855454	-0.219403	-1.651885
N	-3.013909	-0.377749	-1.770973
C	-0.440983	-1.289235	0.702288
H	-0.020574	-2.149583	0.175269
H	-0.036384	-1.294882	1.715764
H	-1.528882	-1.384803	0.749366
C	-0.530059	1.171004	0.688225
N	-1.002887	2.082019	1.25993
Br	3.429724	0.0	0.0
