14

C	-0.41039	-0.027709	-1.476794
C	0.0	0.0	0.0
Br	0.0794	1.614761	-2.407268
H	1.095498	0.0	0.0
H	0.166505	-0.817962	-1.963747
C	-1.836967	-0.267842	-1.669657
N	-2.98421	-0.489463	-1.797213
C	-0.43393	-1.293812	0.698794
H	-0.028046	-1.299617	1.711688
H	-1.520935	-1.396689	0.745899
H	-0.008391	-2.150002	0.169044
C	-0.537496	1.165443	0.690434
N	-0.993751	2.067073	1.289819
Br	3.423956	0.0	0.0
