14

C	-0.527017	0.014124	-1.443793
C	0.0	0.0	0.0
Br	0.103018	-1.533345	-2.461102
H	1.095664	0.0	0.0
H	-1.617633	-0.074192	-1.443062
C	-0.169792	1.224926	-2.174964
N	0.049004	2.208936	-2.778575
C	-0.46474	-1.23151	0.77983
H	-1.555076	-1.331715	0.772609
H	-0.012708	-2.126432	0.353178
H	-0.123965	-1.145536	1.812815
C	-0.494913	1.212919	0.650204
N	-0.940612	2.156831	1.190459
Br	3.435206	0.0	0.0
