14

C	-0.527125	0.015444	-1.443773
C	0.0	0.0	0.0
Br	0.10256	-1.531311	-2.462368
H	1.095629	0.0	0.0
H	-1.617752	-0.072653	-1.44295
C	-0.169789	1.226789	-2.173962
N	0.048769	2.211279	-2.77685
C	-0.464606	-1.232179	0.778855
H	-0.123837	-1.14699	1.811901
H	-1.554925	-1.33251	0.771542
H	-0.012464	-2.126725	0.351536
C	-0.495317	1.212422	0.650822
N	-0.944271	2.157124	1.186997
Br	3.435243	0.0	0.0
