14

C	-0.527273	0.016508	-1.443815
C	0.0	0.0	0.0
Br	0.10546	-1.527478	-2.464572
H	1.095709	0.0	0.0
H	-1.617786	-0.073265	-1.442744
C	-0.17198	1.229453	-2.172273
N	0.045406	2.215143	-2.773824
C	-0.464288	-1.233328	0.777412
H	-0.122636	-1.149767	1.810245
H	-0.012662	-2.127422	0.348207
H	-1.554677	-1.333378	0.771058
C	-0.495463	1.211607	0.652516
N	-0.941936	2.153971	1.195122
Br	3.434597	0.0	0.0
