14

C	-0.42841	-0.022074	-1.470466
C	0.0	0.0	0.0
Br	0.178659	1.559337	-2.43408
H	1.095518	0.0	0.0
H	0.07495	-0.86362	-1.952482
C	-1.873133	-0.148486	-1.639596
N	-3.036069	-0.27387	-1.754581
C	-0.450536	-1.281495	0.709158
H	-0.045274	-1.285448	1.722342
H	-0.037912	-2.147926	0.186053
H	-1.539135	-1.368069	0.757485
C	-0.516358	1.180508	0.683837
N	-0.94637	2.104453	1.268516
Br	3.42435	0.0	0.0
