14

C	-0.52635	0.011626	-1.44425
C	0.0	0.0	0.0
Br	0.106984	-1.534815	-2.460794
H	1.095717	0.0	0.0
H	-1.616657	-0.081079	-1.442208
C	-0.171911	1.22408	-2.175338
N	0.084736	2.18568	-2.799934
C	-0.464587	-1.230335	0.781825
H	-0.123548	-1.143233	1.81467
H	-1.5549	-1.330327	0.775237
H	-0.012825	-2.125898	0.356005
C	-0.495347	1.214382	0.64721
N	-0.94055	2.1604	1.184496
Br	3.437121	0.0	0.0
