14

C	-0.473624	0.003853	-1.456558
C	0.0	0.0	0.0
Br	0.154542	-1.591536	-2.414427
H	1.095639	0.0	0.0
H	-1.564969	-0.047446	-1.523545
C	1.7e-05	1.179494	-2.180011
N	0.385572	2.132665	-2.749648
C	-0.529768	-1.190671	0.7935
H	-1.624141	-1.23775	0.773159
H	-0.127066	-2.123294	0.394716
H	-0.210645	-1.10313	1.834997
C	-0.458997	1.238519	0.606992
N	-0.854568	2.232214	1.107138
Br	2.75121	0.0	0.0
