14
Coordinates from ORCA-job run
  C   0.56400032594862      0.87507597091353     -0.58790149171453
  C   -0.16393726746939     -0.02606284690422      0.40840524197410
  F   0.02113975644803      2.14215341812131     -0.47324436006205
  H   0.02992188952779      0.32557170229215      1.42287991136922
  H   0.40960077322467      0.52513420461426     -1.60956560703889
  C   2.00281151740386      0.93904580833810     -0.29959899836134
  N   3.14874483664846      0.98445520653930     -0.04990363621068
  N   0.43077914679515     -1.39746462379426      0.33071841643806
  O   0.71205088466723     -1.81253907390201     -0.79354211894808
  O   0.54546676245358     -2.01815475990554      1.38205477456594
  C   -1.65085433868456     -0.11867863375389      0.11874129247227
  H   -2.13475864559932     -0.76255561481118      0.85484099191767
  H   -1.81732927267665     -0.52918008641274     -0.87931901827631
  H   -2.09663636868747      0.87419932866519      0.17543460187461
