14
Coordinates from ORCA-job run
  C   1.08730565594152      0.48517212879515     -0.20255975486352
  C   -0.18648679093843     -0.04511793186217      0.44669642847150
  F   1.45142236338160     -0.35363600123450     -1.23765262950128
  H   -0.43823097124012      0.61090281608318      1.28561389465940
  H   1.90236378311686      0.49495026834761      0.52407816685744
  C   0.86532852439273      1.83987341194747     -0.72349990387701
  N   0.67246070084550      2.92781659723373     -1.11924531628379
  N   0.19331016451738     -1.35766808405475      1.09979535938696
  O   -0.43243551368717     -2.36463283189144      0.79041578997417
  O   1.11271194074654     -1.30075160904427      1.91244828478310
  C   -1.34045832222932     -0.20798652184301     -0.51593778316193
  H   -1.60797326316829      0.76742033355903     -0.92700935427331
  H   -2.20864620577483     -0.61957280771061     -0.00373523554776
  H   -1.07067206590398     -0.87776976832543     -1.33040794662399
