14
Coordinates from ORCA-job run
  C   0.57596531174535      0.91208513424679     -0.51555853514366
  C   -0.16683096736567     -0.05684484702313      0.40307444138401
  F   0.03936751973411      2.17052412435159     -0.31130971194586
  H   0.02297268947736      0.21231424264877      1.44319253855387
  H   0.43017099630202      0.64075995767403     -1.56207970331952
  C   2.01207926062252      0.94489194588173     -0.20865292096230
  N   3.15504048561474      0.96371544512578      0.05744317204293
  N   0.41659151388058     -1.42363864536452      0.22274900516564
  O   0.70755105742698     -1.75116960614318     -0.92752990338810
  O   0.51333478937409     -2.12669778685915      1.22271517409255
  C   -1.65247705136891     -0.11290388109111      0.09815034393388
  H   -2.09050302467635      0.87575591932151      0.23372483647113
  H   -2.14599500345794     -0.81098392921201      0.77622474732688
  H   -1.81626757730888     -0.43880807355711     -0.93114348421146
