14
Coordinates from ORCA-job run
  C   1.06436149155511      0.39522019158106     -0.40901790015440
  C   -0.12382084359034     -0.02230994119781      0.45553529987657
  F   1.16017643860756     -0.43857349168924     -1.49925921821357
  H   -0.20694281405524      0.69817982752547      1.27530618235500
  H   1.98209425058067      0.29962161930452      0.16860812245549
  C   0.90091709881299      1.77745230117104     -0.86318387201889
  N   0.78867341287052      2.89109221518600     -1.21650385946857
  N   0.25605301145322     -1.32127147150171      1.14679325048017
  O   1.34569689225626     -1.34837975230571      1.71105618420678
  O   -0.55994454721345     -2.23846205740768      1.11828753458144
  C   -1.41332213318226     -0.15353772547576     -0.32361340221908
  H   -1.67716276589535      0.81826851732674     -0.73860054842584
  H   -1.29339837435730     -0.86299984347514     -1.13861312547801
  H   -2.22438111784239     -0.49330038904178      0.31320535202293
