14
Coordinates from ORCA-job run
  C   0.57314323139941      0.92262560412877     -0.49744741802282
  C   -0.16079485858981     -0.06760719469232      0.40554385890306
  F   0.05290522704831      2.17909451851395     -0.24517155439335
  H   0.05121747934754      0.16764657894222      1.44950731218586
  H   0.40384998492125      0.68386699617177     -1.54852193474931
  C   2.01545874043150      0.93241150176068     -0.21895659441521
  N   3.16419876195674      0.93042378136084      0.02176793393771
  N   0.40916443629739     -1.43178576698230      0.17088666009327
  O   0.55656481019892     -2.15422289804125      1.15079828725239
  O   0.64080957812951     -1.73642269714604     -0.99901433916293
  C   -1.65197933811756     -0.10187383124554      0.12622634918206
  H   -2.07955000409701      0.88450711911602      0.30530038591271
  H   -1.83681633620034     -0.38957893000617     -0.91078586226582
  H   -2.13917171272584     -0.82008478188063      0.78786691554238
