14
Coordinates from ORCA-job run
  C   1.01202330199256      0.48755877604999     -0.44458120329919
  C   -0.05600093785904     -0.09673820892295      0.47411319784757
  F   1.03082488835447     -0.22478331788664     -1.62737294041055
  H   -0.02758601668630      0.45198357676828      1.42037633260736
  H   1.99616297494861      0.39463740102716      0.01931460682382
  C   0.72176110323218      1.89917822599001     -0.72529270000964
  N   0.47980021569368      3.03022338924229     -0.92414380135795
  N   0.42177151821404     -1.48865763740965      0.83403430061267
  O   1.53340480950190     -1.55149376514629      1.35282701395490
  O   -0.31746556164206     -2.43704013463465      0.59898322560230
  C   -1.43990417439200     -0.11624093844965     -0.13341871866471
  H   -1.76223511615818      0.90822881364750     -0.33026855578928
  H   -1.44272701692712     -0.67783469189518     -1.06592220872706
  H   -2.14982998827274     -0.57902148838021      0.55035145080976
