14
Coordinates from ORCA-job run
  C   0.62915186276854      0.90720940979411     -0.45757950899508
  C   -0.23102561495346     -0.04385055603248      0.37338802354484
  F   0.03633036274740      2.15566431664963     -0.40539458167201
  H   -0.22305729904450      0.27813907910979      1.41573204074709
  H   0.66374142783120      0.58518633429508     -1.49938462270663
  C   1.99429561491017      0.99809822939491      0.07718623187508
  N   3.07812418237476      1.06238552665923      0.52297270941426
  N   0.41034991408418     -1.39621194620886      0.35853093795203
  O   0.38246071660663     -2.04124360446709      1.40101077651673
  O   0.87331551544523     -1.77307057927647     -0.71794106911512
  C   -1.64310497591894     -0.16282496555328     -0.16951798069132
  H   -2.22428608108096     -0.84840390238727      0.44935112472321
  H   -1.62469442719555     -0.53635831144519     -1.19542539575378
  H   -2.12360119857468      0.81528096946791     -0.15392868583931
