13

C	0.0	0.0	0.0
C	-0.458802	-0.223202	-1.42581
Cl	1.759372	0.0	0.0
H	-0.040074	-1.182224	-1.754193
H	-0.346483	-0.819077	0.643822
H	-1.545132	-0.326759	-1.372869
N	-0.621272	1.189172	0.599846
O	-0.386024	1.346366	1.824818
O	-1.771	1.442132	0.035372
N	-0.031494	0.872577	-2.295967
H	-0.840315	1.322194	-2.695725
H	0.545468	0.529714	-3.045345
H	-2.878946	0.0	0.0
