13

C	0.0	0.0	0.0
C	-0.444177	0.059233	-1.491159
Cl	1.763825	0.0	0.0
H	-0.35055	-0.979536	-1.833987
H	-0.388843	-0.837434	0.570916
H	0.330629	0.632218	-2.007829
N	-0.385457	1.233268	0.771576
O	-0.325352	2.305306	0.176539
O	-0.660947	1.082973	1.956846
N	-1.731551	0.584222	-1.842627
H	-2.477903	0.231449	-1.188943
H	-1.713747	1.585999	-1.688034
H	-3.46662	0.0	0.0
