13

C	0.0	0.0	0.0
C	-0.548309	0.270774	-1.414068
Cl	1.763451	0.0	0.0
H	-1.267211	1.082421	-1.317728
H	-0.364871	-0.924854	0.430846
H	0.276261	0.59789	-2.055345
N	-0.368087	1.070982	1.000931
O	-0.4856	0.712268	2.169214
O	-0.395842	2.230859	0.602652
N	-1.254718	-0.849324	-2.001514
H	-2.096543	-0.907406	-1.402352
H	-0.718323	-1.703315	-1.888232
H	-2.858707	0.0	0.0
