13

C	0.0	0.0	0.0
C	-0.545391	0.249903	-1.403604
Cl	1.763267	0.0	0.0
H	0.149574	0.882396	-1.963212
H	-0.380697	-0.910549	0.447672
H	-1.498157	0.757095	-1.248071
N	-0.366147	1.105446	0.961396
O	-0.457181	0.800833	2.14625
O	-0.425864	2.243206	0.506377
N	-0.846565	-0.975576	-2.119201
H	-0.095724	-1.649062	-2.0127
H	-1.681995	-1.338731	-1.656533
H	-2.885848	0.0	0.0
