16

C	0.0	0.0	0.0
C	-0.530494	-0.021573	-1.430032
F	1.387468	0.0	0.0
H	-1.640213	0.004369	-1.257
N	-0.533382	1.130869	0.665884
H	-1.571483	0.985208	0.568306
H	-0.311485	1.071892	1.655623
C	-0.325554	-1.300272	0.673616
N	-0.496076	-2.291379	1.282024
C	-0.127216	-1.272442	-2.208196
H	-0.5915	-2.151232	-1.755886
H	-0.473434	-1.197347	-3.241163
H	0.957476	-1.404486	-2.213337
C	-0.100236	1.185032	-2.124934
N	0.243961	2.107589	-2.766931
H	-2.929245	0.0	0.0
