16

C	0.0	0.0	0.0
C	-0.532726	0.052663	-1.43008
F	1.375578	0.0	0.0
H	-1.641802	0.070614	-1.255993
N	-0.531282	1.099953	0.721568
H	-1.568446	0.960957	0.621713
H	-0.303732	0.993196	1.70626
C	-0.336106	-1.331432	0.605963
N	-0.474154	-2.365998	1.146939
C	-0.130067	-1.156244	-2.272764
H	0.954785	-1.286721	-2.286962
H	-0.478397	-1.027989	-3.299738
H	-0.592571	-2.05766	-1.865505
C	-0.101735	1.293118	-2.062155
N	0.242268	2.247171	-2.656533
H	-2.932036	0.0	0.0
