16

C	0.0	0.0	0.0
C	-0.50964	-0.110442	-1.424865
F	1.38187	0.0	0.0
H	-0.046668	-1.023476	-1.827792
N	-0.433459	1.210944	0.627413
H	-0.182243	1.178595	1.609845
H	-1.462059	1.153799	0.57675
C	-0.342992	-1.246234	0.757331
N	-0.478748	-2.240588	1.368771
C	-0.051465	1.084289	-2.256244
H	-0.522347	2.006254	-1.91874
H	-0.333514	0.908978	-3.294064
H	1.031085	1.208584	-2.182415
C	-2.02735	-0.291795	-1.506364
N	-2.745334	-0.575026	-2.432563
H	-2.514841	0.0	0.0
