14

C	0.0	0.0	0.0
C	-0.456432	0.357185	-1.415924
F	1.394494	0.0	0.0
H	0.346525	-0.024756	-2.060029
H	-0.348429	0.72544	0.738979
H	-0.320744	-1.003306	0.291725
N	-0.564457	1.79752	-1.667364
H	0.202989	2.285184	-1.218635
H	-1.427097	2.121928	-1.242747
C	-1.75722	-0.318736	-1.812308
H	-1.678969	-1.403165	-1.693455
H	-1.968652	-0.111051	-2.862765
H	-2.617032	0.004793	-1.218973
Br	-5.035167	0.0	0.0
