16

C	-0.562677	-0.001914	-1.419476
C	0.0	0.0	0.0
F	-0.053563	1.068945	-2.087404
H	1.090478	0.0	0.0
N	-0.144088	-1.208406	-2.256477
O	0.927418	-1.720534	-1.98136
O	-0.886791	-1.485745	-3.194252
C	-2.030938	0.089288	-1.421632
N	-3.196393	0.221754	-1.354955
N	-0.462654	-1.258819	0.706995
O	-0.281662	-1.300121	1.918227
O	-1.001496	-2.142432	0.035133
N	-0.424047	1.181177	0.665874
H	-1.340736	1.098747	1.086455
H	0.260511	1.449336	1.358387
Cl	3.221839	0.0	0.0
