16

C	-0.502855	-0.030048	-1.445365
C	0.0	0.0	0.0
F	0.124557	-0.944516	-2.200637
H	1.09262	0.0	0.0
N	-2.0038	-0.40939	-1.44179
O	-2.307626	-1.50231	-1.894341
O	-2.754417	0.4194	-0.937702
C	-0.416585	1.292228	-2.074242
N	-0.372245	2.292308	-2.688519
N	-0.439218	-1.31607	0.642965
O	0.036269	-2.348118	0.181848
O	-1.250075	-1.249689	1.56956
N	-0.449028	1.153039	0.682638
H	-1.386762	1.04984	1.04518
H	0.199616	1.372931	1.426188
Cl	3.184034	0.0	0.0
