16

C	-0.481217	0.050111	-1.439426
C	0.0	0.0	0.0
F	-0.046117	-0.951432	-2.233494
H	1.09298	0.0	0.0
N	-2.026463	-0.020001	-1.514331
O	-2.507759	0.092834	-2.635977
O	-2.642574	-0.210122	-0.470388
C	-0.107271	1.334307	-2.050199
N	0.194132	2.312603	-2.625048
N	-0.418984	-1.286592	0.684387
O	-0.685865	-1.210826	1.879481
O	-0.420662	-2.314665	0.019847
N	-0.434303	1.174504	0.672743
H	0.258816	1.447691	1.354652
H	-1.328216	1.038713	1.121428
Cl	3.168193	0.0	0.0
