16

C	-0.469625	0.073336	-1.449525
C	0.0	0.0	0.0
F	0.252709	-0.687001	-2.286764
H	1.093279	0.0	0.0
N	-1.939678	-0.389488	-1.572147
O	-2.25382	-1.004896	-2.577704
O	-2.674936	-0.049688	-0.651607
C	-0.472473	1.462734	-1.932922
N	-0.49982	2.528343	-2.427961
N	-0.408455	-1.345828	0.573757
O	-0.552584	-2.280508	-0.212004
O	-0.53319	-1.412011	1.7918
N	-0.430012	1.107417	0.767243
H	-1.370532	0.994576	1.11786
H	0.220363	1.27217	1.521762
Cl	3.170655	0.0	0.0
