16

C	-0.464071	-0.016819	-1.457702
C	0.0	0.0	0.0
F	0.308859	-0.766728	-2.257298
H	1.090571	0.0	0.0
N	-1.899711	-0.581712	-1.557035
O	-2.149502	-1.340946	-2.475645
O	-2.67344	-0.176456	-0.69591
C	-0.554816	1.347188	-2.00111
N	-0.664431	2.400339	-2.508625
N	-0.401696	-1.320129	0.636309
O	-0.381829	-2.313701	-0.083833
O	-0.690696	-1.306526	1.829042
N	-0.452606	1.139757	0.703402
H	-1.382232	1.010962	1.079547
H	0.201327	1.365422	1.440574
Cl	3.172873	0.0	0.0
