16

C	-0.578025	-0.073418	-1.415998
C	0.0	0.0	0.0
F	-1.944929	-0.125209	-1.334609
H	1.089095	0.0	0.0
N	-0.238817	1.25571	-2.110132
O	0.847736	1.312502	-2.666494
O	-1.075986	2.143154	-2.010229
C	-0.12148	-1.142743	-2.301531
N	0.136287	-1.969996	-3.09515
N	-0.464548	-1.295288	0.664442
O	-0.040188	-2.328402	0.150261
O	-1.213684	-1.230915	1.631347
N	-0.438981	1.124685	0.729554
H	0.280632	1.829488	0.777423
H	-1.335571	1.496934	0.463651
Cl	3.19064	0.0	0.0
