16

C	0.0	0.0	0.0
C	-0.412621	-0.057951	-1.489382
F	1.366043	0.0	0.0
H	0.536259	0.084121	-2.023202
H	-0.390036	-0.814166	0.600088
N	-0.34165	1.247933	0.767353
O	-0.057475	2.32296	0.249083
O	-0.737154	1.100009	1.92092
N	-1.332778	0.990728	-1.913073
H	-1.6245	0.74673	-2.856362
H	-2.136764	0.817762	-1.270916
C	-0.946973	-1.470587	-1.752285
H	-0.26097	-2.254897	-1.405926
H	-1.108058	-1.613583	-2.827034
H	-1.89363	-1.513986	-1.211415
F	-2.659299	0.0	0.0
