16

C	0.0	0.0	0.0
C	-0.500391	0.194288	-1.444604
F	1.359967	0.0	0.0
H	-1.285193	0.939494	-1.378789
H	-0.392767	-0.88681	0.483292
N	-0.363266	1.14332	0.907817
O	-0.484032	0.887055	2.102785
O	-0.377899	2.273593	0.425741
N	-1.169146	-1.001959	-1.950741
H	-0.589624	-1.8153	-1.757236
H	-1.979434	-1.008324	-1.307996
C	0.600246	0.673594	-2.382879
H	0.150893	0.829456	-3.365587
H	1.408251	-0.058716	-2.487235
H	1.03103	1.61534	-2.033168
F	-2.56814	0.0	0.0
