16

C	0.0	0.0	0.0
C	-0.424678	0.320375	-1.470131
F	1.364144	0.0	0.0
H	0.537767	0.607387	-1.950177
H	-0.403494	-0.925146	0.392803
N	-0.344936	1.037544	1.030263
O	-0.136734	2.211017	0.739716
O	-0.685959	0.644757	2.14024
N	-1.403401	1.386442	-1.707921
H	-0.9866	2.260256	-1.38138
H	-2.156735	1.109222	-1.040977
C	-0.983592	-0.969473	-2.093684
H	-0.476166	-1.884884	-1.733654
H	-0.907105	-0.930885	-3.187324
H	-2.027676	-1.008548	-1.77104
F	-2.603702	0.0	0.0
