16

C	0.0	0.0	0.0
C	-0.22087	0.066903	-1.549912
F	1.365787	0.0	0.0
H	0.623472	0.698385	-1.861811
H	-0.418178	-0.847452	0.525827
N	-0.387545	1.223293	0.765357
O	-0.552017	1.076584	1.975131
O	-0.365835	2.298638	0.177557
N	-1.436356	0.633771	-2.089514
H	-2.170304	0.388407	-1.374508
H	-1.622763	0.179252	-2.978796
C	0.069929	-1.362413	-2.040014
H	-0.709836	-2.033669	-1.668502
H	1.052458	-1.721989	-1.715328
H	0.051752	-1.388661	-3.135087
F	-2.545126	0.0	0.0
