16

C	0.0	0.0	0.0
C	-0.384145	0.316109	-1.478606
F	1.364098	0.0	0.0
H	0.567093	0.62296	-1.924369
H	-0.409943	-0.920567	0.396677
N	-0.349589	1.060155	1.006833
O	-0.661834	0.688014	2.134699
O	-0.165199	2.233745	0.678209
N	-1.383218	1.320436	-1.779688
H	-2.173583	1.008855	-1.178883
H	-1.061984	2.201159	-1.403776
C	-0.85174	-1.002037	-2.090367
H	-1.831473	-1.172161	-1.630026
H	-0.949447	-0.898236	-3.17712
H	-0.172439	-1.833864	-1.859483
F	-2.615214	0.0	0.0
