17

C	-0.434442	-0.031907	-1.466756
C	0.0	0.0	0.0
F	-1.834504	-0.023858	-1.539299
H	1.09189	0.0	0.0
C	-0.017118	1.239498	-2.112748
N	0.316336	2.234543	-2.641484
N	0.053927	-1.187207	-2.123829
H	0.161345	-1.041498	-3.117497
H	0.926323	-1.505988	-1.71482
N	-0.455048	-1.286988	0.621986
O	0.243322	-2.279375	0.434498
O	-1.502115	-1.274213	1.272522
C	-0.540498	1.184102	0.767532
H	-1.628159	1.227081	0.730217
H	-0.221049	1.111545	1.807852
H	-0.114225	2.099095	0.35222
Br	3.440246	0.0	0.0
