17

C	-0.487587	-0.002395	-1.461438
C	0.0	0.0	0.0
F	0.143277	1.077571	-2.044402
H	1.090719	0.0	0.0
C	-0.039959	-1.237639	-2.144827
N	0.304622	-2.210069	-2.704575
N	-1.894527	0.166713	-1.725918
H	-2.188838	1.034261	-1.29002
H	-2.400438	-0.588742	-1.276397
N	-0.474985	-1.23725	0.692232
O	0.35343	-1.976949	1.207668
O	-1.701352	-1.424058	0.728172
C	-0.508465	1.195387	0.784918
H	-1.591467	1.162348	0.923819
H	-0.221235	2.113925	0.269749
H	-0.025303	1.200035	1.763747
Br	3.444737	0.0	0.0
