17

C	-0.366267	-0.105598	-1.485735
C	0.0	0.0	0.0
F	-1.719618	-0.455849	-1.613267
H	1.091899	0.0	0.0
C	-0.276816	1.236014	-2.123268
N	-0.210577	2.25291	-2.708598
N	0.435633	-1.079023	-2.128285
H	0.517895	-0.908264	-3.120764
H	1.358465	-1.139012	-1.70249
N	-0.454701	-1.270622	0.649841
O	-1.488426	-1.232341	1.320243
O	0.228707	-2.27356	0.465925
C	-0.580798	1.203201	0.702632
H	-0.377359	1.134197	1.771388
H	-1.659193	1.272707	0.556203
H	-0.09412	2.103446	0.324673
Br	3.436284	0.0	0.0
