17

C	-0.420383	-0.03228	-1.465996
C	0.0	0.0	0.0
F	-1.816813	-0.042411	-1.561897
H	1.091919	0.0	0.0
C	-0.009929	1.240465	-2.115154
N	0.33088	2.234184	-2.641594
N	0.086957	-1.188423	-2.114676
H	0.14284	-1.058823	-3.115426
H	0.995779	-1.4437	-1.74154
N	-0.460401	-1.282468	0.623728
O	0.261274	-2.266656	0.485365
O	-1.533977	-1.273749	1.228787
C	-0.545085	1.184894	0.763834
H	-1.631558	1.234642	0.707412
H	-0.105121	2.099385	0.362455
H	-0.246103	1.103588	1.809889
Br	3.449939	0.0	0.0
