17

C	-0.342112	0.036343	-1.491518
C	0.0	0.0	0.0
F	-0.176653	-1.272469	-1.993811
H	1.092357	0.0	0.0
C	-1.746735	0.396531	-1.795253
N	-2.847226	0.725946	-2.040069
N	0.530254	0.968325	-2.088701
H	0.435421	0.977695	-3.095745
H	1.496042	0.784999	-1.809115
N	-0.529741	-1.251681	0.603069
O	0.240641	-1.963805	1.236529
O	-1.735808	-1.462375	0.454688
C	-0.528559	1.188683	0.776546
H	-0.145156	2.101858	0.321116
H	-0.160864	1.13715	1.803713
H	-1.620595	1.208014	0.77815
Br	3.485905	0.0	0.0
