17

C	-0.535151	0.026649	-1.440602
C	0.0	0.0	0.0
F	-0.05506	1.21427	-1.969004
H	1.090825	0.0	0.0
C	0.002349	-1.07531	-2.267409
N	0.335757	-1.945438	-2.980321
N	-1.964043	0.0572	-1.619987
H	-2.344879	-0.835807	-1.338643
H	-2.350712	0.783279	-1.028602
N	-0.429251	-1.243171	0.702205
O	-0.14376	-1.333948	1.892838
O	-1.041466	-2.109382	0.066517
C	-0.444978	1.201353	0.818965
H	-0.191671	2.110521	0.274894
H	-1.516852	1.186248	1.039908
H	0.10532	1.200159	1.758045
Br	3.398282	0.0	0.0
