13
Coordinates from ORCA-job run
  C   0.04322628067254      0.19785266790422     -0.34339749300992
  C   1.36517117907443     -0.28546422718799      0.21647553241399
  F   0.19943126451094      0.30983532596726     -1.73220306127525
  H   2.13227681556141      0.46230248588936      0.01206467827630
  H   1.30040140133451     -0.44993474189499      1.29494227872310
  H   1.64854971037415     -1.22336474608167     -0.26225310978494
  N   -0.22923872527225      1.52522076219924      0.14278154920265
  H   -0.04707447770065      1.59200119157591      1.13468710103489
  H   -1.19271784295476      1.78366674114271     -0.03087857628983
  C   -1.08942654694659     -0.79614548624774     -0.14172866138360
  H   -1.29378067202143     -0.93309525348085      0.92243213285744
  H   -0.84267135105217     -1.76327596480458     -0.58438694069726
  H   -1.99314703558012     -0.41959875498089     -0.62753543006757
