19

C	-0.501747	0.005302	-1.4536
C	0.0	0.0	0.0
Cl	0.253484	1.364326	-2.331143
H	1.097795	0.0	0.0
N	0.004744	-1.277029	-2.111459
O	1.203848	-1.373965	-2.321567
O	-0.836365	-2.155384	-2.324966
C	-2.000647	0.103612	-1.616744
H	-2.32745	1.021723	-1.133652
H	-2.492991	-0.749265	-1.153123
H	-2.261651	0.119869	-2.675634
C	-0.482272	-1.232224	0.750925
H	-0.174191	-2.155185	0.258115
H	-0.017637	-1.232499	1.740579
H	-1.568952	-1.232696	0.874277
N	-0.527662	1.209062	0.653601
H	-0.386743	1.086386	1.651089
H	0.081472	1.978088	0.390087
Cl	3.505449	0.0	0.0
