19

C	-0.426584	-0.020843	-1.468568
C	0.0	0.0	0.0
Cl	-2.150863	-0.448814	-1.654259
H	1.096905	0.0	0.0
N	-0.234221	1.382699	-2.051277
O	-1.034954	1.814319	-2.871619
O	0.797895	1.939799	-1.704206
C	0.438862	-0.934576	-2.315341
H	1.487887	-0.684907	-2.131627
H	0.267973	-1.972174	-2.027341
H	0.187346	-0.819332	-3.372059
C	-0.44604	-1.251019	0.740888
H	-1.522663	-1.234739	0.928603
H	-0.200925	-2.163852	0.195907
H	0.086445	-1.285888	1.694219
N	-0.538789	1.200183	0.645983
H	0.210111	1.880544	0.694779
H	-0.803345	0.9754	1.596394
Cl	3.481525	0.0	0.0
