19

C	-0.43844	-0.085081	-1.468399
C	0.0	0.0	0.0
Cl	-2.163397	-0.549757	-1.613021
H	1.09429	0.0	0.0
N	-0.286854	1.317685	-2.059235
O	0.877825	1.667482	-2.203488
O	-1.27509	1.987186	-2.323842
C	0.420134	-1.03097	-2.283365
H	0.17608	-0.949387	-3.345321
H	1.4702	-0.785738	-2.109048
H	0.233909	-2.056998	-1.963806
C	-0.410603	-1.23335	0.800639
H	-0.129107	-2.16329	0.30182
H	-1.488416	-1.252152	0.986459
H	0.115286	-1.200793	1.757621
N	-0.456392	1.25264	0.585125
H	0.275817	1.621709	1.177432
H	-1.29241	1.113973	1.138963
Cl	3.447719	0.0	0.0
