16

C	0.0	0.0	0.0
C	-0.22754	0.242897	-1.544916
Br	1.968547	0.0	0.0
H	0.236376	1.226381	-1.695958
C	-0.489598	1.075689	0.825534
N	-0.597637	2.058487	1.475025
N	-0.431774	-1.327305	0.496373
O	-0.47752	-2.237462	-0.340418
O	-0.478184	-1.479191	1.719673
C	-1.633694	0.289182	-2.159065
H	-2.143198	-0.662219	-2.013527
H	-1.514812	0.471009	-3.23674
H	-2.233962	1.086021	-1.725378
C	0.549358	-0.687743	-2.379515
N	1.057894	-1.351336	-3.205763
H	-1.865116	0.0	0.0
