16

C	0.0	0.0	0.0
C	-0.334363	-0.049847	-1.539816
Br	1.939048	0.0	0.0
H	-1.39279	-0.323039	-1.55832
C	-0.486571	1.192795	0.668846
N	-0.574523	2.234848	1.220172
N	-0.536117	-1.202678	0.711467
O	-0.583257	-2.258514	0.05581
O	-0.542403	-1.143033	1.948889
C	0.455361	-1.018294	-2.433688
H	-0.082322	-1.088724	-3.384703
H	0.483407	-2.000863	-1.968256
H	1.466554	-0.671981	-2.636897
C	-0.235	1.297378	-2.097177
N	-0.170401	2.336856	-2.641441
H	-2.068431	0.0	0.0
