16

C	0.0	0.0	0.0
C	-0.239302	-0.093201	-1.561441
Br	1.929144	0.0	0.0
H	0.361177	0.747217	-1.931672
C	-0.565464	1.222488	0.527997
N	-0.658665	2.341214	0.908528
N	-0.450486	-1.173726	0.800673
O	-0.510282	-2.260233	0.21686
O	-0.489416	-1.016614	2.023297
C	-1.629692	0.064705	-2.187313
H	-2.09674	0.993414	-1.864461
H	-1.485776	0.092618	-3.277034
H	-2.281905	-0.767437	-1.930336
C	0.376443	-1.28998	-2.153001
N	0.8113	-2.175956	-2.791078
H	-1.926225	0.0	0.0
