16

C	0.0	0.0	0.0
C	-0.342983	0.052666	-1.53527
Br	1.927987	0.0	0.0
H	-1.440492	0.043657	-1.527627
C	-0.645466	1.108477	0.696578
N	-0.627481	2.153581	1.263262
N	-0.417984	-1.285833	0.693551
O	-0.52332	-2.311308	0.024304
O	-0.431764	-1.23671	1.920943
C	0.168754	-1.046106	-2.473158
H	1.252918	-1.148839	-2.440123
H	-0.290432	-1.998058	-2.219532
H	-0.117819	-0.768962	-3.491639
C	0.075142	1.360104	-2.044532
N	0.353177	2.386866	-2.544719
H	-2.157147	0.0	0.0
