14
Coordinates from ORCA-job run
  C   -0.54764911556295      0.07246032027378     -0.35798391666227
  C   0.83281187351437     -0.21607121631242      0.31500225545960
  Br  -0.40501981200585     -0.14626955493833     -2.25643505841040
  H   0.69189680056385     -0.01756926739920      1.38528724067480
  N   -0.85668176246302      1.53784734184148      0.01705213920164
  O   -0.96068705856797      1.69246701589146      1.23225337163589
  O   -0.97797798562625      2.38674759968064     -0.84633872429309
  N   -1.63954110189267     -0.68791075212519      0.13689407017564
  H   -1.61911646477812     -1.64280629926321     -0.19549546021688
  H   -1.69142899126362     -0.64915310430583      1.14824324711751
  C   1.88871479100792      0.66773657299866     -0.17893081727706
  N   2.72147236857414      1.40338502501645     -0.55966133722578
  C   1.17019941680920     -1.62766557303761      0.14024253428057
  N   1.39400704169097     -2.77419810832067      0.01987045553984
