14
Coordinates from ORCA-job run
  C   -0.56302572192195      0.22159474340440     -0.39626425726638
  C   0.98620875782250      0.12005117186747     -0.18448143184065
  Br  -0.86771741584932      0.79165581821002     -2.22329219052920
  H   1.44355597137980      1.07659491128836     -0.45612773266896
  N   -0.99053931166529      1.36756082156472      0.54710057705459
  O   -0.38743564160563      2.42257589018846      0.40339047427533
  O   -1.84774520482081      1.11216328708888      1.37966782471938
  N   -1.33965028991221     -0.91083161269682     -0.11470942478082
  H   -1.32953916425957     -1.16938616481757      0.86386769888013
  H   -1.13394569606109     -1.68907169407060     -0.72618683394121
  C   1.51776776273855     -0.95645592321969     -1.01857025890974
  N   1.90854592802098     -1.84195169940136     -1.68372854586385
  C   1.23658162202364     -0.15977066609991      1.23224486218315
  N   1.36593840411040     -0.38472888330638      2.37808923868822
