14
Coordinates from ORCA-job run
  C   -0.51782093430806      0.05849104145385     -0.38792064087300
  C   0.88769503929609     -0.51265718350063     -0.11032221348919
  Br  -0.57927370673588      0.60643954202892     -2.30261245170200
  H   0.93733719560691     -1.45412824712100     -0.67434834713498
  N   -0.74587017409586      1.34715879990761      0.40170581019927
  O   0.24507549858841      1.91182849773093      0.84310821790218
  O   -1.91135412192385      1.70126726230534      0.50899313804063
  N   -1.50477613085251     -0.84429854688895      0.01567558556621
  H   -1.49173153253419     -1.70277803206900     -0.51952537518029
  H   -2.42515716519261     -0.42096918647533     -0.00391725909571
  C   1.02856704932822     -0.83055684670987      1.31540322790895
  N   1.15215390656663     -1.11344044020336      2.44808724415538
  C   1.99547931035443      0.32574023023598     -0.57445742370550
  N   2.92867576590226      0.92590310930553     -0.95786951259194
