11
Coordinates from ORCA-job run
  C   0.28122735488497      0.33205084989273     -0.64123384124034
  C   -0.69630462853325     -0.72364740736990     -0.13496266185142
  Cl  -0.59189531980155      1.85920948104271     -0.94870358500608
  H   -1.49822722210756     -0.85741878637528     -0.86459826349132
  H   0.64503800056589      0.01306712624378     -1.62609699747600
  H   -0.16957904972591     -1.68078747375612     -0.04689069040134
  N   1.30086269572764      0.57528375182370      0.34523393271135
  H   1.81726163351023     -0.27743543775482      0.52898074784123
  H   1.94817043757815      1.28397199063130      0.02362653122608
  C   -1.27421048004202     -0.38029290504008      1.16239609017182
  N   -1.76134342205657     -0.14300118933801      2.20224873751604
