11
Coordinates from ORCA-job run
  C   0.32425854380277      0.19979816063745     -0.74206595237525
  C   -0.98552586925410     -0.02715592442141      0.03356062975132
  Cl  0.00668286140074      1.53267072272980     -1.89897665504596
  H   -1.25732517518031      0.89143183867646      0.56169342239387
  H   0.54602399309052     -0.68313470324110     -1.34370084960970
  H   -1.80274357271930     -0.27218073035040     -0.64939098806231
  N   1.47771416974383      0.51030063589387      0.04457503050507
  H   1.81060829927427     -0.30988112642415      0.53520858925863
  H   1.29073587221963      1.25219076834951      0.70741904901366
  C   -0.80537115679319     -1.10980855837859      0.99834704524858
  N   -0.60305796558486     -1.98423108347144      1.75433067892208
