11
Coordinates from ORCA-job run
  C   0.45621310362946      0.00885492618711     -0.56611139709054
  C   -0.95450981906586     -0.29397807383811     -0.06925962846966
  Cl  0.25351966207000      0.81431875702417     -2.21062862072668
  H   -1.49501467464510      0.64460861788122      0.08743774201593
  H   0.99207460695614     -0.91379136451102     -0.78601347787216
  H   -1.50278269861179     -0.85888725243178     -0.82563973702133
  N   1.18066750366989      0.76899225957542      0.37467381735354
  H   2.14597359152161      0.89762500794242      0.10425126712639
  H   0.75573009333905      1.67149481487916      0.54483779680918
  C   -0.92327248264214     -1.05565789593565      1.17820363204333
  N   -0.90959888622125     -1.68457979677293      2.16824860583199
