15

C	-0.322049	0.070237	-1.50187
C	0.0	0.0	0.0
Br	-0.01629	-1.727625	-2.271743
H	1.093233	0.0	0.0
H	-0.440379	-0.896797	0.446665
C	-1.725059	0.384212	-1.768003
N	-2.857207	0.650874	-1.946238
C	0.651544	1.046379	-2.153046
H	1.646499	0.774672	-1.776017
H	0.402651	2.047852	-1.792798
H	0.594627	1.02126	-3.242992
N	-0.436269	1.255609	0.616631
H	0.342438	1.610732	1.156345
H	-1.225781	1.11881	1.231717
F	2.70354	0.0	0.0
