15

C	-0.24959	-0.056344	-1.500644
C	0.0	0.0	0.0
Br	-2.122633	-0.628807	-1.947664
H	1.101886	0.0	0.0
H	-0.358768	-0.939155	0.432755
C	-0.124234	1.276907	-2.08651
N	-0.000432	2.351948	-2.544707
C	0.757757	-1.01468	-2.124676
H	0.726252	-0.988879	-3.216129
H	0.544677	-2.030088	-1.781428
H	1.736045	-0.712691	-1.715378
N	-0.635248	1.152639	0.638098
H	-0.907813	0.901457	1.579662
H	0.073364	1.873742	0.723553
F	2.717114	0.0	0.0
