15

C	-0.310144	0.09353	-1.503486
C	0.0	0.0	0.0
Br	-0.033255	-1.701415	-2.291931
H	1.093274	0.0	0.0
H	-0.443009	-0.902566	0.433004
C	-1.703092	0.438128	-1.779983
N	-2.826354	0.731679	-1.967426
C	0.687866	1.058463	-2.136285
H	0.63773	1.047303	-3.227567
H	0.454487	2.058957	-1.765193
H	1.674746	0.767889	-1.75195
N	-0.434679	1.249814	0.630056
H	-1.237193	1.111559	1.226537
H	0.337366	1.588402	1.18918
F	2.703965	0.0	0.0
