15

C	-0.322764	0.069994	-1.501681
C	0.0	0.0	0.0
Br	-0.015734	-1.727532	-2.27169
H	1.093297	0.0	0.0
H	-0.440157	-0.8968	0.446906
C	-1.726206	0.382608	-1.767094
N	-2.858777	0.648096	-1.944445
C	0.649533	1.047052	-2.153265
H	1.6449	0.776289	-1.776729
H	0.399832	2.048268	-1.79291
H	0.592164	1.02185	-3.243209
N	-0.436344	1.255571	0.616687
H	0.34254	1.610916	1.156037
H	-1.225545	1.11861	1.23218
F	2.70337	0.0	0.0
