15

C	-0.287613	0.066367	-1.503983
C	0.0	0.0	0.0
Br	0.094501	-1.707296	-2.304362
H	1.100183	0.0	0.0
H	-0.359305	0.953776	0.410706
C	-1.68186	0.352872	-1.831203
N	-2.7938	0.634504	-2.096065
C	0.701049	1.060859	-2.108883
H	0.691231	1.035672	-3.199323
H	1.682605	0.798011	-1.68939
H	0.433303	2.068679	-1.770881
N	-0.689858	-1.102385	0.673223
H	-0.755031	-0.866046	1.656334
H	-0.072702	-1.906499	0.624205
F	2.735054	0.0	0.0
