15

C	-0.314822	0.093169	-1.503014
C	0.0	0.0	0.0
Br	-0.028073	-1.698855	-2.295712
H	1.093292	0.0	0.0
H	-0.441089	-0.904023	0.430976
C	-1.712875	0.42636	-1.772376
N	-2.84008	0.711716	-1.953468
C	0.673993	1.065823	-2.137375
H	0.430912	2.065896	-1.769496
H	0.627602	1.050702	-3.228412
H	1.662399	0.782211	-1.752618
N	-0.436459	1.245717	0.634431
H	-1.238586	1.105913	1.233081
H	0.336021	1.585879	1.191483
F	2.703875	0.0	0.0
