15

C	-0.563505	-0.026029	-1.420919
C	0.0	0.0	0.0
Br	0.261679	1.428155	-2.476722
H	1.09801	0.0	0.0
H	-0.367984	-0.915618	0.486636
C	-0.208482	-1.276994	-2.089016
N	-0.022836	-2.312623	-2.614069
C	-2.073484	0.173859	-1.476231
H	-2.439615	0.206334	-2.504115
H	-2.301966	1.108482	-0.964073
H	-2.559226	-0.655272	-0.949527
N	-0.461771	1.211677	0.696936
H	0.383028	1.700035	0.971536
H	-0.950318	0.96243	1.54672
F	2.649022	0.0	0.0
