15

C	-0.251057	-0.079283	-1.499852
C	0.0	0.0	0.0
Br	-2.190149	-0.407692	-1.926051
H	1.095637	0.0	0.0
H	-0.425824	0.922191	0.412458
C	0.046489	1.208154	-2.122758
N	0.277957	2.250741	-2.616027
C	0.605206	-1.186697	-2.094384
H	0.555635	-1.209514	-3.18509
H	1.620959	-0.975397	-1.727688
H	0.268707	-2.135876	-1.677415
N	-0.429409	-1.22322	0.666606
H	-1.269891	-1.078385	1.206806
H	0.317729	-1.501385	1.287796
F	2.673322	0.0	0.0
