15

C	-0.249261	-0.082283	-1.501552
C	0.0	0.0	0.0
Br	-2.166854	-0.514183	-1.927451
H	1.095548	0.0	0.0
H	-0.432041	0.918203	0.41446
C	-0.025044	1.223031	-2.118452
N	0.151868	2.276902	-2.608613
C	0.665435	-1.138935	-2.101011
H	0.614044	-1.160371	-3.191341
H	0.380483	-2.106962	-1.688409
H	1.668628	-0.880952	-1.7296
N	-0.414105	-1.230132	0.664206
H	0.326089	-1.488771	1.303919
H	-1.272235	-1.103685	1.183789
F	2.682673	0.0	0.0
