15

C	-0.55807	-0.051317	-1.422265
C	0.0	0.0	0.0
Br	0.211359	1.442031	-2.470166
H	1.098057	0.0	0.0
H	-0.371321	-0.906892	0.498725
C	-0.148104	-1.28315	-2.091858
N	0.057803	-2.306841	-2.631159
C	-2.074581	0.085485	-1.485735
H	-2.434607	0.110773	-2.516011
H	-2.346612	1.001662	-0.962914
H	-2.524999	-0.770003	-0.970721
N	-0.497492	1.210502	0.681643
H	-0.789824	0.961653	1.618398
H	0.316633	1.808907	0.790176
F	2.657736	0.0	0.0
