15

C	-0.289466	0.049887	-1.505001
C	0.0	0.0	0.0
Br	0.074085	-1.735316	-2.28649
H	1.100182	0.0	0.0
H	-0.359143	0.958167	0.399791
C	-1.680011	0.346733	-1.835551
N	-2.786928	0.651621	-2.091651
C	0.705569	1.029524	-2.123313
H	1.689268	0.764478	-1.707556
H	0.68616	0.99857	-3.214847
H	0.448177	2.040959	-1.789409
N	-0.686865	-1.096127	0.686752
H	-0.775438	-0.839252	1.663043
H	-0.058916	-1.892624	0.665208
F	2.733641	0.0	0.0
