15

C	-0.31177	0.080785	-1.503878
C	0.0	0.0	0.0
Br	-0.041676	-1.721081	-2.277851
H	1.093375	0.0	0.0
H	-0.443042	-0.899129	0.440117
C	-1.703265	0.429088	-1.782743
N	-2.82567	0.726855	-1.971185
C	0.686318	1.035651	-2.148873
H	0.459112	2.040779	-1.784512
H	1.67529	0.744533	-1.768922
H	0.629099	1.016762	-3.239477
N	-0.434566	1.254304	0.62058
H	0.334782	1.593413	1.184001
H	-1.241617	1.121854	1.213402
F	2.704839	0.0	0.0
