15

C	-0.454406	-0.01217	-1.463834
C	0.0	0.0	0.0
Br	0.305941	1.579068	-2.358198
H	1.09262	0.0	0.0
H	-0.415549	0.904023	0.46349
C	0.074925	-1.189848	-2.153691
N	0.435072	-2.172434	-2.689049
C	-1.9681	0.05567	-1.665043
H	-2.232086	0.075578	-2.724603
H	-2.3506	0.958765	-1.184097
H	-2.443694	-0.818016	-1.208075
N	-0.397451	-1.203807	0.727886
H	0.360592	-1.868156	0.635483
H	-1.249789	-1.632922	0.391142
F	2.64163	0.0	0.0
