13

C	-0.505564	0.10624	-1.399132
C	0.0	0.0	0.0
Cl	-0.043978	1.591584	-2.182902
H	1.090325	0.0	0.0
H	-0.370398	-0.923119	0.444608
H	-0.359917	0.851863	0.575844
N	-0.054568	-1.113512	-2.217442
O	-0.515408	-2.16597	-1.78947
O	0.683235	-0.963318	-3.172409
N	-2.039685	0.001521	-1.490319
O	-2.505685	-0.117196	-2.616323
O	-2.671364	0.053422	-0.442976
Br	3.571531	0.0	0.0
