13
Coordinates from ORCA-job run
  C   0.85217500400234     -0.25083928478883      0.16425351283729
  C   -0.65091033105096      0.01334832597525      0.25611518210675
  Cl  1.22469933774828     -0.76861796050138     -1.53993256439629
  H   -0.88896322910279      0.18829579041325      1.30925373082303
  H   1.07979415677212     -1.11582688206307      0.78522943654216
  N   1.55234745882184      0.89005048583151      0.62129395427016
  H   2.53540803899459      0.69205228036024      0.75111199572062
  H   1.45499234073845      1.67433174397218     -0.01328697598135
  N   -1.41771861948148     -1.23117863674987     -0.13040205935987
  O   -2.24547978023662     -1.15333012808471     -1.02688086245056
  O   -1.12985239780344     -2.22427968368750      0.52730362069369
  C   -1.05349577630207      1.15724342902396     -0.54878716707071
  N   -1.31199620310026      2.12875052029897     -1.15527180373491
