13
Coordinates from ORCA-job run
  C   0.76373910357885      0.42654185413496      0.28174160914610
  C   -0.56247658041782     -0.33453800371309      0.36876606450489
  Cl  1.46079281839392      0.43088503978822      1.93225713320771
  H   -0.37543333618359     -1.36393511982357      0.67816445407283
  H   0.56245412521010      1.46524233433833      0.02156547176212
  N   1.60092167733190     -0.22683341762653     -0.68456810982102
  H   1.89651207713773      0.41630870712118     -1.40483802150695
  H   2.41128251036572     -0.65586960171591     -0.26168362983546
  N   -1.14235100775586     -0.41633523639113     -1.02611060349627
  O   -1.06223447749684      0.59953821578603     -1.70747074880746
  O   -1.65791713822753     -1.47884811810071     -1.34358823997282
  C   -1.55157845302336      0.30480938075514      1.22851423040481
  N   -2.34271131891321      0.83403396544709      1.91625039034152
