13
Coordinates from ORCA-job run
  C   0.91670010160386     -0.08795884718389      0.47805746762025
  C   -0.61205180780247     -0.22935010582222      0.50243715815576
  Cl  1.65020794716051     -1.71127598300153      0.74645450984626
  H   -0.90712446074131     -0.86645120147974      1.33657100374555
  H   1.18567503357429      0.47259232684037      1.38037938730991
  N   1.36587725787794      0.46636334613457     -0.75044911162448
  H   2.27009004212427      0.90565554455398     -0.66613846645532
  H   0.69928663424089      1.08259422612402     -1.19345339813425
  N   -1.10089033748420     -0.92307855989025     -0.74917046634522
  O   -1.27589953546336     -2.13106244277181     -0.66157511022839
  O   -1.25667961375905     -0.22097751379828     -1.74299172758192
  C   -1.23585729998548      1.08569632960700      0.60019979511739
  N   -1.69933396134588      2.15825288068779      0.71867895857447
