13
Coordinates from ORCA-job run
  C   0.90862053937657     -0.06821398208688      0.46085605247571
  C   -0.61826111721294     -0.24953720283168      0.50786836325408
  Cl  1.71366152349353     -1.64238432772617      0.70381066866281
  H   -0.88362813633643     -0.91120819810618      1.33356390126044
  H   1.17378905641248      0.51894105589518      1.34915585857417
  N   1.30408636740642      0.47439152105346     -0.80280009513686
  H   2.29166344316668      0.69302296031827     -0.80516640842548
  H   0.77187510024954      1.30457248975282     -1.03703813254588
  N   -1.10274069941098     -0.92367182879033     -0.75464763589461
  O   -1.39590462404937     -0.19666925327679     -1.69577381334992
  O   -1.13084275570888     -2.14727917927044     -0.72465233692201
  C   -1.26946011681396      1.04796469261697      0.64979759307348
  N   -1.76185858057265      2.10107125245178      0.81702598497407
