13
Coordinates from ORCA-job run
  C   0.87171556738028     -0.23483857027762      0.03537258385119
  C   -0.62289016655349     -0.06842942755690      0.31112386453086
  Cl  1.09248633190918     -0.40058522832232     -1.76349149986894
  H   -0.76216965434959     -0.10924089725130      1.39521583448016
  H   1.18631759464392     -1.18957419934193      0.45399733956966
  N   1.57642199332826      0.83187820125524      0.64009216444007
  H   2.57336334668289      0.66304269148203      0.64062191908057
  H   1.39145653575901      1.71709216209265      0.18270719179597
  N   -1.38409700106319     -1.25317756091052     -0.23938233883654
  O   -1.00206569030625     -2.33781754036100      0.18411154371491
  O   -2.29799113758357     -1.04724360102625     -1.02510536963082
  C   -1.13788800850649      1.18633378384388     -0.21690148144241
  N   -1.48465971134095      2.24156018637404     -0.59736175168469
