13
Coordinates from ORCA-job run
  C   0.85329158506016     -0.19632748175813      0.01684916555785
  C   -0.65540101156698     -0.02002745095518      0.24157080730986
  Cl  1.15430837857750     -0.28443383061653     -1.73603495295129
  H   -0.82787492255907     -0.00167100090221      1.32166237631949
  H   1.13874827082250     -1.16646838787113      0.42772952824225
  N   1.53215051256038      0.91681347800243      0.63247665329035
  H   2.04674539979534      0.61631680378021      1.44922046687058
  H   2.16480013154905      1.37435753634972     -0.00721985008103
  N   -1.39549449591862     -1.24014334435505     -0.26079371945269
  O   -1.00172655388690     -2.30003783186440      0.21622786581909
  O   -2.30053957393365     -1.09118910921479     -1.06969985207724
  C   -1.16388337903204      1.19760608548106     -0.37114518682006
  N   -1.54512434146767      2.19320453392401     -0.86184330202715
