12
Coordinates from ORCA-job run
  C   1.09637567598660     -0.17283717958580     -0.26819724074870
  C   -0.32114744540070     -0.71080163258679     -0.19262145470785
  F   1.99260989952314     -1.22498732256577     -0.37024613734635
  H   -0.38519668222533     -1.36944616859774      0.67763209861482
  H   1.22834817018914      0.45414252565611     -1.15579100838208
  H   -0.47341329038767     -1.32757706254839     -1.08289170827464
  C   1.43672634716174      0.62365551424441      0.92272445136274
  N   1.67369530695792      1.26422575421255      1.87688388647860
  C   -1.35879110712534      0.40421519009977     -0.11595352148456
  H   -1.23925003918814      0.99894827816058      0.79177015345974
  H   -2.36629009665246     -0.01431106956278     -0.11019852674834
  H   -1.28366673883891      1.07577317307385     -0.97511099222339
