13
Coordinates from ORCA-job run
  C   0.83836115435555      0.32335651229977      0.23320216571452
  C   -0.49607780913111      0.17394864234180     -0.50656369386401
  F   1.60790650367197      1.17052253301785     -0.57336613205771
  H   -0.33754033534823     -0.32136192644836     -1.46670491214661
  H   0.68210018554180      0.83586067554439      1.18291672622772
  N   1.40580136658150     -0.94234898743170      0.45308638458883
  H   2.19789292244028     -0.90456141798203      1.07855659475812
  H   1.66465648462265     -1.40632620918341     -0.40790300062002
  C   -1.16020538423959      1.45702342603367     -0.69355232409799
  N   -1.68703491955941      2.49431338292911     -0.84866490990654
  N   -1.37100470281231     -0.73784683933650      0.31259779042548
  O   -1.62664024973070     -1.83348485830921     -0.16986402881813
  O   -1.71721521639240     -0.30809493347538      1.40625933979633
