13
Coordinates from ORCA-job run
  C   0.86081295915337      0.32801632983373      0.11410322261795
  C   -0.47838728265581     -0.01077916118224     -0.55038138213110
  F   1.69912321669100      0.71891793997764     -0.93721547795411
  H   -0.35634639966731     -0.86310887578578     -1.22200620948971
  H   0.74371648559636      1.19067065945368      0.77074711069602
  N   1.32325097438831     -0.77869454176631      0.84467804968699
  H   2.11558872487535     -0.54967158725899      1.42780502172566
  H   1.54454138976898     -1.56877633560323      0.25269675166062
  C   -1.03510246860805      1.13041454287064     -1.26454827459659
  N   -1.47526979742113      2.05169090594916     -1.84335537300718
  N   -1.42838871781171     -0.44509782372247      0.53412846579990
  O   -1.74341307725291      0.41573372033635      1.34673176176449
  O   -1.77112600705645     -1.62031577310218      0.52661633322705
