13
Coordinates from ORCA-job run
  C   0.79322575234926     -0.42874538261758      0.00283790555405
  C   -0.55352616145982      0.17198293711094     -0.40402664719859
  F   0.60873154624196     -0.96763101513966      1.28205938510239
  H   -0.51200680748604      0.45774171966162     -1.45736116838437
  H   1.02154093877636     -1.26425683271368     -0.65944537501997
  N   1.79907187787596      0.55145086284919     -0.06931790710281
  H   1.66563761848397      1.28124220840057      0.62031597224692
  H   2.71940105522057      0.14854908829356      0.04005048369656
  C   -0.89911582974431      1.31480520492400      0.43004433085842
  N   -1.08814540158733      2.26797498079261      1.08858179898793
  N   -1.60628972627466     -0.91022494619060     -0.30487829081428
  O   -2.54744309611653     -0.74426110389604      0.45770863671914
  O   -1.40208176627937     -1.87962772147496     -1.02656912464539
