13
Coordinates from ORCA-job run
  C   0.78090949185777      0.34632629243005      0.36501924459002
  C   -0.43743181417198      0.19007137118157     -0.55171790619956
  F   1.58895697101761      1.30130115912166     -0.26471126543553
  H   -0.12752645763519     -0.21310972195804     -1.51803553977052
  H   0.47527944957657      0.76498803672819      1.32433136161042
  N   1.39684423192174     -0.90131618673261      0.55478489580784
  H   2.10360045541196     -0.87581725394150      1.27579922054368
  H   1.78575921090563     -1.27651620389077     -0.30047923085511
  C   -1.15355510482653      1.44704658758280     -0.72368828032709
  N   -1.73051796964926      2.46103375773630     -0.85201795631022
  N   -1.34975019019012     -0.83267412851609      0.07258040848945
  O   -1.47520818000667     -1.89426718297266     -0.52413748215579
  O   -1.85636009421151     -0.51706652676888      1.14227253001241
