13
Coordinates from ORCA-job run
  C   0.77888678194780     -0.44263948565815      0.10225928908896
  C   -0.53203470433110      0.11998972766233     -0.45091206972189
  F   0.53180455120805     -0.76349830518902      1.44194725201697
  H   -0.44221786393167      0.22781167441077     -1.53397043518601
  H   1.00397096498979     -1.37907464358414     -0.40905513227993
  N   1.81785752452243      0.48732640564892     -0.08444668101981
  H   1.68336546605508      1.32098653483146      0.47503075544208
  H   2.72033405325845      0.08332798580608      0.12416381485718
  C   -0.86937029751747      1.39183351232878      0.17314769088538
  N   -1.06251469772806      2.43190456906547      0.68191669619874
  N   -1.62247206337674     -0.90350965205784     -0.22097492761787
  O   -1.42819610239224     -1.97875031453520     -0.77621544348242
  O   -2.57841361270439     -0.59570800872944      0.47610919081858
