13
Coordinates from ORCA-job run
  C   0.87623982132382     -0.23175348142472     -0.47909487740771
  C   -0.60425801583731      0.16768042665896     -0.54753047654705
  F   0.86822015902882     -1.62536741490248     -0.68798271503763
  H   -0.99701176437217     -0.07505179621297     -1.53547838473635
  H   1.38807283513365      0.19876446967952     -1.34288470565430
  N   1.50815090043498      0.17852866758886      0.69969019567036
  H   2.49728655890397     -0.02362790443790      0.69024929429901
  H   1.06705245262248     -0.18889769036091      1.53114377609310
  C   -0.81503249590782      1.57390752583843     -0.23404603456721
  N   -0.99861920079631      2.71320502915050     -0.01950565878223
  N   -1.40550112768626     -0.68700228397897      0.41019762654032
  O   -2.26083196537010     -1.40850295655798     -0.08446070264098
  O   -1.12376815747776     -0.59188259104032      1.60070266277067
