13
Coordinates from ORCA-job run
  C   0.81450672339475     -0.48681484463592      0.05429493691226
  C   -0.52524976162933      0.18566968543385     -0.31505110938413
  F   0.56706260923666     -1.14482296193991      1.24566358983887
  H   -0.45133508545313      0.60239648735231     -1.32254524555981
  H   1.03887432832707     -1.23699274972848     -0.70629483124020
  N   1.90346965568245      0.39482914700813      0.20508007028941
  H   1.68936270809889      1.25608658459208      0.68696056893565
  H   2.43436543906733      0.54604956252572     -0.63681043995140
  C   -0.87970561556179      1.22038852793860      0.64537742786398
  N   -1.06915266047332      2.09841399248739      1.40131897482884
  N   -1.59352087382953     -0.88066254290989     -0.39112437415454
  O   -2.52308249981255     -0.83904759110754      0.40191368030773
  O   -1.40559496704750     -1.71649329701637     -1.26878324868667
