13
Coordinates from ORCA-job run
  C   0.80993897897442     -0.49287117172464      0.04545549081889
  C   -0.52139833148210      0.20017535481740     -0.31494059292832
  F   0.54791153570053     -1.18344960922339      1.21537886287555
  H   -0.43621046239251      0.64337069235007     -1.31016711509325
  H   1.03492172784958     -1.22279618839893     -0.73436711049439
  N   1.90315956599273      0.37647547854537      0.22855701776244
  H   1.69282233378946      1.22981220012333      0.72551578565898
  H   2.45215180122777      0.53621019881370     -0.59978340405365
  C   -0.87430911798188      1.21109660035327      0.67123124717644
  N   -1.07013507046094      2.05304500023614      1.46558504958305
  N   -1.59850708684525     -0.85406521654346     -0.42828787422092
  O   -1.40669419246082     -1.67098604770166     -1.32280411747354
  O   -2.53365168191100     -0.82701729164717      0.35862676038872
