13
Coordinates from ORCA-job run
  C   0.96124231144109     -0.40114075230815     -0.24817622941439
  C   -0.47821439282741     -0.00515473077728     -0.66798782178970
  F   0.93871498127247     -1.79015274322787     -0.27965806534094
  H   -0.70038961263211     -0.40398418540787     -1.65858100825020
  H   1.63701312655541     -0.06287400862407     -1.03808692361660
  N   1.41581548262240      0.06409231390887      0.99552405157135
  H   0.70116190012453      0.14052050235683      1.70342704000792
  H   1.98876889068057      0.88952181286003      0.93953173233734
  C   -0.64535712787395      1.43954053114773     -0.62274331790081
  N   -0.72540064949421      2.61063340797256     -0.59988395228262
  N   -1.46574052461319     -0.66282293375080      0.26266316297677
  O   -2.16905547906446     -1.54306681594454     -0.21384607981565
  O   -1.46055890619117     -0.27611239820544      1.42881741151754
