13
Coordinates from ORCA-job run
  C   0.82285217602759     -0.46062969064506      0.10132324107355
  C   -0.52384010929130      0.15289147847194     -0.33604256508674
  F   0.56489043569693     -1.04989435176981      1.32713079250873
  H   -0.43844788996890      0.50625323944774     -1.36658087051252
  H   1.08120319657183     -1.25200138883108     -0.60463139049411
  N   1.88430628476794      0.45737553541507      0.21427077383219
  H   1.64088988356423      1.35141538680908      0.61466761219657
  H   2.45533231390477      0.54201816587765     -0.60989772595458
  C   -0.92212290486640      1.23906368776076      0.54767530039520
  N   -1.14901724492419      2.15728647547623      1.24311334862094
  N   -1.56610634500834     -0.94124762264873     -0.36326548457037
  O   -1.33571416613929     -1.83227819700090     -1.17388207135181
  O   -2.51422563033489     -0.86925271836287      0.40511903934294
