13
Coordinates from ORCA-job run
  C   0.84337106709888     -0.43342413461790     -0.00311849681076
  C   -0.54807134248514      0.17125477228945     -0.28629095360477
  F   0.67894388354706     -1.18315403608655      1.14883090096854
  H   -0.53589642801749      0.65270679753581     -1.26720017277261
  H   1.08856040804823     -1.11748314084653     -0.81760690145939
  N   1.87565189882038      0.50826096429390      0.17010782094614
  H   1.62307165908317      1.33343395451220      0.69378396281301
  H   2.39324105392846      0.72119050308020     -0.66615848222437
  C   -0.93210711160881      1.12064953736262      0.74834848088632
  N   -1.14849159497576      1.92815386563956      1.57259197284242
  N   -1.54994924566716     -0.95475243868045     -0.39560858548494
  O   -2.45081904946462     -1.02239161331543      0.42806704615078
  O   -1.33750519830720     -1.72544503116687     -1.32574659225034
