13
Coordinates from ORCA-job run
  C   0.86819447589102      0.29751363635734      0.13172071195548
  C   -0.50661314434825      0.10052718474316     -0.51743121696629
  F   1.65662870940992      0.89287817920309     -0.86019427702287
  H   -0.42786788247410     -0.59771453548886     -1.35328529360317
  H   0.79312295218200      1.00870694545639      0.95485096642705
  N   1.35514085612333     -0.93462762277487      0.59828992455235
  H   1.54333322085456     -1.58603789730243     -0.15262919109386
  H   2.17490289169168     -0.82839838248767      1.17864056904374
  C   -1.08648576540350      1.36370523686979     -0.95372603108909
  N   -1.53907770908851      2.39123675060395     -1.29560474472751
  N   -1.40469775442401     -0.54583202004573      0.50400624421771
  O   -1.66606967585972      0.12967710769998      1.49194894233613
  O   -1.76251117455435     -1.69363458283412      0.27341339597030
