13
Coordinates from ORCA-job run
  C   0.81265048319514      0.28288161134340      0.34866721495734
  C   -0.44682003768379      0.23756469604705     -0.52406369238430
  F   1.65627947767908      1.20731716491081     -0.27932833936213
  H   -0.19918284114296     -0.14469939627494     -1.51654129610003
  H   0.57024111557429      0.68429000536560      1.33309587492594
  N   1.35389593185098     -1.00722535983064      0.47110543050465
  H   1.68959484810207     -1.37235857415541     -0.41066366912824
  H   2.08470908512450     -1.05277538843490      1.16669726260178
  C   -1.08756481520474      1.54219477240086     -0.62369645017009
  N   -1.58271852126440      2.60104622924645     -0.72941173512471
  N   -1.39694350429694     -0.75080398226752      0.09780564862428
  O   -1.84540710468302     -0.44477689344982      1.19599681680325
  O   -1.60773411725017     -1.78065488490091     -0.52966306614776
