13
Coordinates from ORCA-job run
  C   0.87666639069873     -0.36146369792105     -0.50068665744629
  C   -0.59346396284680      0.12984132579315     -0.55261224724018
  F   0.77589295494636     -1.71831436348662     -0.78271298859025
  H   -1.01739952761322     -0.06838788658466     -1.53786313346931
  H   1.40818225316653      0.11101909289932     -1.33096303501717
  N   1.58092664389637     -0.14966399772354      0.69478341478906
  H   1.01623025537673     -0.20060301399440      1.52925370830344
  H   2.17254277924892      0.66434248934028      0.68244537288798
  C   -0.67439647625686      1.54138327656515     -0.20878344498406
  N   -0.68836364355936      2.68512349440215      0.05588998789724
  N   -1.42234094941057     -0.67847711321668      0.41339295832862
  O   -2.25474619028618     -1.43235886170295     -0.07165803721842
  O   -1.17873052736064     -0.52244074437014      1.60751410175938
