13
Coordinates from ORCA-job run
  C   0.81380634303032     -0.38738864010107      0.02246171342911
  C   -0.55876726646987      0.12942574424271     -0.41298577224413
  F   0.64699292979185     -0.89228497126986      1.31757898142165
  H   -0.52265435292319      0.38231280692874     -1.47483684360586
  H   1.08996921533866     -1.23142831563757     -0.61021796837665
  N   1.76869641353051      0.64067377520967     -0.07577904941080
  H   1.59176843715066      1.38575009657931      0.58722982005237
  H   2.70759449973632      0.28998808338287      0.05309539755485
  C   -0.96912807855468      1.27999101542977      0.38017863706074
  N   -1.20920920994668      2.24730802746829      1.00030547081696
  N   -1.55477683044931     -1.00177550012045     -0.28421329336635
  O   -1.29849430992953     -1.98016031243583     -0.97645877746413
  O   -2.50479779030508     -0.86241180967657      0.47264168413222
