13
Coordinates from ORCA-job run
  C   0.84979113709958     -0.42009660251227     -0.01916838799087
  C   -0.55768742572646      0.16013678842012     -0.27433497119951
  F   0.72477550387826     -1.16007770741272      1.14397718979535
  H   -0.57651774416543      0.63216313521306     -1.25970259920210
  H   1.08539719918819     -1.10848520128566     -0.83282202379078
  N   1.87114857261651      0.53875242894822      0.11959214337526
  H   2.36425304706433      0.75266497091739     -0.73106358453350
  H   1.61959366127447      1.36407663248173      0.64350315685191
  C   -0.93191215319534      1.11295653001725      0.76055691572475
  N   -1.14175966351905      1.92605386769766      1.58098197146556
  N   -1.54360052057252     -0.98273182215344     -0.34952916686251
  O   -1.34068147620930     -1.75852317607706     -1.27758112371393
  O   -2.42380013773325     -1.05688984425430      0.49559048008035
