13
Coordinates from ORCA-job run
  C   0.76858304244131     -0.39378851766826      0.25839575925402
  C   -0.48317527121667      0.02457185818402     -0.51543558167932
  F   0.38346752881355     -0.49069312007567      1.60032814623439
  H   -0.27919981345141     -0.04570352634462     -1.58604297334525
  H   1.06037527843061     -1.39554744474424     -0.05833616833402
  N   1.80858827467653      0.52382730023460      0.02291013854328
  H   1.60230417126518      1.43630082362379      0.41117870198587
  H   2.68848180794163      0.19117752622323      0.39220371591260
  C   -0.90548604895395      1.37072159863123     -0.15420010374651
  N   -1.15308392808276      2.48255049080060      0.12958166321818
  N   -1.57629381715571     -0.98184159640085     -0.23007784878737
  O   -1.30694173738478     -2.12844521216289     -0.56892380585574
  O   -2.60761948732350     -0.59213018030095      0.29841835659989
