13
Coordinates from ORCA-job run
  C   0.83123651573465     -0.45195440724220      0.09112417001173
  C   -0.52920069048349      0.14428965333159     -0.32982570223427
  F   0.59992679080852     -1.03492966753332      1.32365936949894
  H   -0.46275422761752      0.49477331742373     -1.36275271196387
  H   1.08818167372786     -1.24355544522787     -0.61530618123467
  N   1.88704607077669      0.47712250435267      0.18610034368341
  H   2.41190876101497      0.59528803168992     -0.66496704609976
  H   1.63856845422785      1.35908469879662      0.61088884635911
  C   -0.92765719672822      1.22859687965090      0.55613190678541
  N   -1.15459583121528      2.14884211974484      1.24888191276358
  N   -1.55799637721989     -0.96227479944125     -0.33874512091050
  O   -2.49253123819213     -0.90268146179573      0.44730811578982
  O   -1.33113270483401     -1.85060142374989     -1.15349790244893
