13
Coordinates from ORCA-job run
  C   0.82671179767750     -0.45386793577046      0.09798345746112
  C   -0.53246273793326      0.13920161704298     -0.32903560866741
  F   0.60120365296988     -0.99718105259986      1.35093376936562
  H   -0.47332948314921      0.45331456347264     -1.37402245006384
  H   1.07020607600406     -1.27060130895536     -0.58400126681734
  N   1.88756398403781      0.47058710309845      0.15000117800619
  H   2.43647716548897      0.52558653829934     -0.69161217430165
  H   1.64997349692077      1.37888234503896      0.52086148901964
  C   -0.91243089919536      1.25633921421917      0.52362474178556
  N   -1.12381995086198      2.19249215223933      1.19978065341769
  N   -1.57133227450381     -0.95760352728705     -0.29005619621381
  O   -2.50073690306212     -0.85961745601832      0.49819257389548
  O   -1.35802392439325     -1.87753225277983     -1.07265016688727
