13
Coordinates from ORCA-job run
  C   0.81476505177042     -0.42278706153837      0.24059041023058
  C   -0.49313086527652      0.08812129026458     -0.39996505958631
  F   0.45609647810078     -0.81830376401285      1.51744141453607
  H   -0.32178227788401      0.27682724236924     -1.46257790741742
  H   1.13841709186295     -1.30913863922743     -0.30819114185510
  N   1.85754092782686      0.52207389407660      0.29827577758766
  H   2.48797862953422      0.49689357830015     -0.48581266484904
  H   1.57362585815071      1.46043869078538      0.53929679198319
  C   -0.97291816988408      1.29067161314399      0.26556993758562
  N   -1.26675737788608      2.29559939276964      0.79662697199656
  N   -1.52179519876948     -1.01757355273124     -0.34189792857928
  O   -1.22078590354707     -2.01542405648508     -0.98843742945172
  O   -2.53025424399871     -0.84839862771464      0.32808082781918
