13
Coordinates from ORCA-job run
  C   0.96715785228877     -0.34437188613716     -0.30723413704085
  C   -0.50583608424998      0.00567520501235     -0.64639151206304
  F   1.00347070437439     -1.72906651085004     -0.40362588822349
  H   -0.75330355496351     -0.35302852106895     -1.64634494627708
  H   1.59154566205937      0.06203422900774     -1.10735075315996
  N   1.45875646123068      0.08119376455607      0.93769674785298
  H   0.77522149712380      0.07336814399014      1.68002052021832
  H   1.96558239649695      0.95014420261250      0.89878275667842
  C   -0.73264290301260      1.43738689872308     -0.52069165018786
  N   -0.85835174349010      2.60200534840064     -0.44147653747156
  N   -1.42185528919808     -0.74181771515440      0.28890985095733
  O   -2.10609031476974     -1.62892326783489     -0.20259621740690
  O   -1.38265468388994     -0.41359989125707      1.47230176612367
