13
Coordinates from ORCA-job run
  C   0.96331270848651     -0.32071059677645     -0.34001637945314
  C   -0.52190800608077      0.01528736774942     -0.63488801100684
  F   1.01762374189205     -1.70225224364264     -0.47858902801352
  H   -0.78780008685786     -0.32149950355956     -1.63767278850151
  H   1.56280337249992      0.11654698544617     -1.14281916009520
  N   1.47471070837890      0.07840690604985      0.90442679524834
  H   1.99432457873362      0.93974496999516      0.87717348466018
  H   0.80689785943644      0.05691578734499      1.66022862059810
  C   -0.76769031004942      1.43937426497598     -0.46561653833524
  N   -0.91108337622336      2.59782822825861     -0.33985254888158
  N   -1.40477801965707     -0.77014080436108      0.30177923479744
  O   -1.33819792063632     -0.47577900518448      1.49276986773746
  O   -2.08821524992267     -1.65372235629601     -0.19692354875450
