18

C	0.0	0.0	0.0
C	-0.355334	0.049062	-1.52573
Br	1.939001	0.0	0.0
H	0.454645	0.639021	-1.958809
C	-0.462259	1.18063	0.828322
H	-0.045597	1.085737	1.828566
H	-0.121629	2.106938	0.372893
H	-1.553249	1.158909	0.860095
N	-0.417041	-1.270922	0.765805
O	-0.940365	-2.204785	0.17862
O	-0.152693	-1.253735	1.962464
N	-1.53111	0.984531	-1.9696
O	-1.498777	2.141017	-1.571955
O	-2.235575	0.562291	-2.874442
N	-0.387346	-1.207946	-2.175386
H	-0.493621	-1.045875	-3.167948
H	-1.186508	-1.734614	-1.847967
Cl	-3.516791	0.0	0.0
