14

C	-0.508962	-0.109866	-1.41917
C	0.0	0.0	0.0
F	-0.16065	0.986479	-2.143479
H	1.093161	0.0	0.0
H	-0.337625	0.986148	0.335311
N	0.086395	-1.320837	-2.16089
O	0.406534	-2.28366	-1.480681
O	0.138309	-1.228153	-3.378997
C	-1.971769	-0.280065	-1.49258
N	-3.139412	-0.356595	-1.587216
N	-0.608996	-1.036938	0.832921
H	0.013699	-1.835042	0.834966
H	-0.663425	-0.695651	1.785135
Cl	3.402532	0.0	0.0
