14

C	-0.498893	0.038809	-1.427691
C	0.0	0.0	0.0
F	-0.068881	1.154407	-2.064474
H	1.099844	0.0	0.0
H	-0.358446	-0.926863	0.451027
N	0.034434	-1.173817	-2.196833
O	-0.324823	-2.256527	-1.746685
O	0.741927	-0.969369	-3.169269
C	-1.967656	-0.026867	-1.522933
N	-3.13727	-0.08903	-1.60361
N	-0.570423	1.165179	0.679668
H	0.109509	1.915149	0.627502
H	-0.686255	0.947553	1.660239
Cl	3.403685	0.0	0.0
