14

C	-0.509603	-0.193955	-1.408646
C	0.0	0.0	0.0
F	-0.127358	0.836798	-2.209585
H	1.093042	0.0	0.0
H	-0.337186	1.002088	0.28307
N	0.049077	-1.466569	-2.064863
O	0.524955	-2.322543	-1.333422
O	-0.062671	-1.517162	-3.283601
C	-1.977064	-0.324369	-1.474521
N	-3.148471	-0.367328	-1.541658
N	-0.604609	-0.998401	0.879788
H	-0.718339	-0.596554	1.799691
H	0.046683	-1.767824	0.965605
Cl	3.408676	0.0	0.0
