14

C	-0.499813	0.021152	-1.428164
C	0.0	0.0	0.0
F	-0.064729	1.124446	-2.08195
H	1.099829	0.0	0.0
H	-0.359061	-0.919729	0.463788
N	0.022832	-1.206271	-2.181277
O	-0.319525	-2.280571	-1.699613
O	0.703047	-1.020536	-3.175132
C	-1.969299	-0.037691	-1.518914
N	-3.139314	-0.100924	-1.594609
N	-0.56363	1.17771	0.663548
H	-0.71475	0.963965	1.639955
H	0.133674	1.911717	0.629765
Cl	3.391456	0.0	0.0
