14

C	-0.558985	-0.00299	-1.404916
C	0.0	0.0	0.0
F	-1.928996	0.108648	-1.363644
H	1.090759	0.0	0.0
H	-0.347114	0.934286	0.454966
N	-0.068946	1.23516	-2.150752
O	-0.577325	2.289442	-1.786149
O	0.789203	1.08807	-3.010057
C	-0.228661	-1.197058	-2.187275
N	-0.034518	-2.169119	-2.815663
N	-0.48931	-1.197769	0.67153
H	0.289741	-1.653823	1.125496
H	-1.187931	-0.9753	1.363868
Cl	3.357475	0.0	0.0
