14

C	-0.442557	-0.012806	-1.465094
C	0.0	0.0	0.0
F	0.021465	1.077726	-2.124023
H	1.094865	0.0	0.0
H	-0.359025	-0.920639	0.463754
N	0.096142	-1.257189	-2.163887
O	0.901731	-1.104031	-3.066517
O	-0.349899	-2.313166	-1.723734
C	-1.909044	-0.052821	-1.602362
N	-3.08316	-0.037454	-1.638528
N	-0.474356	1.159041	0.722651
H	0.010363	1.985369	0.402215
H	-1.473857	1.294767	0.633508
Cl	3.408002	0.0	0.0
