14

C	-0.551284	-0.103248	-1.399345
C	0.0	0.0	0.0
F	-0.06778	0.88155	-2.208844
H	1.093015	0.0	0.0
H	-0.328901	0.975875	0.36971
N	-0.165198	-1.417787	-2.089565
O	0.593902	-2.179402	-1.511102
O	-0.640837	-1.567389	-3.211143
C	-2.024477	-0.050065	-1.422107
N	-3.193566	0.055144	-1.409381
N	-0.594443	-1.078945	0.789565
H	-0.837423	-0.740067	1.707876
H	0.105243	-1.800912	0.903618
Cl	3.397276	0.0	0.0
