13

C	-0.466476	-0.142979	-1.447771
C	0.0	0.0	0.0
F	-1.799295	-0.391699	-1.524866
H	1.095654	0.0	0.0
H	0.093303	-0.931278	-1.952647
N	-0.187577	1.137379	-2.202819
O	0.968882	1.27938	-2.578514
O	-1.123258	1.914667	-2.354757
C	-0.439458	-1.187066	0.736208
N	-0.781984	-2.15462	1.306488
C	-0.519261	1.212733	0.629196
N	-0.937769	2.185993	1.136036
Br	3.307075	0.0	0.0
