13

C	-0.494722	0.129449	-1.443569
C	0.0	0.0	0.0
F	0.074405	1.208451	-2.016983
H	1.09692	0.0	0.0
H	-1.581293	0.202219	-1.517702
N	-0.122273	-1.103234	-2.233202
O	-0.934332	-2.024887	-2.146606
O	0.921675	-1.087122	-2.86599
C	-0.493413	-1.214775	0.644262
N	-0.885162	-2.183012	1.181813
C	-0.464219	1.177577	0.734396
N	-0.864538	2.130265	1.291953
Br	3.298852	0.0	0.0
