19

C	0.0	0.0	0.0
C	-0.314295	0.34983	-1.494117
Br	1.980209	0.0	0.0
H	0.499729	-0.10047	-2.065789
N	-0.491263	1.01235	0.896126
H	-1.502655	1.063436	0.746213
H	-0.35003	0.703405	1.852536
N	-0.391325	-1.371742	0.265003
H	-1.412446	-1.388735	0.245669
H	-0.102038	-1.62405	1.20547
C	-0.279173	1.858774	-1.728129
H	0.611977	2.316015	-1.294175
H	-1.156923	2.341023	-1.293179
H	-0.284617	2.058113	-2.804884
C	-1.597285	-0.259576	-2.050403
H	-2.494727	0.051244	-1.51805
H	-1.695397	0.052613	-3.095868
H	-1.552036	-1.350089	-2.033353
Br	-4.418736	0.0	0.0
