14

C	-0.545122	0.002783	-1.42829
C	0.0	0.0	0.0
Br	0.161684	-1.602702	-2.340814
H	1.092781	0.0	0.0
H	-0.321662	-0.925516	0.490495
C	-2.068492	-0.065866	-1.502473
H	-2.415791	-0.956271	-0.974873
H	-2.492164	0.821277	-1.023936
H	-2.405763	-0.111881	-2.540098
C	-0.074945	1.167153	-2.180181
N	0.252132	2.143976	-2.74625
C	-0.513487	1.142381	0.735647
N	-0.920931	2.073584	1.328144
H	2.69478	0.0	0.0
