14

C	-0.5423	0.005711	-1.431585
C	0.0	0.0	0.0
Br	0.168431	-1.593342	-2.350026
H	1.092797	0.0	0.0
H	-0.325617	-0.926012	0.488141
C	-2.062026	-0.060372	-1.51139
H	-2.395804	-0.100364	-2.551104
H	-2.412874	-0.954051	-0.991361
H	-2.487612	0.82305	-1.02993
C	-0.060505	1.176364	-2.164647
N	0.238957	2.140283	-2.768021
C	-0.516618	1.139075	0.740797
N	-0.921647	2.06178	1.347512
H	2.697513	0.0	0.0
