14

C	-0.371904	0.067062	-1.468167
C	0.0	0.0	0.0
Br	-2.334885	0.458433	-1.718805
H	1.095822	0.0	0.0
H	-0.300505	0.934673	0.483822
C	0.442309	1.165362	-2.131714
H	0.177295	2.129566	-1.692574
H	0.269436	1.197974	-3.208235
H	1.496678	0.953514	-1.899256
C	-0.156618	-1.213771	-2.137293
N	0.036212	-2.241621	-2.675198
C	-0.561821	-1.127291	0.715791
N	-0.996814	-2.041568	1.313055
H	2.692807	0.0	0.0
