14

C	-0.424994	-0.025431	-1.471137
C	0.0	0.0	0.0
Br	0.174304	1.671409	-2.290104
H	1.093709	0.0	0.0
H	-0.360408	0.904186	0.497592
C	0.258403	-1.180583	-2.192454
H	-0.106618	-2.123952	-1.776137
H	1.331816	-1.096508	-1.997197
H	0.049927	-1.153311	-3.263526
C	-1.877623	-0.051345	-1.645683
N	-3.046841	-0.098432	-1.769034
C	-0.497193	-1.178529	0.690435
N	-0.896905	-2.141102	1.235816
H	2.731735	0.0	0.0
