14

C	-0.546401	-0.000322	-1.43142
C	0.0	0.0	0.0
Br	0.16696	-1.601263	-2.349523
H	1.092782	0.0	0.0
H	-0.320846	-0.922765	0.496017
C	-2.06931	-0.070647	-1.502739
H	-2.407511	-0.114589	-2.538938
H	-2.495653	0.815724	-1.025272
H	-2.414038	-0.959108	-0.969899
C	-0.072351	1.165971	-2.177328
N	0.244562	2.143332	-2.749401
C	-0.516021	1.139579	0.734615
N	-0.929409	2.066086	1.333432
H	2.688321	0.0	0.0
