14

C	-0.409834	-0.027537	-1.478299
C	0.0	0.0	0.0
Br	0.120281	1.706623	-2.268544
H	1.093689	0.0	0.0
H	-0.369649	0.90007	0.497217
C	0.336273	-1.1418	-2.202167
H	0.1421	-1.111659	-3.275337
H	1.401986	-1.013705	-1.989236
H	0.008627	-2.105818	-1.801992
C	-1.855721	-0.120223	-1.671855
N	-3.018458	-0.228363	-1.814716
C	-0.491744	-1.184616	0.683465
N	-0.888873	-2.146739	1.230985
H	2.741491	0.0	0.0
