14

C	-0.416807	-0.065427	-1.472487
C	0.0	0.0	0.0
Br	0.034735	1.639666	-2.359153
H	1.093779	0.0	0.0
H	-0.301992	-0.944124	0.470144
C	0.373683	-1.183724	-2.145786
H	0.077651	-2.141332	-1.706077
H	0.183306	-1.207951	-3.219198
H	1.433174	-1.012657	-1.932834
C	-1.857856	-0.239183	-1.647313
N	-3.011147	-0.434205	-1.776311
C	-0.575315	1.104772	0.742301
N	-1.025391	1.991695	1.368992
H	2.747982	0.0	0.0
