14

C	-0.521502	0.022731	-1.436977
C	0.0	0.0	0.0
Br	0.195898	-1.526931	-2.430579
H	1.092702	0.0	0.0
H	-0.30007	0.938487	0.482267
C	-2.042857	-0.03224	-1.54851
H	-2.468677	0.829748	-1.025875
H	-2.408724	-0.947898	-1.082665
H	-2.358755	-0.009337	-2.593671
C	-0.038671	1.23288	-2.102581
N	0.251495	2.249708	-2.616035
C	-0.540154	-1.117966	0.748998
N	-0.95699	-2.029563	1.364533
H	2.683283	0.0	0.0
