17

C	0.0	0.0	0.0
C	-0.454752	0.026466	-1.502129
F	1.358858	0.0	0.0
H	0.400511	0.57367	-1.923014
C	-0.420896	1.243067	0.668075
N	-0.622459	2.310371	1.11461
N	-0.383688	-1.16723	0.911115
O	-0.509649	-0.898731	2.10046
O	-0.405083	-2.285982	0.416033
N	-1.636977	0.772608	-1.82635
H	-2.475905	0.395902	-1.369911
H	-1.558459	1.738352	-1.53165
C	-0.511752	-1.338476	-2.175564
H	-1.391058	-1.890048	-1.846628
H	0.376856	-1.939761	-1.979837
H	-0.600596	-1.151249	-3.24611
Cl	-4.080899	0.0	0.0
