17

C	0.0	0.0	0.0
C	-0.228829	0.285677	-1.538643
F	1.363114	0.0	0.0
H	0.612086	-0.285666	-1.944528
C	-0.472226	1.010151	0.940964
N	-0.589796	1.912904	1.684151
N	-0.349716	-1.392298	0.477114
O	-0.341856	-2.272239	-0.376065
O	-0.449991	-1.550413	1.687436
N	0.049248	1.695766	-1.797316
H	0.886887	1.998171	-1.313161
H	-0.729658	2.249808	-1.453982
C	-1.441381	-0.12921	-2.34893
H	-1.097949	-0.14104	-3.392322
H	-2.269617	0.559816	-2.229496
H	-1.79975	-1.114037	-2.069801
Cl	-3.244735	0.0	0.0
