18

C	0.0	0.0	0.0
C	-0.510946	-0.039275	-1.451951
F	1.391138	0.0	0.0
H	-1.613052	-0.038582	-1.404864
C	-0.471839	1.28587	0.646996
H	-0.10287	1.311639	1.675212
H	-0.073657	2.152961	0.114755
H	-1.564081	1.311718	0.651991
C	-0.46149	-1.227173	0.758778
H	-1.548629	-1.311123	0.699811
H	0.007621	-2.127513	0.357281
H	-0.162436	-1.120377	1.804116
N	-0.087158	-1.324901	-2.110404
O	1.045981	-1.371691	-2.585666
O	-0.893612	-2.249475	-2.080439
C	0.003123	1.072193	-2.24391
N	0.378981	1.979986	-2.88682
Br	-3.877327	0.0	0.0
