18

C	0.0	0.0	0.0
C	-0.511018	-0.063377	-1.450732
F	1.395238	0.0	0.0
H	-1.611262	-0.127956	-1.397589
C	-0.47112	1.294884	0.628294
H	-0.054514	2.153608	0.097254
H	-1.56322	1.330868	0.612987
H	-0.123458	1.32508	1.663672
C	-0.456285	-1.212405	0.784579
H	-0.013493	-2.125884	0.383992
H	-1.545812	-1.28101	0.754817
H	-0.126881	-1.094105	1.81959
N	-0.007242	-1.314378	-2.11882
O	1.094166	-1.264895	-2.662422
O	-0.721673	-2.308549	-2.032438
C	-0.079251	1.083316	-2.241612
N	0.246239	2.023936	-2.864053
Br	-3.867225	0.0	0.0
