18

C	0.0	0.0	0.0
C	-0.515563	-0.07077	-1.450021
F	1.391236	0.0	0.0
H	-1.61819	-0.092797	-1.394532
C	-0.470876	1.300069	0.618442
H	-1.563174	1.329127	0.613606
H	-0.111017	1.344934	1.649039
H	-0.065279	2.154271	0.071521
C	-0.461717	-1.209694	0.785467
H	-0.159881	-1.080921	1.827732
H	0.002357	-2.120187	0.401846
H	-1.549563	-1.289027	0.730665
N	-0.066252	-1.353652	-2.094459
O	1.057227	-1.373923	-2.594778
O	-0.844255	-2.302641	-2.03306
C	-0.040089	1.041473	-2.262727
N	0.292759	1.955117	-2.919819
Br	-3.861484	0.0	0.0
