18

C	0.0	0.0	0.0
C	-0.180228	0.097503	-1.556849
F	1.39971	0.0	0.0
H	0.487434	0.908514	-1.854307
C	-0.507986	1.236819	0.696525
H	-0.169307	1.213905	1.736231
H	-1.600991	1.236837	0.67033
H	-0.127611	2.141336	0.217883
C	-0.542818	-1.271295	0.588478
H	-1.630163	-1.266451	0.458
H	-0.102405	-2.150514	0.115342
H	-0.31916	-1.295917	1.658767
N	-1.513439	0.512452	-2.133074
O	-1.763999	1.706508	-2.026872
O	-2.182105	-0.336865	-2.703366
C	0.268718	-1.130622	-2.208736
N	0.682212	-2.107814	-2.712368
Br	-4.05158	0.0	0.0
