18

C	0.0	0.0	0.0
C	-0.515274	0.054943	-1.449939
F	1.390778	0.0	0.0
H	-1.615662	-0.008231	-1.398098
C	-0.472271	1.238989	0.733367
H	-0.060218	2.139122	0.271801
H	-0.118574	1.18594	1.765948
H	-1.564407	1.274243	0.726636
C	-0.457454	-1.272635	0.683746
H	-0.018191	-2.150794	0.20759
H	-1.547089	-1.337375	0.652591
H	-0.123443	-1.241148	1.723515
N	-0.019645	-1.141353	-2.216657
O	1.083551	-1.05569	-2.753182
O	-0.741873	-2.134296	-2.21182
C	-0.077059	1.258977	-2.147106
N	0.245413	2.252607	-2.68321
Br	-3.876465	0.0	0.0
