15

C	0.0	0.0	0.0
C	-0.537283	-0.321751	-1.381517
Br	1.962445	0.0	0.0
H	-0.28315	0.474895	-2.079232
H	-1.632691	-0.421136	-1.283863
C	-0.468188	1.400297	0.393763
H	-0.078546	1.657562	1.379853
H	-0.098776	2.12676	-0.334088
H	-1.562152	1.392304	0.411489
C	-0.388193	-0.963108	1.032739
N	-0.626938	-1.669254	1.941121
N	0.00521	-1.571254	-1.974094
O	0.24189	-1.551898	-3.182078
O	0.152632	-2.542523	-1.23871
Cl	-3.591335	0.0	0.0
