15

C	0.0	0.0	0.0
C	-0.55823	-0.204497	-1.409056
Br	1.963857	0.0	0.0
H	-0.311181	-1.192993	-1.789112
H	-1.649709	-0.062409	-1.336163
C	-0.487242	1.259469	0.708877
H	-0.115919	1.263716	1.735384
H	-1.581177	1.231386	0.70497
H	-0.129863	2.144869	0.187643
C	-0.362354	-1.191737	0.773629
N	-0.582773	-2.16087	1.401047
N	-0.006577	0.761192	-2.392725
O	0.587355	0.296217	-3.368303
O	-0.187731	1.95954	-2.186746
Cl	-3.647696	0.0	0.0
