15

C	0.0	0.0	0.0
C	-0.557528	-0.204416	-1.408028
Br	1.963989	0.0	0.0
H	-1.649609	-0.069182	-1.331559
H	-0.305156	-1.190911	-1.791021
C	-0.487489	1.256563	0.712168
H	-0.133854	2.144032	0.191524
H	-0.112864	1.259588	1.737617
H	-1.581023	1.225585	0.710129
C	-0.361234	-1.192895	0.772164
N	-0.578096	-2.163619	1.398431
N	-0.012896	0.765855	-2.39166
O	0.571325	0.303631	-3.37404
O	-0.190975	1.964123	-2.179232
Cl	-3.645603	0.0	0.0
