15

C	0.0	0.0	0.0
C	-0.559708	-0.257648	-1.400833
Br	1.952742	0.0	0.0
H	-0.330805	-1.267105	-1.734142
H	-1.648803	-0.097645	-1.335682
C	-0.494346	1.282262	0.66274
H	-0.110539	1.334365	1.68321
H	-0.156312	2.147973	0.097208
H	-1.587547	1.238869	0.671877
C	-0.3646	-1.162093	0.81872
N	-0.575899	-2.100838	1.493389
N	0.009706	0.64956	-2.428692
O	-0.117055	1.861365	-2.264539
O	0.561149	0.123785	-3.396856
Cl	-3.654909	0.0	0.0
