15

C	0.0	0.0	0.0
C	-0.55374	0.180139	-1.412851
Br	1.970812	0.0	0.0
H	-0.317332	-0.6759	-2.040851
H	-1.643628	0.306954	-1.30052
C	-0.480596	1.026651	1.019759
H	-0.10535	0.758088	2.008892
H	-0.124465	2.01781	0.747877
H	-1.574401	1.003283	1.013536
C	-0.357308	-1.35553	0.429812
N	-0.55787	-2.458421	0.78303
N	0.008985	1.364606	-2.109441
O	0.570147	1.167331	-3.18809
O	-0.13218	2.466524	-1.583068
Cl	-3.634573	0.0	0.0
