15

C	0.0	0.0	0.0
C	-0.219917	-0.249654	-1.518795
Br	1.968046	0.0	0.0
H	0.05455	-1.274583	-1.761355
H	0.426054	0.446432	-2.051104
C	-0.569587	1.30543	0.508637
H	-0.235542	2.131566	-0.121719
H	-1.663123	1.214921	0.461905
H	-0.254108	1.475603	1.539868
C	-0.404514	-1.147992	0.807616
N	-0.682768	-2.092524	1.449086
N	-1.560021	-0.007126	-2.144672
O	-2.145358	-0.986911	-2.591858
O	-1.879116	1.168489	-2.285221
Cl	-3.804994	0.0	0.0
