12

C	0.0	0.0	0.0
C	-0.492818	-0.361592	-1.401117
F	1.375725	0.0	0.0
H	-1.592959	-0.411264	-1.342311
H	-0.205041	0.449925	-2.077139
C	-0.455974	1.349578	0.38621
N	-0.639939	2.4522	0.744173
C	-0.422291	-0.962045	1.037601
N	-0.59764	-1.681187	1.950521
C	0.096286	-1.611531	-1.863081
N	0.561067	-2.614433	-2.260253
Cl	-3.318032	0.0	0.0
