12

C	0.0	0.0	0.0
C	-0.474475	0.269092	-1.430355
F	1.375981	0.0	0.0
H	-0.178677	-0.582584	-2.049145
H	-1.573663	0.325678	-1.391682
C	-0.421273	1.04738	0.948362
N	-0.59051	1.888298	1.750616
C	-0.433592	-1.333592	0.451864
N	-0.527619	-2.451592	0.802332
C	0.123889	1.486581	-1.962483
N	0.607368	2.4583	-2.409601
Cl	-3.269899	0.0	0.0
