12

C	0.0	0.0	0.0
C	-0.518868	-0.364379	-1.385272
F	1.375553	0.0	0.0
H	-0.24186	0.438099	-2.073995
H	-1.618787	-0.405645	-1.294474
C	-0.432107	1.365193	0.375245
N	-0.715133	2.459753	0.692989
C	-0.407883	-0.968749	1.027758
N	-0.606721	-1.691518	1.931929
C	0.043942	-1.623051	-1.855544
N	0.499612	-2.619881	-2.27902
Cl	-3.371078	0.0	0.0
