12

C	0.0	0.0	0.0
C	-0.461977	0.255272	-1.42967
F	1.375553	0.0	0.0
H	-1.560995	0.25585	-1.409487
H	-0.094469	-0.573399	-2.041286
C	-0.410536	1.041412	0.952785
N	-0.605318	1.831838	1.798421
C	-0.457423	-1.324783	0.485353
N	-0.73491	-2.40087	0.866613
C	0.098022	1.496168	-1.945153
N	0.559031	2.481547	-2.388914
Cl	-3.266837	0.0	0.0
