12

C	0.0	0.0	0.0
C	-0.428345	-0.287041	-1.441769
F	1.375562	0.0	0.0
H	-1.526108	-0.286001	-1.47324
H	-0.030151	0.52566	-2.060098
C	-0.42	1.349274	0.427485
N	-0.73276	2.422266	0.786771
C	-0.429595	-1.018572	0.968986
N	-0.615105	-1.766709	1.855056
C	0.151949	-1.545865	-1.893276
N	0.636797	-2.547445	-2.267262
Cl	-3.242842	0.0	0.0
