12

C	0.0	0.0	0.0
C	-0.493353	-0.331147	-1.407799
F	1.375751	0.0	0.0
H	-0.178952	0.477988	-2.074172
H	-1.59603	-0.356858	-1.352952
C	-0.419841	1.358418	0.397886
N	-0.724234	2.437301	0.744259
C	-0.419638	-0.985316	1.013294
N	-0.635034	-1.708044	1.913534
C	0.070407	-1.591148	-1.873053
N	0.522671	-2.599842	-2.266843
Cl	-3.323009	0.0	0.0
