12

C	0.0	0.0	0.0
C	-0.488563	0.322383	-1.41138
F	1.375607	0.0	0.0
H	-0.170215	-0.489236	-2.071404
H	-1.589892	0.349586	-1.363051
C	-0.42305	0.987176	1.0086
N	-0.611638	1.731424	1.899594
C	-0.409395	-1.35621	0.404146
N	-0.713661	-2.443881	0.726245
C	0.077374	1.581079	-1.882407
N	0.529407	2.587486	-2.283044
Cl	-3.314935	0.0	0.0
