12

C	0.0	0.0	0.0
C	-0.477683	0.287431	-1.422798
F	1.375585	0.0	0.0
H	-1.579031	0.336745	-1.380076
H	-0.168984	-0.547657	-2.059935
C	-0.412431	1.03786	0.962289
N	-0.598917	1.847613	1.794957
C	-0.444582	-1.335251	0.442461
N	-0.740091	-2.433916	0.735708
C	0.12134	1.523662	-1.914292
N	0.618086	2.504842	-2.325497
Cl	-3.309243	0.0	0.0
