12

C	0.0	0.0	0.0
C	-0.383265	-0.214029	-1.47489
F	1.375607	0.0	0.0
H	-1.471456	-0.178483	-1.58069
H	0.081912	0.604307	-2.033577
C	-0.413422	1.329639	0.483918
N	-0.713876	2.379009	0.915105
C	-0.441782	-1.06023	0.918132
N	-0.615749	-1.837764	1.780274
C	0.177142	-1.474537	-1.958716
N	0.660678	-2.463715	-2.366179
Cl	-3.17269	0.0	0.0
