19

C	-0.45976	-0.011109	-1.436162
C	0.0	0.0	0.0
Cl	0.341374	-1.290092	-2.375999
H	1.095636	0.0	0.0
N	-2.00276	-0.388409	-1.444402
O	-2.769111	0.57597	-1.348722
O	-2.360975	-1.559926	-1.428687
N	-0.270455	1.219105	-2.110187
H	-0.841806	1.929183	-1.673311
H	-0.531506	1.131533	-3.084798
C	-0.433468	-1.233415	0.780919
H	-0.213826	-2.150103	0.23129
H	-1.500183	-1.23816	1.043339
H	0.152684	-1.25761	1.703593
C	-0.401927	1.283413	0.72005
H	-1.48446	1.466884	0.743754
H	-0.047044	1.206735	1.751121
H	0.112686	2.140163	0.279987
F	2.614949	0.0	0.0
