19

C	-0.066549	-0.076503	-1.53251
C	0.0	0.0	0.0
Cl	-1.609967	-0.801899	-2.213076
H	1.098055	0.0	0.0
N	-0.121742	1.390397	-2.134944
O	-1.143021	2.056587	-1.99154
O	0.901496	1.787081	-2.687138
N	1.044073	-0.779351	-1.977041
H	1.877957	-0.531037	-1.380022
H	1.209376	-0.673158	-2.967485
C	-0.478244	-1.30704	0.614159
H	-0.081348	-2.157333	0.057578
H	-1.572048	-1.377154	0.634064
H	-0.105524	-1.370155	1.641278
C	-0.610473	1.210579	0.673877
H	-0.467283	1.106906	1.754001
H	-0.121025	2.137119	0.36985
H	-1.682434	1.304068	0.474465
F	2.737451	0.0	0.0
