19

C	-0.530679	-0.011039	-1.410145
C	0.0	0.0	0.0
Cl	0.360341	1.2606	-2.416917
H	1.092082	0.0	0.0
N	-0.160414	-1.295344	-2.164231
O	0.869302	-1.866231	-1.846505
O	-0.914618	-1.631978	-3.078174
N	-1.934105	0.119299	-1.522068
H	-2.215246	0.994653	-1.102604
H	-2.216045	0.091628	-2.493593
C	-0.484716	-1.223738	0.77365
H	-0.064089	-2.140371	0.358559
H	-1.577489	-1.305349	0.803721
H	-0.110248	-1.140988	1.797699
C	-0.42942	1.277606	0.716624
H	-0.164759	2.167942	0.142039
H	0.126152	1.329151	1.656154
H	-1.50227	1.307093	0.958632
F	2.639476	0.0	0.0
