19

C	-0.475227	0.022368	-1.438609
C	0.0	0.0	0.0
Cl	0.309761	1.320931	-2.384295
H	1.093317	0.0	0.0
N	0.032366	-1.302255	-2.10611
O	1.228898	-1.454263	-2.269726
O	-0.83923	-2.138896	-2.365691
N	-1.880354	0.153892	-1.600881
H	-2.330414	-0.587335	-1.078592
H	-2.130963	0.04301	-2.57653
C	-0.442265	-1.274161	0.714102
H	-0.05588	-2.170777	0.224375
H	-1.532416	-1.375668	0.826471
H	-0.006	-1.254973	1.716054
C	-0.479473	1.240434	0.739238
H	-0.036445	1.235062	1.73906
H	-0.132842	2.145351	0.236847
H	-1.570649	1.292181	0.832327
F	2.629923	0.0	0.0
