19

C	-0.46308	0.011399	-1.442515
C	0.0	0.0	0.0
Cl	0.33057	1.30652	-2.39073
H	1.093309	0.0	0.0
N	0.057984	-1.312145	-2.109442
O	-0.811241	-2.10823	-2.485594
O	1.260036	-1.494293	-2.170958
N	-1.866164	0.140422	-1.623123
H	-2.099795	0.029834	-2.602894
H	-2.323242	-0.604648	-1.111324
C	-0.457016	-1.270761	0.711606
H	-1.548579	-1.354444	0.824251
H	-0.020193	-1.264384	1.713333
H	-0.085916	-2.171597	0.217001
C	-0.488546	1.244547	0.726313
H	-1.581526	1.300999	0.79096
H	-0.125613	2.145957	0.229255
H	-0.071879	1.240761	1.737529
F	2.630799	0.0	0.0
