19

C	-0.096884	-0.113176	-1.532766
C	0.0	0.0	0.0
Cl	-1.576021	-0.953782	-2.134601
H	1.097559	0.0	0.0
N	-0.177733	1.333452	-2.07236
O	-1.276327	1.861654	-2.224875
O	0.901304	1.896836	-2.206066
N	1.066085	-0.709626	-2.113389
H	1.865094	-0.48377	-1.470782
H	0.939559	-1.71271	-2.134107
C	-0.42705	-1.296749	0.670261
H	-1.514894	-1.424798	0.688825
H	-0.054358	-1.297121	1.698697
H	0.015196	-2.159615	0.16661
C	-0.644863	1.214138	0.635871
H	-0.194671	2.141466	0.275823
H	-0.482164	1.175722	1.717165
H	-1.724582	1.256253	0.451704
F	2.716003	0.0	0.0
