19

C	-0.478058	0.000764	-1.447743
C	0.0	0.0	0.0
Cl	0.384022	1.258472	-2.370353
H	1.094484	0.0	0.0
N	-0.093402	-1.357239	-2.051111
O	-0.980638	-2.213764	-2.024133
O	1.052709	-1.534859	-2.428813
N	-1.887044	0.164228	-1.73433
H	-2.393457	-0.564528	-1.244782
H	-2.165615	1.064188	-1.362906
C	-0.445799	-1.250587	0.749605
H	-0.128799	-1.14477	1.79063
H	-1.532625	-1.418402	0.742501
H	0.047562	-2.142964	0.360555
C	-0.480838	1.253569	0.717506
H	-1.566208	1.263761	0.896936
H	-0.203257	2.157823	0.171172
H	0.021448	1.301407	1.687036
F	2.625347	0.0	0.0
