14

C	0.0	0.0	0.0
C	-0.635356	-0.015933	-1.357834
Br	1.95375	0.0	0.0
H	-1.750322	-0.046744	-1.050477
H	-0.279979	-0.917462	0.51144
H	-0.378055	0.847717	-1.970153
C	-0.493414	1.206788	0.780381
H	-1.586043	1.103655	0.771432
H	-0.17959	2.135374	0.294406
H	-0.097332	1.197804	1.798221
N	-0.304762	-1.212977	-2.145418
O	-0.214042	-2.292507	-1.558104
O	-0.188669	-1.082248	-3.367987
F	-2.908984	0.0	0.0
