14

C	0.0	0.0	0.0
C	-0.604029	-0.025252	-1.374972
Br	1.953336	0.0	0.0
H	-0.336563	0.843635	-1.975488
H	-0.289204	-0.915152	0.511212
H	-1.71474	-0.077603	-1.105609
C	-0.503721	1.213933	0.758607
H	-0.17375	2.13778	0.27162
H	-1.597375	1.109559	0.72387
H	-0.136665	1.206713	1.787963
N	-0.201926	-1.21299	-2.149495
O	0.102481	-1.057278	-3.335862
O	-0.220373	-2.305434	-1.582076
F	-2.89713	0.0	0.0
