14

C	0.0	0.0	0.0
C	-0.646478	0.047246	-1.359078
Br	1.95508	0.0	0.0
H	-1.763439	0.088834	-1.043198
H	-0.274631	-0.982211	0.38714
H	-0.429571	-0.84034	-1.951378
C	-0.481154	1.047102	0.994246
H	-0.106256	0.807966	1.993297
H	-1.574324	0.970327	0.954533
H	-0.142452	2.042283	0.712713
N	-0.286768	1.190691	-2.210155
O	-0.226954	0.990928	-3.42838
O	-0.111448	2.295187	-1.692623
F	-2.909489	0.0	0.0
