16
Coordinates from ORCA-job run
  C   0.71073748888228      0.02948599264126      0.47733086264614
  C   -0.76758878492980     -0.30107108600760      0.26198584373432
  Br  1.14412001222985     -0.17344051884104      2.35916837398816
  H   -1.07965206414320     -1.18353764754564      0.81171950702097
  N   1.50142838672990     -1.13855998805288     -0.21162622823580
  O   0.96705188246629     -2.24027320651611     -0.20907035023961
  O   2.59518970237267     -0.84340136128427     -0.66418214585136
  N   1.06573925215301      1.30592581528614      0.04540192852821
  H   0.86247193991399      1.42746389731886     -0.94006541833979
  H   2.03562281603680      1.51503204803353      0.24181313095097
  N   -1.09701622991724     -0.54645677593608     -1.18350334218265
  O   -2.15610845411847     -1.12732864161525     -1.37863950329535
  O   -0.31357127153429     -0.13074503242731     -2.03185109445910
  N   -1.62289105132080      0.85849231773472      0.69813157243098
  O   -1.96601754720489      0.84437268289677      1.87247975862519
  O   -1.87951607761610      1.70404150431490     -0.14909289532127
