16
Coordinates from ORCA-job run
  C   0.81629258558660      0.19237618469574      0.22436879676789
  C   -0.67462669835507      0.47178003084433      0.03950919580505
  Br  1.30239489542120      1.14699532901047      1.90180640576611
  H   -0.82842909827488      1.54945658548509      0.00468005820069
  N   1.09752465967267     -1.31429400827814      0.42392975860669
  O   1.98392554314800     -1.64576280322948      1.18966310760802
  O   0.44528798881479     -2.02619278213444     -0.32453718542450
  N   1.55873498109349      0.56060906321824     -0.89843306406993
  H   1.23588072695148      1.39202280451194     -1.37133011489610
  H   2.55356713944058      0.58821897463487     -0.71687864908264
  N   -1.53829656858061     -0.03467942146961      1.15548541535250
  O   -1.14462156775398     -0.98725053395934      1.81432978077487
  O   -2.60239922238368      0.56374300901040      1.27117045854393
  N   -1.26071364492740     -0.05123112220713     -1.25886196540953
  O   -2.04909965310901     -0.98006176306977     -1.20960046833721
  O   -0.89642206674416      0.57427045293684     -2.24730153020583
