16
Coordinates from ORCA-job run
  C   0.73623149814905      0.21930064291176      0.13209849944449
  C   -0.73483733502447     -0.12578628516392     -0.11457916578289
  Br  0.98451368508661      1.71706177808513      1.29966430816242
  H   -0.79686723273337     -1.09377627792200     -0.61259126396822
  N   1.37730913368177     -1.06332041387266      0.78958801070492
  O   1.12924378118067     -2.08892638434383      0.16005255020850
  O   2.11703546957111     -0.95338760630076      1.74752523250119
  N   1.33624904401378      0.48485367342991     -1.12095784158241
  H   2.28746555425656      0.81674327468717     -1.02751735568840
  H   1.28766616516903     -0.31758714605314     -1.73987492756921
  N   -1.35186296845766      0.87543347571614     -1.03943169663776
  O   -1.53308981426718      0.47569311700308     -2.18613144426901
  O   -1.59307490072256      1.98597992643486     -0.58985666944674
  N   -1.55078601499321     -0.25044760554188      1.13881808137913
  O   -0.95773141051557     -0.71727032166796      2.10380562773300
  O   -2.73646465439456      0.03543615259810      1.05938805481100
