16
Coordinates from ORCA-job run
  C   0.74497688865324      0.05891059890461      0.36462402975905
  C   -0.76529484099522     -0.19562171743593      0.31234904173236
  Br  1.24955123178139      0.03570355267405      2.32417736371025
  H   -1.09841878918162     -0.85901334304888      1.10690744062254
  N   1.44055575044859     -1.20181436702136     -0.16457898926681
  O   0.85646427183676     -2.25860712701082      0.03217385008107
  O   2.53181748356369     -1.04568197435466     -0.68979598447689
  N   1.18872274332226      1.14754187235580     -0.35997335575230
  H   0.90541369824195      2.03074940381642      0.03975082855863
  H   2.18317150218910      1.10079187588193     -0.54127098063530
  N   -1.20021810202589     -0.83846854029028     -0.98069987736278
  O   -2.04552572611934     -1.71692864346451     -0.86934060045087
  O   -0.69068246946245     -0.41552756554026     -2.01074573335501
  N   -1.56351069582206      1.08671175038358      0.43284065897050
  O   -1.04823689159457      2.00967378732906      1.05185994709497
  O   -2.68678605483582      1.06258043682126     -0.04827763922942
