16
Coordinates from ORCA-job run
  C   0.78469369864900      0.24599145652590      0.23731737831896
  C   -0.71196782972811      0.48002937745319      0.00534272081666
  Br  1.36076890097468      1.14394571129386      1.90427402906646
  H   -0.88957471322984      1.55013541313561     -0.09942762210821
  N   1.09059452633605     -1.23616312496493      0.47807649992464
  O   0.33246686042735     -1.81391515794257      1.23887214632093
  O   2.08595351281988     -1.68802932913392     -0.06687762836207
  N   1.46603383802338      0.67482000727329     -0.91350784981666
  H   2.35468821621551      0.19628095540506     -1.00561871565733
  H   1.59200133169607      1.67819452700838     -0.92959495586944
  N   -1.68133688302696     -0.00215623268094      1.06465269328810
  O   -1.72237838470876      0.68828032614715      2.07247787120121
  O   -2.35662379929197     -0.98692947848888      0.80493185723208
  N   -1.12338297485502     -0.15884963021181     -1.28848304561527
  O   -0.65439924994665     -1.25791831750597     -1.54730149091914
  O   -1.92653705035463      0.48628349668660     -1.95413388782094
