16
Coordinates from ORCA-job run
  C   0.70723960284396     -0.01088146382071      0.48393644783605
  C   -0.77801230473554     -0.28733365342967      0.24354903177360
  Br  1.11563324576858     -0.30303676039908      2.36022116150164
  H   -1.12070787462757     -1.18238878594581      0.75320865924527
  N   1.46869560442667     -1.17423309106683     -0.24470493713524
  O   0.90049704720327     -2.25783822826213     -0.29306074464846
  O   2.57599424578841     -0.89530275290514     -0.67424226168317
  N   1.10556466001729      1.26991793902462      0.10699475768696
  H   0.90592921577684      1.44114505015637     -0.87183096026085
  H   2.08248061547413      1.43591958161389      0.30995439521898
  N   -1.10188067746941     -0.46335050221360     -1.21331603180623
  O   -0.29847484980127     -0.03829826124608     -2.03807011259663
  O   -2.17658888007948     -1.00261710273707     -1.43999941676784
  N   -1.60259794196909      0.87810213731596      0.72025997394111
  O   -1.96412345217790      0.82293840049136      1.88790567078198
  O   -1.81964825643884      1.76825749342393     -0.09180563308721
