16
Coordinates from ORCA-job run
  C   0.73904975059154      0.21828057777580      0.13392785089118
  C   -0.66529409272516     -0.22814211454089     -0.27984383298495
  Br  0.66059050341180      1.83109861711602      1.25913637296096
  H   -0.59128612877523     -0.99854783811857     -1.04555261990708
  N   1.37957055542378     -0.91823357891724      0.95415417816794
  O   0.87286292579665     -2.02395581261751      0.81436463437225
  O   2.39970665330583     -0.64214034643048      1.56115539020699
  N   1.56790740073478      0.32904351199200     -0.99990313438231
  H   1.14944944633100      0.91231171268479     -1.71435485620240
  H   2.48435529827300      0.67884150395177     -0.74389470914522
  N   -1.42038749263767      0.92986494422769     -0.88726654344407
  O   -2.40212869439405      1.35445881007982     -0.29995321265465
  O   -0.95378677150018      1.33973104353406     -1.94592868421233
  N   -1.52016899826563     -0.79177646938826      0.81514454207394
  O   -1.24425375032803     -0.52508323009639      1.97523122430323
  O   -2.45818660524248     -1.46575133125264      0.40558339995652
