17
Coordinates from ORCA-job run
  C   -0.79318977027292      0.13187385392585     -0.39704935766349
  C   0.57915255951567     -0.47649409026651     -0.12821826100652
  F   -0.83205150433557      0.65770173947815     -1.67924528832634
  H   0.58273097131431     -1.39616123634701     -0.74196197940232
  N   -1.03005738942825      1.33546091383021      0.51166156946550
  O   -0.28892132110684      2.29027104874326      0.32068494213115
  O   -1.93926093691923      1.27471640241949      1.33105442713729
  N   -1.80818857320287     -0.81349325484866     -0.15699807814432
  H   -1.81296887500351     -1.50401386605528     -0.89643030781458
  H   -2.71819711699775     -0.38284106817397     -0.06203131483726
  N   0.63071808321045     -0.72853064610849      1.30350992331625
  H   -0.07257644819419     -1.40848684220020      1.56421734159587
  H   1.54283655497525     -1.07996185854167      1.56453425297933
  C   1.76360715351749      0.37395502864035     -0.55566167347921
  H   2.67299199954363     -0.23045204896848     -0.49226110678165
  H   1.87098526840004      1.23748938280712      0.09804701707584
  H   1.65338934498431      0.71696654166586     -1.58385210624551
