17
Coordinates from ORCA-job run
  C   -0.69552549722936      0.50913275341004     -0.21670202053561
  C   0.41890463922984     -0.40139672021860      0.29476259673111
  F   -0.15293765326904      1.72338989181042     -0.50642279234008
  H   -0.06515306387634     -1.34412275257089      0.56699029977507
  N   -1.67600961517735      0.70198863442800      0.93404905589495
  O   -1.78594618749186      1.80731205028686      1.43288132145416
  O   -2.28516386394208     -0.31813402702673      1.24494899762740
  N   -1.48396490250668      0.10076098538264     -1.32792150723179
  H   -1.94885656485423     -0.77530900411030     -1.13068431193571
  H   -0.91426319282458      0.02181759675059     -2.15928239448329
  N   0.92621200635674      0.19485514783377      1.52198617508708
  H   1.45647095317533      1.03192433301745      1.31059510779041
  H   1.53482671479493     -0.45285673988145      2.00519497630201
  C   1.46224846437943     -0.64973238779789     -0.79335724673437
  H   1.04361131311565     -1.15843473779443     -1.66572848421646
  H   1.90913297640126      0.29313558324472     -1.11719702527319
  H   2.25741347371836     -1.28433060676418     -0.39611274791169
