17
Coordinates from ORCA-job run
  C   -0.65162918908997      0.42747948397682     -0.27536139878935
  C   0.48728999089513     -0.41854891838322      0.27339602403253
  F   -0.20919866414276      1.68283507528007     -0.55366871319391
  H   0.05866598862372     -1.39849506243414      0.50495221403020
  N   -1.67727114436176      0.59088580311525      0.86962057110631
  O   -2.22473003222498     -0.46024816658957      1.19300530896643
  O   -1.88923799196026      1.69951485385179      1.33246794430620
  N   -1.25521237346665     -0.10580529334493     -1.43733853473525
  H   -1.70492462273969     -0.98631364953507     -1.22172509461810
  H   -1.94019235309129      0.54260712385415     -1.80845187375693
  N   0.88799128278977      0.18589279160974      1.53659834249766
  H   1.47785432152069     -0.45009526412869      2.05671052827613
  H   1.41735527988089      1.03231629981781      1.36223961818310
  C   1.59317400290468     -0.56214159156923     -0.76810133987449
  H   2.00642590309078      0.41866422970782     -1.01457733528532
  H   1.22551362392111     -1.01874385787118     -1.68764348928157
  H   2.39712597745059     -1.18080385735742     -0.36212277186364
