17
Coordinates from ORCA-job run
  C   -0.65157569194924      0.39244419838713     -0.34460868468593
  C   0.52910135440242     -0.38577377407678      0.22890751695114
  F   -0.27011575760075      1.60128562189120     -0.81214535035168
  H   0.18351460336984     -1.41735908588781      0.37580793022785
  N   -1.61975903482542      0.69056879216257      0.82230394700243
  O   -2.03785858362002      1.82624506915966      0.98121637485271
  O   -1.94367328069888     -0.30592607323863      1.46948084951632
  N   -1.31784983964932     -0.30206122800630     -1.38267375943873
  H   -2.04516022402363      0.27338599195122     -1.79097048886217
  H   -1.71119941311930     -1.16901814593455     -1.04118589766302
  N   0.93243658831944      0.25424289305760      1.47439129230264
  H   1.93357459970301      0.19336262900029      1.59753610392415
  H   0.48466332300583     -0.18492572361287      2.26785266621367
  C   1.66919856554237     -0.37090066083035     -0.77776206346419
  H   2.46541567535094     -1.04102958764652     -0.44480467985198
  H   1.32754801006865     -0.69419134634958     -1.76054389091710
  H   2.07273910572406      0.63965042997373     -0.86180186575611
