12

C	-0.426504	-0.048594	-1.44742
C	0.0	0.0	0.0
Cl	-2.194144	-0.065536	-1.671927
H	1.094995	0.0	0.0
H	-0.013888	-0.903358	-1.977912
H	-0.357343	0.921646	0.462101
N	0.092205	1.168553	-2.174043
O	-0.02138	2.249425	-1.608909
O	0.548477	0.975167	-3.296011
C	-0.502757	-1.159236	0.722129
N	-0.924039	-2.090599	1.29919
Cl	3.263315	0.0	0.0
