12

C	-0.452241	-0.017984	-1.441931
C	0.0	0.0	0.0
Cl	0.016252	-1.52204	-2.237126
H	1.092695	0.0	0.0
H	-0.049033	0.81367	-2.015042
H	-0.361714	-0.891729	0.514455
N	-1.955346	0.105693	-1.54407
O	-2.628949	-0.626001	-0.827293
O	-2.387054	0.933545	-2.34362
C	-0.505563	1.19511	0.66578
N	-0.917614	2.168464	1.176886
Cl	3.285475	0.0	0.0
