12

C	-0.500278	0.000283	-1.417843
C	0.0	0.0	0.0
Cl	-2.255106	0.227994	-1.572814
H	1.094963	0.0	0.0
H	-0.229502	-0.898474	-1.969457
H	-0.33673	0.912374	0.49588
N	0.172671	1.130681	-2.162821
O	0.182392	2.227162	-1.617034
O	0.628463	0.863124	-3.271353
C	-0.486486	-1.166723	0.705907
N	-0.864163	-2.126124	1.275049
Cl	2.68845	0.0	0.0
