12

C	-0.454275	-0.094097	-1.441358
C	0.0	0.0	0.0
Cl	-2.18036	-0.482218	-1.601334
H	1.092786	0.0	0.0
H	0.118075	-0.85911	-1.959367
H	-0.294411	-0.934185	0.488454
N	-0.175355	1.184654	-2.195285
O	-0.866036	2.15856	-1.927022
O	0.745245	1.138362	-3.004685
C	-0.575844	1.106444	0.74919
N	-1.041688	1.956812	1.410454
Cl	3.270247	0.0	0.0
