12

C	-0.486173	0.087422	-1.424593
C	0.0	0.0	0.0
Cl	-2.217839	-0.281961	-1.583474
H	1.090674	0.0	0.0
H	0.058254	-0.615392	-2.055145
H	-0.297381	-0.984747	0.372866
N	-0.2262	1.446656	-2.051347
O	-0.674476	1.61287	-3.181108
O	0.451805	2.241878	-1.410659
C	-0.588847	1.007748	0.871079
N	-1.116897	1.770305	1.589334
Cl	3.285717	0.0	0.0
