12

C	-0.467553	-0.119302	-1.432781
C	0.0	0.0	0.0
Cl	-2.200655	-0.492566	-1.569427
H	1.092815	0.0	0.0
H	0.094767	-0.901892	-1.940165
H	-0.290826	-0.928092	0.502666
N	-0.18906	1.137617	-2.221241
O	0.670177	1.032456	-3.090533
O	-0.823612	2.148498	-1.929841
C	-0.569164	1.117432	0.740487
N	-1.000821	1.987861	1.399344
Cl	3.265947	0.0	0.0
