12

C	-0.600284	0.048212	-1.388793
C	0.0	0.0	0.0
Cl	0.098122	1.364808	-2.336735
H	1.091331	0.0	0.0
H	-1.680994	0.186108	-1.382123
H	-0.295231	0.928509	0.501281
N	-0.400945	-1.242532	-2.152415
O	0.529698	-1.966874	-1.829291
O	-1.21183	-1.446196	-3.055085
C	-0.557877	-1.119395	0.750525
N	-1.036033	-2.022907	1.32785
Cl	3.31328	0.0	0.0
