12

C	-0.426012	-0.052315	-1.447396
C	0.0	0.0	0.0
Cl	-2.193364	-0.074337	-1.671702
H	1.094959	0.0	0.0
H	-0.011058	-0.906558	-1.97654
H	-0.357786	0.922491	0.459845
N	0.088857	1.165099	-2.175909
O	-0.027431	2.246381	-1.61211
O	0.544873	0.971443	-3.298012
C	-0.502181	-1.157704	0.724974
N	-0.922581	-2.087802	1.304589
Cl	3.263512	0.0	0.0
