16

C	-0.397976	0.001948	-1.467496
C	0.0	0.0	0.0
F	-1.779928	-0.259669	-1.595285
H	1.104004	0.0	0.0
H	0.111607	-0.83884	-1.951823
C	-0.086365	1.298386	-2.174208
H	0.977346	1.526278	-2.058893
H	-0.322495	1.228289	-3.23874
H	-0.685404	2.096772	-1.732589
N	-0.460844	-1.186201	0.706298
H	-1.37312	-1.447148	0.34553
H	0.189291	-1.944106	0.532456
N	-0.559447	1.174652	0.684377
H	0.083215	1.949339	0.544469
H	-0.511796	0.944533	1.671609
Br	3.689344	0.0	0.0
