16

C	-0.403165	-0.002862	-1.469331
C	0.0	0.0	0.0
F	-1.781467	0.267841	-1.588623
H	1.103744	0.0	0.0
H	-0.257154	-1.007126	-1.883544
C	0.356822	1.020398	-2.278368
H	0.071546	0.968086	-3.331077
H	0.132027	2.024327	-1.910136
H	1.430071	0.847267	-2.173845
N	-0.578298	-1.172294	0.665816
H	-0.050262	-1.989382	0.374289
H	-0.38156	-1.044582	1.651512
N	-0.451115	1.176518	0.723953
H	0.199903	1.936984	0.577455
H	-1.367021	1.444131	0.38406
Br	3.715646	0.0	0.0
