16

C	-0.471496	-0.03827	-1.445044
C	0.0	0.0	0.0
F	-0.121817	1.172338	-2.06828
H	1.102653	0.0	0.0
H	-1.569748	-0.084395	-1.453456
C	0.138387	-1.173392	-2.234873
H	-0.249892	-2.129087	-1.875948
H	1.224603	-1.154986	-2.117691
H	-0.112873	-1.074338	-3.293821
N	-0.548339	-1.185711	0.679167
H	-0.464666	-0.976741	1.668864
H	0.085243	-1.960241	0.506767
N	-0.460931	1.172822	0.723394
H	0.104569	1.962522	0.430605
H	-1.426173	1.367469	0.463404
Br	3.753759	0.0	0.0
