16

C	-0.458386	-0.008751	-1.456941
C	0.0	0.0	0.0
F	-0.031585	-1.216397	-2.036483
H	1.102074	0.0	0.0
H	0.064453	0.791307	-1.992417
C	-1.956941	0.071891	-1.664273
H	-2.34729	1.049773	-1.372341
H	-2.446691	-0.699489	-1.069375
H	-2.187836	-0.080885	-2.721153
N	-0.575795	-1.166642	0.671009
H	-0.181182	-1.988933	0.22596
H	-0.21003	-1.144946	1.617016
N	-0.412152	1.178393	0.743837
H	0.147879	1.975268	0.467514
H	-1.394854	1.377555	0.598752
Br	3.732493	0.0	0.0
