17

C	0.0	0.0	0.0
C	-0.40776	-0.57954	-1.383717
F	1.386702	0.0	0.0
H	0.453741	-1.176853	-1.701524
C	-0.423473	1.397056	0.208467
N	-0.674822	2.520473	0.438013
C	-0.504826	-0.859779	1.138363
H	-0.192972	-1.892391	0.985436
H	-0.083866	-0.47732	2.070159
H	-1.595189	-0.809884	1.176331
N	-0.377659	0.550772	-2.466373
O	-1.181089	0.448563	-3.387138
O	0.516435	1.390319	-2.38334
N	-1.574491	-1.345988	-1.37157
H	-2.395961	-0.857252	-0.98694
H	-1.794881	-1.686518	-2.298016
Cl	-4.051037	0.0	0.0
