17

C	0.0	0.0	0.0
C	-0.51828	-0.002944	-1.43839
F	1.391024	0.0	0.0
H	-1.614255	-0.048097	-1.379879
C	-0.390936	1.285138	0.615409
N	-0.54964	2.312816	1.160106
C	-0.479781	-1.158201	0.84717
H	-0.104326	-1.023114	1.863357
H	-0.097784	-2.097039	0.446216
H	-1.571777	-1.163568	0.845843
N	-0.061658	-1.320703	-2.07821
O	0.980708	-1.295535	-2.736813
O	-0.756419	-2.316898	-1.895082
N	-0.047714	1.128665	-2.150854
H	-0.543945	1.233514	-3.024693
H	0.944299	1.042976	-2.329255
Cl	-3.6499	0.0	0.0
