15
Coordinates from ORCA-job run
  C   -0.96963611459033      0.20558524112983      0.28730192116863
  C   0.51512918715022     -0.02003817461688      0.04126764955924
  H   -1.42036494344151      0.49454466063221     -0.66691522363958
  H   0.95942133423446     -0.35371759197736      0.99821124130464
  H   -1.10047782601818      1.03951880803784      0.99270346776988
  N   -1.59733575107068     -1.04394084143471      0.72835024596452
  H   -1.39758168886113     -1.19573216423582      1.70986142751403
  H   -2.60294010886247     -0.98511456150253      0.63249259582283
  C   1.20415990739319      1.26703107375516     -0.38325932082835
  H   0.75465215754775      1.63615021962503     -1.30803165197726
  H   2.26736226032805      1.09549154892105     -0.57296121742645
  H   1.12149401787907      2.03672040977323      0.38949055735540
  N   0.63664405726286     -1.01909652403885     -1.01489724544585
  H   0.03883995523362     -1.79976129833854     -0.76474763056445
  H   1.59063355581508     -1.35664080572964     -1.06786681657722
