15
Coordinates from ORCA-job run
  C   -0.94931839898153      0.17179148424009      0.24752155146169
  C   0.56290102568217     -0.02765378167553      0.13274907603582
  H   -1.16236799919434      1.05142083930725      0.87564030997333
  H   0.94008684563162     -0.26353227739798      1.13846614354432
  H   -1.34377657126394      0.37940007701698     -0.75388194488925
  N   -1.57297767857340     -1.06226593195374      0.73290286128754
  H   -1.39727193535156     -1.15905997567058      1.72623010782319
  H   -2.57698692495629     -1.02182920841560      0.61108072019172
  C   1.25329343284123      1.23634807085345     -0.35200595055058
  H   2.32929142232382      1.07050083772893     -0.42587748007673
  H   1.07247737496538      2.07669275185358      0.32272804978449
  H   0.88380638580279      1.51625394610013     -1.34475550283016
  N   0.92726065057089     -1.15011439272265     -0.72765186068005
  H   0.30907456805753     -1.92089475866765     -0.49313156703772
  H   0.72250780244562     -0.89705768059668     -1.69001451403763
