12
Coordinates from ORCA-job run
  C   0.40573729989956      0.63985366169440      0.06445339651080
  C   -0.39093708431981     -0.62795389313727     -0.17743408377204
  Br  -0.69306375249696      2.04520362372258      0.80866320730082
  H   -0.82981755766114     -0.95485242229769      0.77181346327062
  H   0.85107197050713      1.02051495656058     -0.85083464202453
  H   0.32615569176000     -1.39196843551071     -0.49717842451902
  N   1.53466151112149      0.36045861996230      1.01224539921539
  O   1.25531117869640     -0.19755484856221      2.06829236154322
  O   2.65802283131445      0.68393512252058      0.63386287069819
  N   -1.33127035198711     -0.39045306501823     -1.26232159320510
  H   -2.15238797589450      0.08628233054761     -0.91215004423641
  H   -1.63148376093951     -1.27146565048194     -1.65741191078194
