12
Coordinates from ORCA-job run
  C   0.49511520435655      0.57660807429223     -0.01508309310770
  C   -0.47586562178191     -0.58547953967529     -0.09881301112953
  Br  -0.39856059838338      2.22413086946804      0.45751775894601
  H   -0.97908852479392     -0.69499969264088      0.86830468647624
  H   1.01260773287743      0.74180656652103     -0.95631802892239
  H   0.12640312446124     -1.48481259209454     -0.26820616195038
  N   1.54798729800750      0.28947415366998      1.01432704529581
  O   1.16513160297323     -0.05248559208107      2.12834599656701
  O   2.71524500645622      0.38767815978106      0.64342846839181
  N   -1.34663790731809     -0.38721670982896     -1.24779121947159
  H   -1.76677884731633     -1.26663693350666     -1.51712515369770
  H   -2.09455846953854      0.25193323609506     -1.01058728739758
