12
Coordinates from ORCA-job run
  C   0.44151211849194      0.80674040038014     -0.05833535498064
  C   -0.78812266020015      0.04222531855737     -0.49718752861677
  Br  0.03398390123395      2.64266069039149      0.38456446684751
  H   -1.56742554725716      0.14669249556439      0.26346722319604
  H   1.22312952561463      0.80097025017099     -0.81413557495563
  H   -1.14584542025767      0.51273456728906     -1.41596008019135
  N   1.05112131326563      0.15831084719282      1.15632450623379
  O   0.28416477660344     -0.39352193399041      1.94134370632315
  O   2.26802706025243      0.24175539476346      1.27013869797951
  N   -0.37595273657701     -1.32870765434925     -0.76537829284088
  H   -0.91199374913989     -1.72718846925973     -1.52286069050390
  H   -0.51259858203014     -1.90067190671033      0.05701892150917
