12
Coordinates from ORCA-job run
  C   0.54326731082303      0.72671205048071     -0.14849903308774
  C   -0.32180520371550     -0.30047342743290     -0.89927816275099
  Br  -0.46127615723613      2.27470160940624      0.39237245857301
  H   0.35205517607047     -1.11308454654498     -1.19122778596881
  H   1.38254092757327      1.06509625830159     -0.75328820257030
  H   -0.66694006198881      0.18554195631561     -1.81524025499370
  N   1.15624147550116      0.03173953286366      1.03693388459717
  O   2.22746295164050     -0.52241498471115      0.79742564969740
  O   0.52631547616503     -0.02764267723086      2.08583213029333
  N   -1.45505833753665     -0.85287753660155     -0.20173729447801
  H   -1.17603771803620     -1.34090623955034      0.63901058311376
  H   -2.10876583926015     -0.12639199529603      0.05869602757488
