12
Coordinates from ORCA-job run
  C   0.64688192567595      0.63350038750283     -0.16548286943313
  C   -0.72665541777905      0.14304489351232     -0.56650634151750
  Br  0.74438023813065      2.56319740674373     -0.11711623332693
  H   -0.90797548943822      0.49389182640165     -1.58502705716054
  H   1.42623356982710      0.26722835403429     -0.82925574910540
  H   -1.47634832143911      0.59732502461913      0.08777617939769
  N   1.00649286050303      0.11589683259340      1.20223482958976
  O   0.08615677547657     -0.05289860884572      1.99802524797553
  O   2.19516953998200     -0.09081170933521      1.41464590693642
  N   -0.69325077598162     -1.31318829923192     -0.53539783655284
  H   -1.27435891388572     -1.70515647160829     -1.26232399471404
  H   -1.02572599107163     -1.65102963638618      0.35742791791102
