12
Coordinates from ORCA-job run
  C   0.46619810762672      0.51026569906985      0.00472102922454
  C   -0.55648491184135     -0.62778871852439     -0.04297801773050
  Br  -0.36966872808662      2.22002686601946      0.32637422770141
  H   0.01386974355616     -1.56093016395238     -0.11517598871977
  H   1.04665185934394      0.59722916644273     -0.91182668709815
  H   -1.09201572894389     -0.64163197199591      0.90775881290536
  N   1.46077250429771      0.22534360538138      1.09362645925711
  O   1.02834788142780      0.12032359008334      2.23545787286243
  O   2.62379222449528      0.05541140772293      0.73310176300781
  N   -1.50449478466119     -0.57453053815878     -1.13109855916390
  H   -1.03883440179644     -0.57915382742092     -2.02918400221220
  H   -2.07913376541814      0.25543488533269     -1.06977691003413
