12
Coordinates from ORCA-job run
  C   0.64693300045423      0.56588857741896     -0.19740931359351
  C   -0.66672858585461      0.04154438840635     -0.76518051826131
  Br  0.89376015561681      2.44473301732446     -0.56340440104086
  H   -0.63162942693291      0.16709139397956     -1.85043207103604
  H   1.52127104456507      0.03707051140258     -0.57310139359779
  H   -1.47807752232242      0.66327689667181     -0.38485439285155
  N   0.66091816494280      0.35022935560707      1.29093644787090
  O   -0.31374892450959      0.74460321270976      1.92158712896021
  O   1.63210236113694     -0.24581610897779      1.74976138743467
  N   -0.94345693492013     -1.34181800454960     -0.44334309528827
  H   -1.12671005961054     -1.46705617484260      0.54279836809621
  H   -0.19563327256562     -1.96074706515053     -0.72635814669265
