12
Coordinates from ORCA-job run
  C   0.54056883517139      0.73162273061523     -0.13555848784438
  C   -0.30886119162378     -0.29418611642524     -0.90581400530014
  Br  -0.48049272656872      2.26798338672550      0.40749541840393
  H   0.37362445633297     -1.09974561255677     -1.19722074672362
  H   1.38488322714585      1.08113652712347     -0.72684311614945
  H   -0.64672346459133      0.19796518970824     -1.82119554861477
  N   1.14388062636646      0.02938061422899      1.05075367456653
  O   0.50350506636411     -0.04147202386823      2.09255473304196
  O   2.22003595077735     -0.51801895472392      0.81777761664643
  N   -1.44649891618369     -0.86009095821206     -0.22648689060398
  H   -2.10925218789874     -0.14054684576772      0.03021245835558
  H   -1.17466967529189     -1.35202793684748      0.61432489422191
