11
Coordinates from ORCA-job run
  C   -0.36076124143145      0.51406172306538      0.22052176831522
  C   0.69151146813489     -0.43859904891883     -0.32051789898850
  F   0.02823677778728      1.03757832472322      1.40066418009406
  H   0.32215542096453     -0.90583364455674     -1.23549815955969
  H   -0.61770996200239      1.31357714005874     -0.47544804806268
  H   0.86938911370173     -1.21991914978526      0.42461365095330
  N   -1.63310337828212     -0.28176417683052      0.42706755436888
  O   -2.01609509511480     -0.47390863986246      1.57064217369599
  O   -2.15155136410351     -0.67631462049586     -0.61229848244576
  C   1.93750062772975      0.27332839800776     -0.58903745590834
  N   2.93042763261608      0.85679369459457     -0.81070928246248
