11
Coordinates from ORCA-job run
  C   -0.33940175891273      0.48752738882999      0.30131445093122
  C   0.67001876256992     -0.40696620950082     -0.39725028531745
  F   0.09326799503317      0.82875701522266      1.53209472609160
  H   0.26324006238467     -0.73338569560257     -1.35626030599677
  H   -0.58873671045001      1.38393776605826     -0.26780013995686
  H   0.84418999959807     -1.28873560453814      0.22697485694821
  N   -1.63021503680635     -0.29538693279847      0.42950693636227
  O   -2.18398549874998     -0.52609244189087     -0.64044118516623
  O   -1.99219611323294     -0.63567777487543      1.54503441800606
  C   1.92934176361703      0.30252542158955     -0.60184173607023
  N   2.93347653494915      0.88449706750582     -0.77133173583180
