11
Coordinates from ORCA-job run
  C   -0.51818650868177      0.65616000247436      0.03623114532537
  C   0.96408423914238      0.33985330558189      0.07380100477132
  F   -0.78491352046798      1.61402126876059      0.96063422419482
  H   1.51835679934432      1.25957052239728     -0.12994966227113
  H   -0.88962293096096      0.96425395399628     -0.94016684178747
  H   1.21244024303021      0.00417855480186      1.08377375218290
  N   -1.29187447475356     -0.58231932875975      0.41530708994258
  O   -1.96932588792757     -1.09657486424503     -0.46954267246255
  O   -1.15336867609250     -0.97184397377154      1.56891236407799
  C   1.31913998553555     -0.68449585967348     -0.90340441104200
  N   1.59427073183189     -1.50380358156246     -1.69659599293184
