11
Coordinates from ORCA-job run
  C   -0.46789850170635      0.66832011020624      0.24535504408487
  C   0.69370983968468      0.35355999039761     -0.67871474455767
  F   -0.03019346305576      1.10032321954830      1.44573863879518
  H   1.25961661214630      1.27333371266854     -0.84803086343972
  H   -1.14929212536669      1.40162764752185     -0.18905172858736
  H   0.30274586187776      0.00653576061132     -1.63705780736186
  N   -1.29020937604781     -0.58851557166746      0.43970306009919
  O   -1.82910599975327     -0.99150706808490     -0.58610475118337
  O   -1.34086399839111     -1.08298866323472      1.55442487911973
  C   1.57426345095475     -0.66096871203618     -0.10334251844263
  N   2.27722769965750     -1.47972042593059      0.35608079147364
