11
Coordinates from ORCA-job run
  C   -0.52001175765498      0.65485488861651      0.04868134703641
  C   0.96340948853051      0.34177939599297      0.07304877824849
  F   -0.78385027037147      1.59933372905822      0.98730748601280
  H   1.51454132517548      1.26520117544960     -0.12221635818429
  H   -0.89779794845793      0.97461533157764     -0.92143726393518
  H   1.21887734281340     -0.00578717138506      1.07717384188077
  N   -1.28762860002541     -0.59110450649197      0.41516314128231
  O   -1.96517950291200     -1.09781836369178     -0.47417225085785
  O   -1.14412075618232     -0.99385324523403      1.56350294446565
  C   1.31411580190451     -0.66904385753117     -0.91967295647505
  N   1.58564487718020     -1.47817737636094     -1.72437870947405
