11
Coordinates from ORCA-job run
  C   -0.48723924306548      0.65803356275400      0.24105199975558
  C   0.71391740014847      0.37919817369823     -0.64329059161867
  F   -0.10285447851141      1.07115803159790      1.46608295268198
  H   1.27555570469128      1.30858864958886     -0.76792612490688
  H   -1.16278806601751      1.39013483535577     -0.20420774723593
  H   0.36541355171508      0.05078189831960     -1.62432363793945
  N   -1.29572737060896     -0.61543966805507      0.37760631039707
  O   -1.38007664841541     -1.13428064502671      1.47904403479535
  O   -1.78732893216700     -1.00545482845359     -0.67649239450903
  C   1.58302800819269     -0.63936191840042     -0.05729088365572
  N   2.27710007403825     -1.46135809137857      0.40974608223570
