11
Coordinates from ORCA-job run
  C   -0.47251782713458      0.66098595609303      0.25833795300671
  C   0.71838202839067      0.37866485772795     -0.63853252020609
  F   -0.07339217446546      1.03807675564301      1.49038322466675
  H   0.35916530671124      0.07898356859467     -1.62488285712727
  H   -1.13553345732395      1.41655015775775     -0.16607333093622
  H   1.29656388395446      1.30020714871751     -0.74542568907630
  N   -1.30663473244445     -0.59814078607269      0.37038907624424
  O   -1.81251706435156     -0.95294225431026     -0.68938890529355
  O   -1.39594064374648     -1.14060784533990      1.46004852644272
  C   1.57068584172809     -0.66893879159017     -0.07986739240566
  N   2.25173883868202     -1.51383876722088      0.36501191468467
