11
Coordinates from ORCA-job run
  C   -0.34969652773479      0.52534593142052      0.21376863110196
  C   0.68146004589634     -0.45651077765888     -0.31559490521273
  F   0.05229829040558      1.05572449475643      1.38642074651781
  H   0.30156774334177     -0.92923910580806     -1.22342157448626
  H   -0.59204360139163      1.32100500913920     -0.49172046168143
  H   0.84277622393398     -1.23068299597053      0.44068316637927
  N   -1.63762805299950     -0.24196311145415      0.43279422106802
  O   -2.16725285036806     -0.63731197237385     -0.60065656169999
  O   -2.02041526775148     -0.41431888714354      1.57963300656142
  C   1.94210468745222      0.22449723433883     -0.59515731893273
  N   2.94682930921556      0.78345418075403     -0.82674894961534
