11
Coordinates from ORCA-job run
  C   -0.43367498918718      0.48348411203274      0.14629671001773
  C   0.74386147475036     -0.37689486483478     -0.27867187665167
  F   -0.09868585343156      1.27347567291060      1.18642349779063
  H   0.42822964905256     -1.06102652331284     -1.06873665758289
  H   -0.84207727266422      1.08806393302676     -0.66442753892584
  H   1.07279424772453     -0.96524086627014      0.58331987238850
  N   -1.54936354081867     -0.44898357674158      0.57185633635851
  O   -2.02840665640625     -1.10810468712326     -0.34511531779471
  O   -1.85805957779890     -0.48062708924689      1.75298321373723
  C   1.84525147625052      0.45821974258381     -0.74878101531673
  N   2.72013104252881      1.13763414697557     -1.13414722402075
