11
Coordinates from ORCA-job run
  C   -0.37285904483439      0.39213020514580      0.38472388027428
  C   0.71095441603770     -0.29527456209432     -0.42763473336388
  F   -0.04245380698189      0.42414889036445      1.69190606945935
  H   0.86989890701726     -1.29685383856231     -0.01678218895958
  H   -0.60225807637571      1.39914992666381      0.03416510808122
  H   0.38402052563825     -0.39004586923401     -1.46495973758671
  N   -1.64946263675280     -0.40657077637884      0.21605605270644
  O   -2.08468254142810     -1.01302300565712      1.18241739215690
  O   -2.11585526165929     -0.37097453587138     -0.91790315406267
  C   1.95577627016768      0.46544752964886     -0.36420186532260
  N   2.94592124917128      1.09186603597506     -0.31778682338276
