11
Coordinates from ORCA-job run
  C   -0.56329299030542      0.61869745273031      0.02992590314253
  C   0.93524237006052      0.41260625503991     -0.07280764524297
  F   -0.80650272804430      1.65053522787397      0.87794030486837
  H   1.31771580359958      0.20747964042217      0.93017660641061
  H   -1.06165580220459      0.79137537047388     -0.92296409861632
  H   1.38783217556921      1.34069649249256     -0.43116673764664
  N   -1.18723318553745     -0.62241384424103      0.61858450027354
  O   -1.90994442566565     -1.27803317237691     -0.12610757615118
  O   -0.89499244079833     -0.87196983351140      1.78214677728844
  C   1.26432503023697     -0.68526289211301     -0.97652702888801
  N   1.51750619308946     -1.56571069679046     -1.70920100543837
