13

C	0.0	0.0	0.0
C	-0.214158	-0.503357	-1.434673
F	1.3728	0.0	0.0
H	0.581525	-0.056058	-2.028054
H	-0.399804	-0.680494	0.741551
H	-0.400274	1.002565	0.124285
N	-1.433596	-0.19962	-2.25717
O	-1.550624	0.984452	-2.538531
O	-2.088947	-1.133991	-2.686387
N	0.060689	-1.977878	-1.533065
O	0.534317	-2.349162	-2.606073
O	-0.173654	-2.697068	-0.570143
Cl	-3.215597	0.0	0.0
