13

C	0.0	0.0	0.0
C	-0.356348	0.540502	-1.38243
F	1.377794	0.0	0.0
H	0.570554	0.548788	-1.960673
H	-0.374683	-1.010174	0.125821
H	-0.371954	0.655408	0.779549
N	-0.763085	1.991329	-1.418993
O	-0.991763	2.576609	-0.369657
O	-0.730441	2.507038	-2.536355
N	-1.253129	-0.325405	-2.241121
O	-2.046156	0.193201	-3.002417
O	-0.954866	-1.514204	-2.192884
Cl	-3.064207	0.0	0.0
