13

C	0.0	0.0	0.0
C	-0.184513	0.060782	-1.524835
F	1.378158	0.0	0.0
H	0.53527	-0.642947	-1.936714
H	-0.398336	0.869583	0.50788
H	-0.397395	-0.923604	0.409763
N	0.277193	1.396523	-2.039908
O	0.791744	1.377716	-3.157929
O	0.110203	2.391133	-1.345093
N	-1.442559	-0.279458	-2.274445
O	-2.029767	0.619086	-2.855596
O	-1.664606	-1.479352	-2.340859
Cl	-3.145371	0.0	0.0
