13

C	0.0	0.0	0.0
C	-0.507813	-0.016021	-1.418753
F	1.373767	0.0	0.0
H	-1.576248	0.235538	-1.421125
H	-0.362671	0.911181	0.473589
H	-0.381577	-0.867935	0.531004
N	-0.358687	-1.334588	-2.101933
O	-0.90242	-1.425877	-3.198081
O	0.277405	-2.221039	-1.537104
N	0.265728	0.989844	-2.216406
O	1.063169	0.599093	-3.062558
O	0.053764	2.158116	-1.910312
Cl	-3.311422	0.0	0.0
