13

C	0.0	0.0	0.0
C	-0.390986	-0.039036	-1.470618
F	1.373978	0.0	0.0
H	0.531788	-0.197136	-2.036346
H	-0.374743	0.902078	0.470159
H	-0.369789	-0.881352	0.511254
N	-0.898928	1.262097	-2.038496
O	-0.946836	2.238404	-1.303169
O	-1.086138	1.270621	-3.252163
N	-1.210764	-1.247741	-1.878504
O	-2.041481	-1.161686	-2.760494
O	-0.812239	-2.281681	-1.351028
Cl	-3.076177	0.0	0.0
