13

C	0.0	0.0	0.0
C	-0.372126	-0.05085	-1.477828
F	1.37784	0.0	0.0
H	0.552852	0.109486	-2.037809
H	-0.373039	0.911696	0.453908
H	-0.376694	-0.872229	0.521865
N	-1.233111	1.088284	-1.984288
O	-0.875328	2.1776	-1.548645
O	-2.056567	0.8936	-2.856246
N	-0.824706	-1.394628	-1.982537
O	-0.98356	-2.310187	-1.186743
O	-0.884826	-1.492892	-3.20727
Cl	-3.05361	0.0	0.0
