14
Coordinates from ORCA-job run
  C   0.36125497476652      0.17343670225222      0.43628812964770
  C   -0.99329206918405     -0.11854095212722     -0.20140538578033
  Br  0.68618996611682      2.13682305620640      0.46056352315127
  H   -1.73700186071380      0.22986341664557      0.52166720840631
  H   -1.05923194493462     -1.21383544661878     -0.24232788995602
  N   1.50129060029693     -0.39877582182635     -0.40146858934396
  O   2.60840910643271     -0.40406891673736      0.11999732938692
  O   1.22745245137070     -0.83220469135092     -1.51591892580315
  N   0.47820395245432     -0.44900023731338      1.69457556120803
  H   -0.22965019543717     -0.11100956863254      2.33338481638391
  H   1.39886022404872     -0.30002113475854      2.08980833136733
  N   -1.21056295313900      0.55726876103467     -1.45937762345703
  H   -0.83656109708779      0.01302477040935     -2.22215002310587
  H   -2.19536115499028      0.71704006281687     -1.61163646210510
