14
Coordinates from ORCA-job run
  C   0.40586421102430      0.18806778538725      0.48501957195026
  C   -0.81202226573949      0.62620996239659     -0.31772948299715
  Br  1.12634937329826      1.88125683551430      1.35096847263587
  H   -1.53410726514265      1.00920911907134      0.40902692084886
  H   -0.50634008142137      1.46734372373730     -0.94608943252774
  N   1.55613459698579     -0.22274519207195     -0.43236576468356
  O   2.48032449271574     -0.82679250991192      0.09324072332675
  O   1.46638588728844      0.07966547874166     -1.61793789156733
  N   0.18300793331817     -0.86534152521967      1.35207879625953
  H   0.97294749281298     -1.09322985956545      1.93776465488071
  H   -0.68437857665911     -0.79529811691916      1.86097043233299
  N   -1.39314634491132     -0.49825378869091     -1.02953181219026
  H   -0.89822191586694     -0.64348549100795     -1.89962747120673
  H   -2.36179753770281     -0.30660642146143     -1.24578771706221
