14
Coordinates from ORCA-job run
  C   -0.63677019121430     -0.27658448369243     -0.28109127925049
  C   0.72640852400509      0.34595264958749      0.10052831263698
  Br  -0.37911217027537     -1.85549716593276     -1.38975327148613
  H   0.46323370128859      1.24216490331203      0.69303945937278
  C   -1.41691965804605      0.68945938102289     -1.06648421229279
  N   -2.07776958833465      1.49433753781239     -1.61364072351308
  N   -1.29061021142399     -0.68406599106337      0.95099615926458
  H   -2.06534642751178     -1.30499862163519      0.74741524980146
  H   -1.66185849088295      0.13820269208977      1.41973910293257
  C   1.43690811626123      0.81764742895799     -1.09253553242355
  N   2.03036835835096      1.21789484515678     -2.02297598823339
  N   1.52254204122424     -0.63116012727391      0.81022078155184
  H   2.37316800019370     -0.20623218825749      1.15710512787477
  H   0.97575799636528     -0.98712086008418      1.58543681376444
