14
Coordinates from ORCA-job run
  C   -0.73760420925515     -0.15394367895827     -0.34432582017030
  C   0.73433886336600      0.30877740389333     -0.39776957425276
  Br  -1.08144464477133     -1.19164814685948     -2.04160917100695
  H   0.89780729800308      0.81402458175327     -1.35288151195566
  C   -1.62543894248960      1.00524194872241     -0.40274787146004
  N   -2.37225874605482      1.91043067157730     -0.45570710856377
  N   -0.96652278811313     -0.89387797483250      0.84063923557184
  H   -0.45966820310462     -1.77257845306699      0.83308755190584
  H   -1.95005405234280     -1.06822203533281      1.00326086438472
  C   1.60573072534388     -0.88408372568598     -0.33960537621983
  N   2.31499232443316     -1.81065199135218     -0.19888550536511
  N   0.93746290003573      1.25463449940978      0.67770843781486
  H   0.85601560917374      0.78878544602673      1.57286794351353
  H   1.84664386577584      1.69411145470538      0.60596790580365
