14
Coordinates from ORCA-job run
  C   -0.79570061110956     -0.14242251435323     -0.22374217967515
  C   0.65904802866795      0.27901238287103      0.10568481181512
  Br  -0.64324310406276     -1.78707088433099     -1.40949126659278
  H   0.56085414336908      1.22733223947310      0.64785111675296
  C   -1.43770177261563      0.87087450541012     -1.05329543435641
  N   -1.91874120106262      1.70872513489826     -1.72305674282496
  N   -1.52776319978834     -0.41308271546903      0.93670813664059
  H   -0.94682731871185     -0.66682837522452      1.72285727502307
  H   -2.31806072250492      0.17800561750409      1.13046848430726
  C   1.45508404498827      0.53957648177524     -1.10437803318905
  N   2.16272860211335      0.77639999236965     -2.01170343164176
  N   1.22383529418202     -0.69523527799599      1.02067590833409
  H   2.06888362699575     -0.33041186649946      1.44280317369605
  H   1.45760418953925     -1.54487472042826      0.51861818171095
