14

C	-0.562141	-0.027331	-1.404536
C	0.0	0.0	0.0
Cl	0.016569	-1.384996	-2.366494
H	1.092228	0.0	0.0
H	-1.65271	-0.069211	-1.397906
H	-0.342067	0.937524	0.448788
N	-0.26844	1.28905	-2.105268
O	0.562282	1.348517	-2.996289
O	-0.936797	2.228617	-1.674001
C	-0.501241	-1.182538	0.821885
H	-0.126325	-2.12352	0.417055
H	-1.595805	-1.227896	0.858221
H	-0.125992	-1.095557	1.84319
Cl	3.494872	0.0	0.0
