14

C	-0.452652	-0.157224	-1.426928
C	0.0	0.0	0.0
Cl	-0.03588	1.233808	-2.435101
H	1.091863	0.0	0.0
H	-0.049222	-1.049924	-1.900804
H	-0.352226	0.965485	0.372323
N	-1.953322	-0.338124	-1.467223
O	-2.36384	-1.435953	-1.842204
O	-2.652838	0.585895	-1.068373
C	-0.504444	-1.142586	0.877165
H	-0.042019	-1.06281	1.862349
H	-1.590817	-1.126864	1.005442
H	-0.218816	-2.112584	0.46178
Cl	3.470141	0.0	0.0
