14

C	-0.448694	-0.01009	-1.446204
C	0.0	0.0	0.0
Cl	0.067234	1.404582	-2.357788
H	1.093144	0.0	0.0
H	-0.080147	-0.894755	-1.963164
H	-0.319044	-0.958637	0.423434
N	-1.961591	-0.138277	-1.492036
O	-2.66054	0.856984	-1.64194
O	-2.378322	-1.27909	-1.290473
C	-0.54519	1.158606	0.822615
H	-1.633887	1.12687	0.925742
H	-0.26896	2.116585	0.379893
H	-0.104716	1.119917	1.820624
Cl	3.485488	0.0	0.0
