18
Coordinates from ORCA-job run
  C   -0.69718153362761     -0.18133901843686     -0.46901317079486
  C   0.61996697794504     -0.44988492684488      0.27602805144292
  H   -0.72437703397422     -0.81914335494715     -1.35623457995981
  H   0.54493651181095     -1.50864619445594      0.58053223730884
  N   -0.68362612328267      1.21568602025422     -1.01840224239705
  O   -0.07019256958559      1.37983081188189     -2.07419001070520
  O   -1.25541399255276      2.09903463641307     -0.38724835223800
  C   -1.92756815444584     -0.38978502743947      0.39063588159193
  H   -2.83858027809796     -0.22471823789565     -0.18715656428474
  H   -1.93874638227424     -1.41772193734328      0.76233693928410
  H   -1.93908587670575      0.30390574381742      1.22980490456263
  N   0.73585451525051      0.46273932518079      1.40692515474501
  H   0.13633300555828      0.18035299847943      2.17175919558494
  H   1.68798182767467      0.46604526294364      1.75067507863140
  C   1.85153052461421     -0.30593355611106     -0.60685691365572
  H   1.74672974768512     -0.86853481523988     -1.53579541574331
  H   2.02348842651363      0.74081810360216     -0.85916491868964
  H   2.72895040749424     -0.68470583385845     -0.07463527468345
