18
Coordinates from ORCA-job run
  C   -0.56652342040992      0.23379864913958     -0.44842444032026
  C   0.63841004823207     -0.01328253197676      0.45147503529197
  H   -0.21731370275092      0.50522349783911     -1.44651968412845
  H   0.26347031527172     -0.31615328173543      1.43952726063345
  N   -1.30091734582362      1.45578870053815      0.02674500205740
  O   -1.41819196378863      1.60950698197382      1.24333242878234
  O   -1.78003339298610      2.19237104164459     -0.83033447939637
  C   -1.58337452088138     -0.89639133817351     -0.49159409079563
  H   -1.15176440181628     -1.78174669738849     -0.95910045907276
  H   -1.91128415748169     -1.15284641895642      0.51836832669005
  H   -2.45375782612209     -0.59741567072801     -1.07920035503743
  N   1.42548252447944      1.21920965530363      0.49871664899043
  H   2.35545959192813      1.01592071693835      0.84467006991787
  H   1.00070681657573      1.86877678031044      1.15023898752639
  C   1.50142878057159     -1.12737226456390     -0.12428191611512
  H   0.96508456113502     -2.07500731958461     -0.18431978521291
  H   1.85562263417318     -0.85183493801065     -1.12100481349028
  H   2.37549545969375     -1.28854556256990      0.51270626367930
