18
Coordinates from ORCA-job run
  C   -0.69502350950194     -0.24008887837205     -0.47779718979525
  C   0.57954692887412     -0.53909602230993      0.32284606017386
  H   -0.72257282289829     -0.89373857776004     -1.35169530425326
  H   0.53720460432575     -1.62090412142600      0.50431422477227
  N   -0.57971397920480      1.13470307664685     -1.06526596086519
  O   -0.46893176227282      1.23016714605046     -2.28608297379238
  O   -0.56977812789164      2.08298023720718     -0.27850180642895
  C   -1.97476863175345     -0.33983809184435      0.32809791917559
  H   -2.84450187211458     -0.15771827740994     -0.30762534258908
  H   -2.05284199288702     -1.34512062984030      0.74753677194190
  H   -1.96226022050217      0.36952208774356      1.15185627176116
  N   0.53286414237279      0.10477344207331      1.63089144206024
  H   1.33949730434571     -0.17986251651919      2.17370602579027
  H   0.57496228046496      1.11109666414873      1.51501435490320
  C   1.83365028963075     -0.23848022754858     -0.50082483496559
  H   1.80603281875689     -0.72376958468928     -1.48098973267600
  H   1.94521878114997      0.83824870884622     -0.65604452603671
  H   2.72141576910574     -0.59187443499664      0.02956460082392
