18
Coordinates from ORCA-job run
  C   -0.74592856734741     -0.17560769807478     -0.55555797561098
  C   0.72493083721371     -0.48101889544147     -0.21200890877503
  H   -1.11342999631659     -1.01278837083375     -1.15294075811998
  H   1.22478420649455     -0.67211029155538     -1.16583950011252
  N   -0.74711916540054      0.99946178982466     -1.49010749111004
  O   -0.21158536700265      0.81902665175294     -2.58374065258500
  O   -1.23558061722527      2.06364650404826     -1.11371603751310
  C   -1.64318798774311      0.06225553365262      0.63741088125057
  H   -1.34193641242480      0.94098386453702      1.20583151079071
  H   -1.59918810416070     -0.82254548705962      1.27394322123682
  H   -2.67557121752559      0.21160395644195      0.31914126206746
  N   0.73472653978791     -1.71394753380536      0.57924868219062
  H   0.91463701488917     -1.50859596556673      1.55391163487308
  H   1.46380297509565     -2.33487433843452      0.25646990808226
  C   1.42269972105171      0.68743683477630      0.47666570958806
  H   1.40048930615669      1.59750906456694     -0.12724642193775
  H   2.46893692620971      0.43064424390073      0.65858060062070
  H   0.95751990824755      0.90892013727021      1.44095433506413
