12

C	0.0	0.0	0.0
C	-0.509866	-0.338433	-1.389487
Cl	1.842085	0.0	0.0
H	-0.234384	0.467752	-2.074413
H	-0.247327	-0.829218	0.671785
H	-1.61064	-0.354503	-1.217193
N	-0.549718	1.260432	0.377578
H	-0.32623	1.424218	1.354808
H	-1.578749	1.023869	0.317679
C	-0.023353	-1.604629	-1.915901
N	0.370602	-2.545764	-2.499693
F	-2.814069	0.0	0.0
