12

C	0.0	0.0	0.0
C	-0.359033	0.16729	-1.48502
Cl	1.788112	0.0	0.0
H	-0.198297	1.226428	-1.711931
H	-0.293671	-0.996028	0.341123
H	0.365312	-0.395101	-2.079947
N	-0.530453	1.083117	0.764102
H	-0.357766	0.886327	1.744259
H	-1.562674	0.895526	0.593204
C	-1.674728	-0.23315	-2.011411
N	-2.435434	-0.574921	-2.841632
F	-2.687014	0.0	0.0
