12

C	0.0	0.0	0.0
C	-0.546057	0.319794	-1.384312
Cl	1.788025	0.0	0.0
H	-0.296931	1.353158	-1.633992
H	-0.266608	-1.037161	0.227976
H	-1.645509	0.217298	-1.210474
N	-0.555919	0.958088	0.911388
H	-0.341893	0.652734	1.855654
H	-1.581113	0.781958	0.749429
C	-0.086133	-0.577507	-2.431775
N	0.243997	-1.291669	-3.304959
F	-2.841589	0.0	0.0
