18

C	0.0	0.0	0.0
C	-0.470209	-0.147293	-1.465237
F	1.399869	0.0	0.0
H	-1.557831	-0.269329	-1.371863
N	-0.532913	1.191977	0.581891
H	-0.348928	1.973761	-0.039808
H	-1.558679	0.982003	0.539821
C	-0.432883	-1.182795	0.843221
H	0.020271	-2.107627	0.483079
H	-0.098017	-0.991759	1.865119
H	-1.52226	-1.223167	0.792195
N	0.109924	-1.397785	-2.058428
O	1.237685	-1.328739	-2.54779
O	-0.561367	-2.430541	-1.993136
N	-0.119007	0.93956	-2.344889
H	0.801977	1.293613	-2.114681
H	-0.80842	1.671752	-2.248308
F	-2.876797	0.0	0.0
