18

C	0.0	0.0	0.0
C	-0.541124	-0.361923	-1.426745
F	1.397654	0.0	0.0
H	-1.20484	-1.21646	-1.320901
N	-0.491473	1.29599	0.359927
H	-0.21913	1.458914	1.325786
H	-1.517128	1.118665	0.35032
C	-0.385696	-1.109112	0.967078
H	-0.02149	-2.072426	0.596516
H	0.069557	-0.9136	1.946109
H	-1.475517	-1.098632	1.025726
N	0.636531	-0.871692	-2.216503
O	0.916555	-2.066633	-2.082542
O	1.266519	-0.084111	-2.915906
N	-1.236272	0.652782	-2.155444
H	-2.137222	0.666561	-1.657742
H	-0.783213	1.542086	-1.959538
F	-2.842704	0.0	0.0
