18

C	0.0	0.0	0.0
C	-0.446043	-0.022153	-1.474346
F	1.405975	0.0	0.0
H	-1.543214	-0.059739	-1.410177
N	-0.529723	1.157546	0.642004
H	-0.39195	1.94085	0.00938
H	-1.551587	0.936531	0.614864
C	-0.436553	-1.236552	0.756344
H	0.061322	-2.129175	0.374451
H	-0.154435	-1.086721	1.801035
H	-1.521863	-1.299931	0.659178
N	0.017682	-1.309428	-2.140657
O	1.105517	-1.298943	-2.725367
O	-0.708815	-2.298011	-2.053756
N	0.065679	1.122468	-2.161338
H	1.071706	1.03527	-2.23015
H	-0.318243	1.174637	-3.095031
F	-2.878701	0.0	0.0
