13

C	0.0	0.0	0.0
C	-0.508665	0.008589	-1.442837
F	1.375793	0.0	0.0
H	-0.293007	0.990501	-1.877241
H	-1.61637	-0.082961	-1.305272
N	-0.536896	1.067008	0.778239
H	-1.568987	0.867765	0.743899
H	-0.394089	1.929567	0.257512
C	-0.378898	-1.287946	0.647743
N	-0.575084	-2.326563	1.159935
C	0.045691	-1.033368	-2.292903
N	0.477145	-1.861689	-3.007277
H	-2.936937	0.0	0.0
