13
Coordinates from ORCA-job run
  C   0.73369867753582      0.03075184270107      0.46294148973001
  C   -0.43210873186140     -0.03882178635884     -0.49266591175280
  F   0.66264802949701      1.14140367737644      1.24166666486887
  H   -0.39159326469944      0.85393425381243     -1.12487109668608
  H   0.83031656052470     -0.84920856493762      1.10146376425301
  H   -0.29049657393297     -0.91201976146493     -1.13365730129396
  N   2.01636772947098      0.08943791414741     -0.33493784940875
  O   2.35109945366717     -0.97897051972246     -0.83807005598740
  O   2.58148741894240      1.16766460441029     -0.44824265570129
  C   -1.76010953596769     -0.11162171245856      0.25295278779163
  H   -1.90256939229855      0.76694131372872      0.88274450852973
  H   -2.59032031281525     -0.16025524374355     -0.45350871656288
  H   -1.80842005806277     -1.00023601749040      0.88718437221991
