13
Coordinates from ORCA-job run
  C   0.71251263650730      0.30458130171634      0.39061955687450
  C   -0.41020905543077     -0.30616755514479     -0.41159474771592
  F   0.55703245216777      1.64922641477836      0.50444135539343
  H   -0.20029898508268     -1.37183020583356     -0.52845921341191
  H   0.82613781917262     -0.12853592935760      1.38606971698660
  H   -0.38972185847413      0.15288110914013     -1.40521717548614
  N   2.02138649123464      0.03393189379714     -0.31550254957173
  O   2.53972760510767      0.94322778037505     -0.94729313096495
  O   2.42490588531777     -1.12056793727853     -0.21190320438894
  C   -1.76093567788360     -0.08033406100050      0.25873389181040
  H   -1.79049676892073     -0.53758800733315      1.25082498538054
  H   -2.55989101287617     -0.52421498833077     -0.33738215307874
  H   -1.97014953083966      0.98439018447188      0.36566266817285
