13
Coordinates from ORCA-job run
  C   0.88500793369343     -0.60785241365006      0.24829796801357
  C   -0.49329320393988     -0.69610203074972     -0.36276500875294
  F   0.83177643644893     -0.71426607667342      1.60149014773567
  H   -0.89679376384590     -1.67342798681729     -0.08218608292323
  H   1.58558790091095     -1.34775903905722     -0.14184537142315
  H   -0.38066867161990     -0.68416626282127     -1.44913104946744
  N   1.48409684434643      0.73646625303849     -0.09855777233420
  O   1.58880150532058      1.57628827686212      0.78369579244552
  O   1.77757778591889      0.86738442668265     -1.28315899643837
  C   -1.41589292644954      0.42326396085910      0.10860328237956
  H   -1.08144335339578      1.39672991308011     -0.25524258172269
  H   -1.45865473146077      0.46320496770836      1.19763198634449
  H   -2.42710175592743      0.25923601153817     -0.26683231385680
