14

C	-0.493061	-0.045207	-1.443354
C	0.0	0.0	0.0
Br	-0.060421	1.539004	-2.495036
H	1.095339	0.0	0.0
H	-0.03848	-0.881583	-1.973355
H	-1.58085	-0.130765	-1.478421
N	-0.409146	-1.243211	0.667255
H	0.15621	-2.010764	0.321157
H	-1.383593	-1.451588	0.465115
C	-0.531486	1.187876	0.780031
H	-0.180462	2.129855	0.35711
H	-1.629798	1.194317	0.784719
H	-0.180829	1.111889	1.809814
Cl	3.59205	0.0	0.0
