14

C	-0.541251	-0.086542	-1.419651
C	0.0	0.0	0.0
Br	-0.334945	1.541861	-2.487838
H	1.09518	0.0	0.0
H	-0.020429	-0.873065	-1.959276
H	-1.611206	-0.299056	-1.403313
N	-0.405111	-1.286234	0.605616
H	0.385888	-1.6534	1.11868
H	-1.162324	-1.137386	1.262695
C	-0.509232	1.197079	0.785862
H	-0.128711	1.141816	1.808775
H	-0.172355	2.138957	0.352007
H	-1.6072	1.20451	0.818318
Cl	3.525602	0.0	0.0
