15

C	0.0	0.0	0.0
C	-0.524536	0.371079	-1.401268
Cl	1.801988	0.0	0.0
H	0.313422	0.696089	-2.034546
H	-1.293044	1.129824	-1.299337
C	-0.395619	1.087457	0.902935
N	-0.522357	1.991625	1.643652
C	-0.394042	-1.342483	0.630007
H	-1.484196	-1.363876	0.588173
H	-0.029333	-1.341902	1.661302
H	0.069978	-2.159267	0.085234
N	-1.185935	-0.723124	-2.177015
O	-2.053156	-0.362354	-2.966478
O	-0.761326	-1.876104	-2.087331
F	-2.540915	0.0	0.0
