15

C	0.0	0.0	0.0
C	-0.57137	0.009546	-1.40061
Cl	1.793944	0.0	0.0
H	-1.68171	0.115689	-1.179169
H	-0.327762	-0.921298	-1.909999
C	-0.41098	1.161128	0.800467
N	-0.606469	2.053298	1.538738
C	-0.473239	-1.278275	0.691858
H	-0.077504	-2.143964	0.1534
H	-1.568495	-1.218263	0.64705
H	-0.106626	-1.300477	1.719798
N	-0.03986	1.091659	-2.248864
O	0.010851	2.22742	-1.780054
O	0.302394	0.795891	-3.397684
F	-2.797704	0.0	0.0
