15

C	0.0	0.0	0.0
C	-0.604605	-0.063171	-1.395619
Cl	1.794069	0.0	0.0
H	-0.346483	0.822766	-1.971928
H	-1.715135	-0.133156	-1.134019
C	-0.39929	1.306793	0.545526
N	-0.585931	2.374893	0.996729
C	-0.474594	-1.101167	0.946996
H	-0.089051	-0.90058	1.949201
H	-1.568585	-1.037435	0.907401
H	-0.111157	-2.066849	0.601394
N	-0.132801	-1.212661	-2.188838
O	0.378987	-0.97419	-3.287218
O	-0.301955	-2.348096	-1.742475
F	-2.824603	0.0	0.0
