15

C	0.0	0.0	0.0
C	-0.488693	0.222494	-1.44854
Cl	1.798435	0.0	0.0
H	0.368247	0.214048	-2.131614
H	-1.024132	1.160658	-1.520419
C	-0.4293	1.1376	0.819474
N	-0.534049	2.071345	1.526934
C	-0.35958	-1.316013	0.707841
H	-1.445285	-1.373266	0.701233
H	0.036172	-1.256229	1.725245
H	0.107944	-2.15189	0.192072
N	-1.417941	-0.780262	-2.042138
O	-1.197102	-1.972565	-1.854833
O	-2.236011	-0.339578	-2.841475
F	-2.478526	0.0	0.0
