16

C	-0.456126	-0.016765	-1.445932
C	0.0	0.0	0.0
Br	0.518364	1.315817	-2.581355
H	1.091306	0.0	0.0
C	-0.138339	-1.309979	-2.057023
N	0.051417	-2.352925	-2.566097
C	-1.889961	0.217023	-1.609486
N	-3.060105	0.2756	-1.713687
C	-0.325996	-1.263865	0.774228
H	0.200656	-2.105786	0.320964
H	0.065362	-1.13376	1.782777
H	-1.39943	-1.475108	0.821486
N	-0.463875	1.184388	0.683609
O	-0.90845	2.136067	0.014579
O	-0.280038	1.231093	1.910462
H	2.409671	0.0	0.0
