13

C	-0.624866	0.045597	-1.376097
C	0.0	0.0	0.0
Cl	-0.36931	-1.451079	-2.355849
H	1.100028	0.0	0.0
H	-0.173267	0.861655	-1.934342
H	-1.706305	0.181385	-1.30312
N	-0.545849	-1.130156	0.784128
H	-0.458985	-1.966408	0.211064
H	0.130668	-1.265123	1.534391
N	-0.39742	1.266637	0.62738
H	-1.160293	1.067504	1.267151
H	0.403391	1.590098	1.160531
F	2.713457	0.0	0.0
