13

C	-0.534108	-0.033442	-1.421274
C	0.0	0.0	0.0
Cl	-0.247077	1.450164	-2.379013
H	1.094672	0.0	0.0
H	-0.051662	-0.850077	-1.960134
H	-1.620663	-0.184278	-1.428078
N	-0.342549	-1.294209	0.631259
H	-1.160823	-1.72709	0.20862
H	0.453642	-1.907095	0.499809
N	-0.532595	1.134126	0.733424
H	-1.449603	0.898783	1.097098
H	0.070549	1.261907	1.536364
F	2.681317	0.0	0.0
