18

C	0.0	0.0	0.0
C	-0.357178	-0.072748	-1.545858
Cl	1.796999	0.0	0.0
H	0.584711	0.134538	-2.053991
C	-0.49812	1.255757	0.55741
N	-0.559892	2.334732	1.033444
C	-0.369329	-1.210685	0.865843
H	0.132474	-2.098128	0.479629
H	-0.010216	-1.02202	1.881058
H	-1.453399	-1.29913	0.849688
C	-1.410901	0.827094	-2.161141
H	-1.327013	1.829363	-1.736644
H	-1.22045	0.882792	-3.241099
H	-2.403801	0.458753	-1.931183
N	-0.589667	-1.51089	-1.939061
O	-1.708066	-1.87376	-2.284149
O	0.40058	-2.245616	-1.899877
H	-2.599708	0.0	0.0
