18

C	0.0	0.0	0.0
C	-0.211034	-0.027869	-1.566785
Cl	1.797148	0.0	0.0
H	0.417472	0.792243	-1.924619
C	-0.906301	1.081274	0.482503
N	-0.934712	2.178836	0.967749
C	-0.279126	-1.29118	0.809382
H	0.061548	-1.101909	1.832343
H	0.273553	-2.136866	0.408004
H	-1.341154	-1.510434	0.819011
C	-1.568493	0.091241	-2.2511
H	-2.061086	1.007127	-1.934836
H	-2.226175	-0.744831	-2.015555
H	-1.374688	0.141267	-3.337555
N	0.420454	-1.236702	-2.194717
O	-0.055811	-2.339969	-1.926211
O	1.334153	-1.054612	-2.999912
H	-2.092661	0.0	0.0
