15
Coordinates from ORCA-job run
  C   -0.56788337901994      0.17655414066880      0.51391279801972
  C   0.69932479497191      0.66798229224631     -0.22219375680386
  F   -1.01019250618857      1.28600912379177      1.21851796656387
  H   0.41110854807778      1.51112058122691     -0.85326519189729
  C   -1.66036951949095     -0.26989466353177     -0.43579344875098
  H   -1.84958022968688      0.51004506501609     -1.17496657355950
  H   -2.56761377155751     -0.44154296331334      0.14492286670889
  H   -1.39129744987487     -1.19406787213729     -0.94761567510899
  C   -0.23723707919123     -0.88011960219660      1.48115421346733
  N   -0.01778923932816     -1.73834925770106      2.25246062216159
  N   1.17922719413932     -0.41781328290571     -1.15375484878461
  O   0.80442288827612     -0.32267598759052     -2.31815421611837
  O   1.85098483165618     -1.31561035899636     -0.65951054797881
  C   1.75687585005056      1.04787111866863      0.70252789093705
  N   2.59901906716626      1.37949166675415      1.45075790114394
