15
Coordinates from ORCA-job run
  C   -0.44643322038159     -0.26289174752749      0.41850456019417
  C   0.70241262799056      0.20369565179015     -0.50101226625228
  F   -0.08529001039294      0.03491002956694      1.71731077706565
  H   0.50216450895561     -0.10953710943300     -1.52857188690125
  C   -1.74546301949918      0.44867187303159      0.09025287881047
  H   -2.04866050972511      0.25254708669038     -0.93993247819366
  H   -2.52360795711835      0.08576919710973      0.76267694844436
  H   -1.62035258353773      1.52197417047049      0.23989033911592
  C   -0.61415230896743     -1.72179220763836      0.30596818613208
  N   -0.81572526617611     -2.87544864566071      0.21809063608972
  N   1.98117398933438     -0.50149551418343     -0.09260141689442
  O   2.16417499190516     -1.59068578910329     -0.62541722593765
  O   2.68511961392619      0.05135936077782      0.74104210014966
  C   0.88316070364330      1.64614444902314     -0.41898785005657
  N   0.98147844004327      2.81577919508606     -0.38621330176619
