15
Coordinates from ORCA-job run
  C   -0.73377079751364      0.26274573361216      0.30572695113405
  C   0.71761027930633      0.67960975209858     -0.03274600788375
  F   -1.58263594220267      1.23817664486524     -0.17615093863228
  H   0.84073908028451      1.73689547629584      0.22657325712533
  C   -1.13114747098133     -1.09038516758694     -0.25019668183826
  H   -0.45859964259250     -1.86854051218685      0.11574814727357
  H   -1.11206936568877     -1.05890942706898     -1.33863653872499
  H   -2.14561039088842     -1.31994393035114      0.07703840504240
  C   -0.84489859538710      0.27728223335190      1.77736569061469
  N   -0.95186128536146      0.28770264496865      2.94723854460515
  N   1.02533196049355      0.60645068985074     -1.52622550772542
  O   2.18868795405040      0.37500008944950     -1.82640726971890
  O   0.10125610878968      0.84860522988303     -2.28977959127600
  C   1.67672940875122     -0.14465683396084      0.69013442707706
  N   2.41023869894019     -0.83003262322089      1.30031711292735
