15
Coordinates from ORCA-job run
  C   -0.45379314982274     -0.26881980771135      0.40631196055547
  C   0.70910433523830      0.20864841522944     -0.48968093849770
  F   -0.09530149778658     -0.02305456019451      1.71674459162001
  H   0.50993472305295     -0.06422797026890     -1.52886579116530
  C   -1.73780461249401      0.47713708192115      0.09597259000050
  H   -2.52641222510139      0.10496999907249      0.75093354096452
  H   -2.03810562403682      0.32247137223051     -0.94210152547870
  H   -1.59466269271795      1.54214323178543      0.28383071605790
  C   -0.64699248249991     -1.71963901983116      0.24178020888648
  N   -0.86846094823925     -2.86571178141691      0.11224070727413
  N   1.97216652192761     -0.53394392548693     -0.09964274418023
  O   2.68008161408699     -0.02521200306438      0.75829986473767
  O   2.13912138107957     -1.60603751219524     -0.67099896927806
  C   0.91519197982066      1.64377471400605     -0.35517211691388
  N   1.03393267749257      2.80950176592428     -0.27965209458281
