15
Coordinates from ORCA-job run
  C   -0.42765618610604     -0.20727524943549      0.51515579207654
  C   0.62990117576909      0.22401283004780     -0.51969279032259
  F   -0.02892879302991      0.19205601404537      1.77018424116893
  H   0.24926488441273      0.05249061736645     -1.52934798895358
  C   -1.76416653721538      0.44575727983326      0.20752420355204
  H   -1.65164918806879      1.53118895911862      0.23629222059514
  H   -2.48215692937249      0.14800896693706      0.97235494815207
  H   -2.13912413915159      0.13795313820223     -0.76987822997853
  C   -0.54452935304494     -1.67505112199556      0.48964080278208
  N   -0.67856755573694     -2.83973273411214      0.41962617995958
  N   1.89754881848608     -0.60743677807459     -0.43044855254755
  O   2.40200999117171     -0.91280298262933     -1.50463927265130
  O   2.30466505680408     -0.87773151864715      0.69056175114656
  C   0.98410828803318      1.62647738006791     -0.34206128002781
  N   1.24928046704922      2.76208519927556     -0.20427202495162
