15
Coordinates from ORCA-job run
  C   -0.57331540802894      0.16027501034161      0.47370878291601
  C   0.72614994286722      0.55366598986134     -0.27739681219883
  F   -0.84552549285830      1.25693965221009      1.28198254427717
  H   0.47158345701681      1.27953965866963     -1.05716530211713
  C   -1.78764688764543     -0.06186027724135     -0.40384814817821
  H   -2.65502037986224     -0.18047574224366      0.24732707580916
  H   -1.67555412258664     -0.94296048559435     -1.02909916084245
  H   -1.93912795692762      0.82011132642819     -1.02981117325483
  C   -0.29925234214020     -0.99464056935540      1.34337932624464
  N   -0.08378762140646     -1.92536523166332      2.02680203133178
  N   1.35128221886652     -0.62580908456614     -1.01004159316633
  O   0.56863347468300     -1.38131916083921     -1.57269360353340
  O   2.57143212078806     -0.69260626585652     -1.02134363912241
  C   1.70197911857395      1.12776049277771      0.64000110540123
  N   2.46816987866027      1.60774468707139      1.38919856643359
