15
Coordinates from ORCA-job run
  C   -0.36945652021044     -0.19296715977997      0.51907222240038
  C   0.60463200660595      0.11930733104822     -0.63682951888950
  F   0.20896276493679      0.26728535045242      1.68513010079685
  H   0.22859748690528     -0.31992580700672     -1.56404519014893
  C   -1.70518846116755      0.49891499206060      0.32237915444772
  H   -2.35627620935287      0.24878152574627      1.16078533025542
  H   -1.55571886194647      1.57931971447270      0.30040562164088
  H   -2.18121045722226      0.17331755589491     -0.60448245209932
  C   -0.55354779786087     -1.64943082500347      0.63753645973140
  N   -0.75638276267635     -2.79945031729049      0.76228066440841
  N   1.93246450844299     -0.55972602421820     -0.36363843996307
  O   2.01979761839869     -1.71042164133351     -0.77856907763682
  O   2.76911091650066      0.07526739441155      0.26317115181511
  C   0.80126342232570      1.55495377780483     -0.77970351751018
  N   0.91295234632074      2.71477413274086     -0.92549250924834
