15
Coordinates from ORCA-job run
  C   -0.57131389255586      0.14417695258195      0.48116314712731
  C   0.71725959804409      0.56476642431872     -0.27390491967509
  F   -0.84944445759989      1.22248344637456      1.31164251945044
  H   0.44722757733506      1.29402844654041     -1.04537762411792
  C   -1.78934774925198     -0.07466842433535     -0.39210184371724
  H   -1.95830740865289      0.82039028496555     -0.99466055179419
  H   -1.66854195927899     -0.93856861540077     -1.03951239702250
  H   -2.65018727661124     -0.22225026523784      0.26175230750449
  C   -0.27936672398398     -1.02411515204557      1.32684683097837
  N   -0.05526502141174     -1.96866569391576      1.98797602100918
  N   1.35547013696411     -0.59794227117736     -1.02191958552116
  O   2.57627836786941     -0.63711729194588     -1.05458028939680
  O   0.58037694531702     -1.36955016262957     -1.57294867440153
  C   1.69076095119845      1.14694269435547      0.64081433149605
  N   2.45440091261843      1.63908962755144      1.38481072808059
