15
Coordinates from ORCA-job run
  C   -0.61485268868117      0.41295372267004      0.38921442461924
  C   0.87606246405286      0.45782705954765     -0.02245370446143
  F   -1.18289890835001      1.63126233056259      0.07622894635582
  H   1.30358372406739      1.40166972089780      0.33310924006619
  C   -1.39998586965232     -0.70701570671470     -0.26446546459973
  H   -1.42791982222117     -0.55274314483155     -1.34210040900416
  H   -0.95277714860743     -1.67583909965487     -0.03432381370927
  H   -2.42049625628774     -0.69039442699357      0.11924556795279
  C   -0.64333831408545      0.28533371557830      1.85942288318711
  N   -0.68665954329126      0.19228743819252      3.02966778020407
  N   1.07600503709320      0.48560895708844     -1.53581311907819
  O   0.21899941132602      1.05956561398566     -2.19282357487122
  O   2.11265233954107     -0.01410457984737     -1.95169682536244
  C   1.60049651977187     -0.67847715841808      0.53031730781274
  N   2.14112905532414     -1.60793444206288      1.00347076088850
