13
Coordinates from ORCA-job run
  C   -0.28626878694301      0.23580371245825     -0.25139475228759
  C   1.07286657813706     -0.25186236675598      0.26057276608140
  F   -0.04640943875594      1.10940299664355     -1.30205528508627
  H   0.92657900493632     -0.95517095045119      1.08516082295622
  H   1.56871936249219     -0.78316911624598     -0.55708869846210
  C   -0.99348427880413      0.97869188376005      0.80731330284240
  N   -1.57744052700636      1.53302384832071      1.66181744682894
  C   -1.14051949517684     -0.90755818599829     -0.76548098038821
  H   -1.37124530164571     -1.61222805946900      0.03538887628690
  H   -2.07354439990977     -0.51212839293904     -1.16843428396090
  H   -0.60380320931130     -1.42504856159988     -1.56301441885697
  C   1.92166309311473      0.85238991207303      0.70116985627527
  N   2.60288739887277      1.73885328020378      1.05604534777091
