13
Coordinates from ORCA-job run
  C   -0.33825981688111      0.38382679192969     -0.40575991649390
  C   1.17818461322400      0.36041066916181     -0.17158567811035
  F   -0.52029156756215      0.98747062179622     -1.64498873553394
  H   1.63499905222744     -0.19257884333494     -0.99748534641399
  H   1.55903006669243      1.38470971217466     -0.19932241185213
  C   -0.99250695083910      1.23141088249959      0.60729544228437
  N   -1.51018074822521      1.90053129833504      1.42145749879975
  C   -0.95903744601883     -0.99738737860119     -0.44428492504556
  H   -0.46275241178284     -1.59041112020769     -1.21526383202710
  H   -0.85497303603094     -1.49721815562170      0.51974799033949
  H   -2.01818641743631     -0.91255881900854     -0.68982544726857
  C   1.51856672452718     -0.26914709173352      1.09964139370108
  N   1.76640793810543     -0.79005856738942      2.12137396762084
