13
Coordinates from ORCA-job run
  C   -0.27817325209230      0.24621500668282     -0.25117534180012
  C   1.06232214905959     -0.28276735909578      0.26903991109227
  F   -0.00410020491340      1.12936507568751     -1.28548112600589
  H   1.55436754098704     -0.81474480132210     -0.55044530409586
  H   0.88902580480011     -0.99349646669203      1.08193957796966
  C   -0.97829804197627      0.99080553782694      0.81115518346963
  N   -1.55271477440395      1.54752935348601      1.67051159117994
  C   -1.15425765231192     -0.86731374490115     -0.79285737257911
  H   -0.62117031061383     -1.38579135306225     -1.59207680231638
  H   -1.41196950318681     -1.57817759708047     -0.00601261617872
  H   -2.07207377830849     -0.44241188139666     -1.20026204480629
  C   1.93333992429995      0.79355745217547      0.73502038945986
  N   2.63370209866028      1.65623077769169      1.11064395461101
