13
Coordinates from ORCA-job run
  C   -0.33099033860443      0.25465055241456     -0.16286909888413
  C   1.11125660188001     -0.16953087932115      0.13105299914279
  F   -0.27735967307019      1.40065311749496     -0.94344122886042
  H   1.11253068464511     -1.07820440322002      0.73958377491370
  H   1.59526941128234     -0.39760427613160     -0.82302875926618
  C   -1.03067841652227      0.59000529167435      1.09042640883464
  N   -1.60336037650911      0.81684335071116      2.08997549207047
  C   -1.08878462167237     -0.81178470036320     -0.93079818109425
  H   -2.09061119747821     -0.44957802075616     -1.16377529186601
  H   -1.17128363519386     -1.72908139417963     -0.34524135025816
  H   -0.56395412719093     -1.02164750135154     -1.86480771299108
  C   1.86500101654230      0.87859647374255      0.81457881164193
  N   2.47296467189161      1.71568238928573      1.36734413661671
