13

C	-0.463386	-0.060704	-1.429018
C	0.0	0.0	0.0
Cl	0.165728	-1.538124	-2.201984
H	1.093186	0.0	0.0
H	-0.329164	-0.906446	0.513223
N	-2.00596	-0.175008	-1.513203
O	-2.513617	-1.030676	-0.802301
O	-2.597824	0.589321	-2.268679
C	-0.057266	1.104418	-2.207859
N	0.290378	2.043962	-2.821661
C	-0.523293	1.17639	0.663901
N	-0.920733	2.137586	1.213727
H	2.595542	0.0	0.0
