13

C	-0.467442	-0.011464	-1.425423
C	0.0	0.0	0.0
Cl	0.146873	-1.466409	-2.253643
H	1.093192	0.0	0.0
H	-0.326984	-0.920034	0.488738
N	-2.013645	-0.120496	-1.525741
O	-2.557033	-0.835069	-0.693447
O	-2.56475	0.484433	-2.439829
C	-0.066287	1.178936	-2.167378
N	0.274077	2.140901	-2.75076
C	-0.519805	1.156597	0.70194
N	-0.916093	2.10503	1.274069
H	2.599752	0.0	0.0
