13

C	-0.458152	0.042251	-1.439788
C	0.0	0.0	0.0
Cl	0.084066	-1.376821	-2.333036
H	1.092837	0.0	0.0
H	-0.311929	0.92627	0.492288
N	-2.008293	0.101583	-1.460629
O	-2.474922	1.198527	-1.162139
O	-2.636037	-0.926499	-1.673851
C	0.007022	1.255818	-2.113976
N	0.334904	2.229798	-2.683985
C	-0.535645	-1.145955	0.704966
N	-0.923683	-2.072926	1.316162
H	2.580355	0.0	0.0
