13

C	-0.37129	-0.059571	-1.443765
C	0.0	0.0	0.0
Cl	-2.119455	0.26351	-1.785656
H	1.093337	0.0	0.0
H	-0.308793	0.964259	0.413424
N	0.400278	1.079265	-2.14458
O	1.129252	0.81378	-3.084734
O	0.220041	2.179124	-1.644553
C	-0.016271	-1.3358	-2.048163
N	0.250181	-2.37376	-2.527833
C	-0.52764	-1.088233	0.772554
N	-0.891172	-1.994751	1.429557
H	2.549989	0.0	0.0
