16
Coordinates from ORCA-job run
  C   -0.67142206822745     -0.30845818540477      0.01141477234604
  C   0.74924694342903     -0.73224040484617      0.36958658223426
  Br  -1.87831381000407     -1.73804136244863      0.87369371044957
  H   0.93265512198180     -1.71781204999599     -0.07211759778115
  H   0.80789231377917     -0.86496378900295      1.45252726374317
  C   -1.10253840667495      1.00352134515631      0.63857431457245
  H   -2.16206816904098      1.19008391953137      0.45182166413350
  H   -0.52363153829890      1.81850569228123      0.19801705006758
  H   -0.94606456028182      0.98606946347098      1.71744173151961
  N   -0.84713859209084     -0.27060782324892     -1.39032058917499
  H   -0.62664990801105     -1.15891486916185     -1.82323095082943
  H   -1.78742617355277     -0.00003089078402     -1.64920286260204
  C   1.80706704763585      0.26248422729275     -0.10710791377799
  H   2.80547221774714     -0.13714211278394      0.08647069778245
  H   1.72948639160294      1.21591717525752      0.41895070122942
  H   1.71243319000690      0.45262966468709     -1.17651857391246
