16
Coordinates from ORCA-job run
  C   -0.64608941913767     -0.03924518881115      0.17568904726193
  C   0.84135414226421      0.33129901605911      0.22100179030567
  Br  -1.02145823419385     -1.20576660300389      1.73462992816740
  H   1.04870949734803      0.82534749584086      1.17515982765445
  H   0.98631612221697      1.08588395592794     -0.56480152183724
  C   -1.51804736800266      1.19613921452607      0.31582008482144
  H   -2.56952721158050      0.91009637656245      0.33201184298388
  H   -1.34589403280399      1.85616819983120     -0.54240346463824
  H   -1.27704222701084      1.74571717842535      1.22656523665621
  N   -1.07548721980347     -0.77696908556414     -0.99263506653307
  H   -0.96690221290803     -0.19043365079267     -1.81430618393271
  H   -0.52219126010302     -1.61571605915808     -1.11800387711786
  C   1.82101497740324     -0.81487880417622      0.00461759739139
  H   2.84789659366646     -0.44787498457313      0.06617062232450
  H   1.70005402801948     -1.26893650130798     -0.98159515049640
  H   1.69529382462563     -1.59083055978571      0.76107928698866
