16
Coordinates from ORCA-job run
  C   -0.68487576422534     -0.40427702250379      0.09141679675861
  C   0.76202324225102     -0.72045744420668      0.46413394908405
  Br  -1.81578835024621     -1.76738669071209      0.97340057388778
  H   0.85974654344798     -0.65667406498712      1.55182786410416
  H   0.95298686907977     -1.75741442035864      0.17823726496425
  C   -1.15509669430443      0.94930225988531      0.61357664947605
  H   -1.01357495353236      1.03656536490465      1.69294463233417
  H   -2.21408406838972      1.09472880316449      0.39117967571714
  H   -0.59136194310813      1.74647491505885      0.11918325917539
  N   -0.87315279942868     -0.59454512239927     -1.33634627303435
  H   -0.36709257841847      0.13394322600682     -1.83047515912477
  H   -1.85521726248923     -0.49480803361330     -1.56965653192598
  C   1.78906306643142      0.19094241196309     -0.20839750449824
  H   2.79270637513969     -0.07760753632155      0.12880298792735
  H   1.63679476744604      1.24445810074090      0.03564356623661
  H   1.77792355034664      0.07575525337835     -1.29447175108222
