16
Coordinates from ORCA-job run
  C   -0.69721576117894     -0.27491057020665     -0.02374199780632
  C   0.76979728326426     -0.44315247432901     -0.43135359077725
  Br  -1.06241485532958     -1.55492854225114      1.44918001617728
  H   0.89704012308689      0.17023504630396     -1.33421416582489
  H   0.91392758954101     -1.48471304041668     -0.73854574075806
  C   -1.01979947549245      1.11890577636853      0.48209549316665
  H   -0.46097721307405      1.36132894318757      1.38469557199823
  H   -2.08658721463350      1.18990868092177      0.69490148121278
  H   -0.76328354686033      1.85176439002405     -0.29251938226472
  N   -1.63100471250134     -0.61181335051230     -1.07733737359132
  H   -1.58754383801572      0.10305401845975     -1.79711619400401
  H   -1.38374653828549     -1.50185514210640     -1.49619020912958
  C   1.82042344701217     -0.05371488138840      0.60191606007614
  H   1.78035475092698      1.01189125147703      0.83570685038606
  H   2.82084966425888     -0.26730577228797      0.21808925356664
  H   1.68818029728121     -0.61569433324414      1.52743392757238
