16
Coordinates from ORCA-job run
  C   -0.62435172941818     -0.35199927874931     -0.07410885364795
  C   0.85169896076452     -0.43197801532511     -0.45200006101721
  Br  -0.98826068818634     -1.66597577071815      1.36592380836070
  H   0.97530647350485      0.20367965086770     -1.34074959515394
  H   1.04750409524034     -1.45857888309743     -0.77106309203697
  C   -1.03090206042034      1.01297004354921      0.46713887588922
  H   -2.10346323078067      1.03339116998225      0.67150145110548
  H   -0.80740635173540      1.77234548203714     -0.29131262023793
  H   -0.50500571827905      1.27004435540062      1.38708470930993
  N   -1.39910659480629     -0.79796349474378     -1.21456140839078
  H   -1.19284466529450     -0.19714238880729     -2.00674416270835
  H   -2.39125177168648     -0.73150025407801     -1.01516181335612
  C   1.84455236423563      0.00448333600207      0.61744303485432
  H   1.74928796404116      1.06609200495011      0.85370343090359
  H   2.86566685543119     -0.16247592800978      0.26722193194334
  H   1.70857609738955     -0.56739202926025      1.53668436418266
