13

C	0.0	0.0	0.0
C	-0.48405	-0.354484	-1.381008
F	1.422224	0.0	0.0
H	-1.570405	-0.451499	-1.300543
H	-0.297086	-0.773899	0.708158
H	-0.264924	0.491332	-2.054821
N	-0.499883	1.249325	0.414518
H	-0.316059	1.443349	1.386643
H	-0.173232	2.00374	-0.171212
N	0.113113	-1.619812	-1.804648
H	1.09236	-1.471359	-2.011729
H	-0.3437	-1.942095	-2.64714
Br	-4.407712	0.0	0.0
