13

C	0.0	0.0	0.0
C	-0.519825	0.201418	-1.415156
F	1.410453	0.0	0.0
H	-0.726412	1.274949	-1.562658
H	-0.279774	-1.001983	0.330937
H	0.281994	-0.08148	-2.103789
N	-0.529762	0.950244	0.896057
H	-0.247077	0.787845	1.85123
H	-0.328128	1.898362	0.614148
N	-1.664115	-0.675141	-1.623175
H	-2.409684	-0.449078	-0.960999
H	-2.066424	-0.498551	-2.535364
Br	-4.770973	0.0	0.0
