13

C	0.0	0.0	0.0
C	-0.295288	-0.365665	-1.468849
F	1.38729	0.0	0.0
H	0.305182	0.345588	-2.053198
H	-0.35343	-0.767812	0.69311
H	0.138378	-1.355465	-1.651641
N	-0.501348	1.261852	0.445903
H	-1.481387	1.141413	0.691346
H	-0.459517	1.932387	-0.31383
N	-1.65251	-0.344155	-1.966663
H	-2.080105	0.553698	-1.77717
H	-2.24566	-0.976598	-1.441671
Br	-4.294445	0.0	0.0
