13

C	0.0	0.0	0.0
C	-0.407972	0.215538	-1.445901
F	1.415118	0.0	0.0
H	-0.023197	-0.615813	-2.057368
H	-0.321846	-0.985337	0.344535
H	-1.49938	0.194956	-1.468069
N	-0.466672	0.992889	0.908824
H	-0.453239	1.876685	0.408725
H	-1.446586	0.779022	1.090452
N	0.068086	1.531304	-1.883143
H	-0.402841	1.799634	-2.73601
H	1.060494	1.48186	-2.068927
Br	-3.842561	0.0	0.0
