15

C	0.0	0.0	0.0
C	-0.455274	0.064756	-1.461164
F	1.388904	0.0	0.0
H	-1.546804	0.07153	-1.438699
H	-0.360781	0.869118	0.553253
C	-0.394545	-1.233197	0.702813
N	-0.577289	-2.21622	1.31759
C	0.047223	-1.139219	-2.24366
H	-0.250268	-1.0253	-3.28687
H	1.137851	-1.21335	-2.200534
H	-0.381162	-2.065445	-1.853104
N	0.009285	1.301185	-2.093312
H	0.982365	1.452481	-1.849039
H	-0.527519	2.078456	-1.72476
Br	-3.624772	0.0	0.0
