16

C	0.0	0.0	0.0
C	-0.596018	0.145599	-1.388559
F	1.392351	0.0	0.0
H	-1.707432	0.127207	-1.097667
C	-0.463646	1.108506	0.927924
H	-0.055657	0.937234	1.926766
H	-0.091981	2.065946	0.552558
H	-1.557407	1.061294	0.918387
C	-0.40702	-1.314195	0.545279
N	-0.618832	-2.330039	1.09323
N	-0.23869	-0.987957	-2.234191
H	-0.9383	-1.104475	-2.954499
H	0.659316	-0.840396	-2.677644
C	-0.224741	1.436464	-1.975673
N	0.048141	2.453943	-2.500309
F	-2.835363	0.0	0.0
