16

C	0.0	0.0	0.0
C	-0.263338	0.031883	-1.549266
F	1.38694	0.0	0.0
H	0.414955	0.846449	-1.85405
C	-0.574727	1.20207	0.6991
H	-0.261784	2.108355	0.174017
H	-0.217817	1.235794	1.73183
H	-1.6675	1.070409	0.656864
C	-0.445828	-1.256926	0.619422
N	-0.684251	-2.281155	1.141646
N	-1.607685	0.27807	-2.011057
H	-1.841511	-0.390572	-2.732712
H	-2.307822	0.156593	-1.203112
C	0.325196	-1.196073	-2.123339
N	0.752198	-2.157617	-2.64707
F	-3.072095	0.0	0.0
