16

C	0.0	0.0	0.0
C	-0.462298	-0.034835	-1.457944
F	1.39061	0.0	0.0
H	-1.570754	-0.000435	-1.334894
C	-0.455794	1.222998	0.772067
H	-1.550268	1.194734	0.737067
H	-0.072689	1.159612	1.794382
H	-0.039572	2.113527	0.292692
C	-0.423154	-1.24003	0.676805
N	-0.572205	-2.219995	1.307982
N	-0.004729	-1.219082	-2.18255
H	-0.589321	-1.9977	-1.905099
H	0.948557	-1.425676	-1.902477
C	0.049007	1.157409	-2.142288
N	0.468308	2.109423	-2.687926
F	-2.719291	0.0	0.0
