16

C	0.0	0.0	0.0
C	-0.42744	0.043807	-1.502813
F	1.38454	0.0	0.0
H	0.511526	0.275752	-2.022456
C	-0.457457	1.205542	0.795361
H	-1.545289	1.138459	0.854173
H	0.010178	1.158077	1.782645
H	-0.148578	2.113096	0.277272
C	-0.412444	-1.239229	0.684853
N	-0.570567	-2.230873	1.293682
N	-1.397341	1.086178	-1.780853
H	-2.219079	0.789186	-1.185732
H	-1.641845	1.028197	-2.764265
C	-0.822889	-1.296156	-1.996395
N	-1.097744	-2.319772	-2.504725
F	-2.818969	0.0	0.0
