16

C	0.0	0.0	0.0
C	-0.605109	0.216775	-1.376424
F	1.392971	0.0	0.0
H	-1.71477	0.181006	-1.074754
C	-0.464714	1.059013	0.984034
H	-1.558605	1.014189	0.97077
H	-0.058482	0.836853	1.973448
H	-0.090672	2.03427	0.658426
C	-0.397851	-1.34397	0.470719
N	-0.583814	-2.421546	0.89589
N	-0.257888	-0.865173	-2.288725
H	0.606169	-0.670255	-2.776886
H	-0.994494	-0.982471	-2.969849
C	-0.242912	1.53728	-1.898082
N	0.057746	2.564359	-2.38786
F	-2.84056	0.0	0.0
