16

C	0.0	0.0	0.0
C	-0.389241	-0.044797	-1.482573
F	1.395507	0.0	0.0
H	-0.00365	-1.011687	-1.84979
C	-0.385371	1.263646	0.74895
H	-1.465842	1.275088	0.849215
H	0.117429	1.250785	1.720506
H	-0.027001	2.112076	0.165103
C	-0.421271	-1.227587	0.693617
N	-0.554298	-2.244686	1.26614
N	0.265249	1.085975	-2.160371
H	1.253929	0.884993	-2.247483
H	-0.138129	1.151116	-3.086844
C	-1.832913	-0.007628	-1.828552
N	-2.569243	0.023013	-2.75922
F	-2.56651	0.0	0.0
