15

C	-0.536092	-0.03209	-1.430176
C	0.0	0.0	0.0
Br	0.477257	-1.297252	-2.499624
H	1.0924	0.0	0.0
C	-1.944127	-0.407655	-1.483359
N	-3.073286	-0.733626	-1.445271
N	-0.372657	1.331142	-2.106444
O	0.658433	1.934762	-1.858779
O	-1.274227	1.691424	-2.859057
N	-0.339113	-1.266295	0.640137
H	-1.127034	-1.191783	1.270104
H	0.485583	-1.561866	1.148266
C	-0.538788	1.162932	0.690379
N	-0.995648	2.074721	1.278523
F	2.492823	0.0	0.0
