15

C	-0.44722	0.03337	-1.465144
C	0.0	0.0	0.0
Br	0.42365	-1.373106	-2.464826
H	1.093659	0.0	0.0
C	-1.88808	-0.132658	-1.614516
N	-3.04988	-0.316454	-1.657082
N	-0.038425	1.353049	-2.149563
O	1.139547	1.651325	-2.077901
O	-0.937749	2.000278	-2.684581
N	-0.489508	-1.203981	0.628985
H	0.205712	-1.518096	1.294454
H	-1.376931	-1.065533	1.098355
C	-0.470267	1.23048	0.632079
N	-0.860813	2.194931	1.18638
F	2.503295	0.0	0.0
