15

C	-0.533181	-0.027153	-1.431259
C	0.0	0.0	0.0
Br	0.472902	-1.301827	-2.49709
H	1.092411	0.0	0.0
C	-1.945255	-0.38882	-1.489112
N	-3.080371	-0.695305	-1.449778
N	-0.355942	1.334339	-2.110602
O	0.659248	1.950457	-1.827385
O	-1.228777	1.677244	-2.90405
N	-0.342934	-1.267537	0.635536
H	0.480966	-1.570566	1.139572
H	-1.127937	-1.190165	1.26816
C	-0.540072	1.160721	0.694505
N	-0.997891	2.06348	1.296272
F	2.493795	0.0	0.0
