15

C	-0.504895	-0.031558	-1.441906
C	0.0	0.0	0.0
Br	0.480076	-1.350099	-2.472112
H	1.092344	0.0	0.0
C	-1.925312	-0.348018	-1.527017
N	-3.06641	-0.631512	-1.51226
N	-0.269047	1.313346	-2.135213
O	0.751868	1.908473	-1.828963
O	-1.106557	1.663929	-2.963526
N	-0.368609	-1.254546	0.642518
H	0.429023	-1.549462	1.192363
H	-1.184592	-1.165879	1.234522
C	-0.537188	1.17769	0.668014
N	-0.99155	2.107941	1.229113
F	2.492842	0.0	0.0
