15

C	-0.258279	-0.062788	-1.493007
C	0.0	0.0	0.0
Br	0.229981	1.59893	-2.379908
H	1.096934	0.0	0.0
C	0.49072	-1.164934	-2.092849
N	1.03925	-2.08316	-2.58079
N	-1.746172	-0.310472	-1.874613
O	-1.985425	-0.605059	-3.038885
O	-2.569271	-0.19027	-0.973086
N	-0.338579	-1.218569	0.702593
H	-1.196202	-1.660432	0.404805
H	0.452503	-1.847178	0.65188
C	-0.567669	1.183892	0.620733
N	-0.989665	2.139505	1.160815
F	2.484849	0.0	0.0
