15

C	-0.400183	0.007114	-1.469463
C	0.0	0.0	0.0
F	-0.025062	-1.178435	-2.069525
H	1.096872	0.0	0.0
C	-1.863527	0.14605	-1.638205
N	-3.030628	0.252478	-1.733186
C	0.245021	1.127441	-2.19058
N	0.646923	2.040889	-2.810349
C	-0.531839	-1.186502	0.639038
N	-0.939105	-2.140226	1.195556
C	-0.41071	1.281104	0.720272
H	0.092679	2.131631	0.252793
H	-1.491942	1.448203	0.729709
H	-0.050989	1.222257	1.749256
H	2.601062	0.0	0.0
