15

C	-0.401414	-0.142428	-1.451196
C	0.0	0.0	0.0
F	-1.790171	-0.049809	-1.630355
H	1.10715	0.0	0.0
C	0.189452	0.937527	-2.268605
N	0.57345	1.810604	-2.953829
C	0.011733	-1.444623	-2.007485
N	0.293603	-2.483026	-2.478687
C	-0.509819	-1.116834	0.76802
N	-0.894696	-2.010947	1.42989
C	-0.410329	1.34543	0.591145
H	-1.489095	1.516136	0.556043
H	0.109016	2.145074	0.056313
H	-0.072933	1.380665	1.62913
H	2.578537	0.0	0.0
