15

C	-0.400768	0.001191	-1.458649
C	0.0	0.0	0.0
F	-1.788579	0.114228	-1.628831
H	1.105297	0.0	0.0
C	0.194245	1.154296	-2.165409
N	0.583411	2.090122	-2.75819
C	0.010403	-1.241764	-2.138457
N	0.288927	-2.231105	-2.706463
C	-0.510805	-1.186276	0.655192
N	-0.898121	-2.138499	1.228338
C	-0.410707	1.280807	0.720892
H	0.107898	2.129298	0.267027
H	-1.489557	1.453046	0.703774
H	-0.072079	1.21349	1.757095
H	2.581158	0.0	0.0
