15
Coordinates from ORCA-job run
  C   1.00893564650691      0.09737321688977      0.45515571872346
  C   -0.52927986098328     -0.01901800123168      0.36177323228733
  Cl  1.35760248809982      1.41854583525565      1.62564070416927
  H   -0.91527411087134     -0.14189003480181      1.37601344214373
  C   1.61979670241622      0.45271282517371     -0.82569765961397
  N   2.10246499134957      0.79868567142855     -1.83979091898999
  C   1.59271982596787     -1.13397703503335      0.99045880485723
  N   2.03683464275918     -2.11293738199503      1.46531800522580
  N   -0.89488183498290     -1.28543158231493     -0.36252827380532
  O   -0.07651978749918     -1.74345369288901     -1.15665576598332
  O   -2.01277254231057     -1.72743342716749     -0.12669315750381
  C   -1.19482752770562      1.13849069462329     -0.35996597184064
  H   -2.27550228411367      0.99414526949673     -0.33766126833187
  H   -0.86183570910885      1.18326227597404     -1.39886576986691
  H   -0.95846063952415      2.08192536659157      0.13149887852903
