15
Coordinates from ORCA-job run
  C   0.97573820538087     -0.06365251811131      0.54445425572942
  C   -0.53265028623692      0.18689620154513      0.33411512911665
  Cl  1.24983618906020     -0.72030566460178      2.18686154870123
  H   -0.85307116234991      0.91244157014360      1.08378475268547
  C   1.64718811103299      1.23639001366249      0.44746467023987
  N   2.14187299456021      2.29936344420080      0.36255833435971
  C   1.55649512427512     -0.96590048230626     -0.45287990684321
  N   2.05937696669911     -1.63019281692487     -1.28184357843396
  N   -1.30175904208735     -1.06296260950050      0.64481928077415
  O   -2.27644510590666     -0.93355341564888      1.37901844069694
  O   -0.92107426784628     -2.09736671896903      0.10628345895695
  C   -0.86769398123336      0.62575925959501     -1.07955120456989
  H   -0.58426255845108     -0.14512453229024     -1.79803070517258
  H   -0.35025648539798      1.55527306782218     -1.32346230518459
  H   -1.94229470149898      0.80293520138368     -1.15459217105618
