15
Coordinates from ORCA-job run
  C   1.01195987029439      0.10991862454056      0.44652395332381
  C   -0.52662093647256     -0.00562972142437      0.36496995224946
  Cl  1.36905723620614      1.47155461041231      1.56825918195810
  H   -0.90882450865508     -0.09185038215635      1.38440663214522
  C   1.61721508875104      0.41993502397412     -0.84864901664468
  N   2.09357528648472      0.73030131221915     -1.87711083908049
  C   1.59551320733371     -1.10245748082164      1.02314262552924
  N   2.03932807749944     -2.06337943494012      1.53386674627321
  N   -0.89909755418697     -1.29574361595385     -0.31280650214697
  O   -0.08639482534182     -1.78215383122151     -1.09635554311319
  O   -2.01729062267893     -1.72609457269080     -0.05673697079396
  C   -1.19368591856119      1.12701710534220     -0.39424742841446
  H   -2.27450282393094      0.98523335546209     -0.36088598581682
  H   -0.86569833101409      1.13441648396488     -1.43573710381604
  H   -0.95353324572785      2.08693252329333      0.06236029834757
