15
Coordinates from ORCA-job run
  C   0.98936957046108     -0.09184039669288      0.50677145441260
  C   -0.52141067035970      0.18834336296882      0.35635763464203
  Cl  1.30860076166997     -0.80003362216597      2.11950238181847
  H   -0.80350490381718      0.89623214901783      1.13757927426305
  C   1.68164280716729      1.19778923172799      0.42091488428573
  N   2.19733043209138      2.25134034308334      0.34357525102506
  C   1.51915661273719     -0.97722457551049     -0.53323698621309
  N   1.98636714789078     -1.63006029789165     -1.39172789724480
  N   -1.29342099676474     -1.06105506376046      0.66251535743466
  O   -2.18942682070068     -0.96119058072919      1.49473142594683
  O   -0.98726845401614     -2.06739846081363      0.03083160583727
  C   -0.89660461457980      0.67159832999836     -1.03187492002892
  H   -0.65142282082634     -0.08330773184545     -1.78045542085012
  H   -1.96983249292228      0.86872782280077     -1.06613171219981
  H   -0.37157555803083      1.59907948981262     -1.26735233312896
