15
Coordinates from ORCA-job run
  C   1.03530193319818      0.10308963870503      0.39089371877591
  C   -0.50717266259422      0.01225453262115      0.39176576109314
  Cl  1.47282918047117      1.48330308658818      1.45982748941052
  H   -0.83681354154739     -0.04496960372651      1.43135350964240
  C   1.57697579821407      0.37199775431926     -0.94103961359598
  N   2.00581659230052      0.64964727543115     -1.99934913677118
  C   1.62818889773241     -1.10626044331494      0.96464962220117
  N   2.08243912814122     -2.06477080089660      1.47077699028612
  N   -0.93475315065107     -1.28632270720829     -0.23585055022522
  O   -0.17099858295793     -1.80529421979161     -1.04693876684148
  O   -2.04507840071891     -1.69106930260816      0.08687902363503
  C   -1.19485000610369      1.13900619815219     -0.35752653091250
  H   -2.27462644596879      1.01842129352871     -0.26312144733676
  H   -0.92379657618101      1.11669102082213     -1.41507192662241
  H   -0.91346216333456      2.10427627737831      0.06275185726124
