15
Coordinates from ORCA-job run
  C   1.07315352333802     -0.10273530671576      0.01011902634542
  C   -0.45151361878857      0.10941125208753      0.20150019325194
  Cl  1.52564266274912     -0.67620531005875     -1.62113892702505
  H   -0.57447465123500      0.63752022931847      1.15008022634458
  C   1.57712784614524     -1.04576824269303      1.01219183507705
  N   1.95291326101401     -1.78816015826624      1.84261512912753
  C   1.70696383518770      1.20491302888080      0.21160439350843
  N   2.17059865615434      2.27338931434120      0.36935288391781
  N   -1.13894722826332     -1.20812422529722      0.41439049018984
  O   -0.89211366814795     -2.10575692399636     -0.38481014232472
  O   -1.92920931889702     -1.25868832196270      1.35247737338976
  C   -1.12611987741609      0.85055450692205     -0.93522123519453
  H   -2.16449289471985      1.04808345239471     -0.66275841102361
  H   -1.10200972835440      0.25709318010250     -1.84841471237389
  H   -0.62751879876624      1.80547352494281     -1.11198812321056
