14

C	0.0	0.0	0.0
C	-0.475923	0.406214	-1.403633
Cl	1.784193	0.0	0.0
H	0.106361	-0.187258	-2.119966
H	-0.33715	-1.016161	0.187811
C	-0.415178	0.937025	1.124225
H	-0.00836	1.935319	0.945057
H	-0.010165	0.570148	2.071092
H	-1.502279	0.942521	1.141532
C	-0.131135	1.80782	-1.677902
N	0.16724	2.921113	-1.903208
C	-1.911887	0.169344	-1.768113
N	-2.616995	0.065068	-2.717164
F	-2.629264	0.0	0.0
