14

C	0.0	0.0	0.0
C	-0.565423	0.163849	-1.434671
Cl	1.784218	0.0	0.0
H	0.274766	0.332635	-2.12054
H	-0.325045	-0.956452	0.395953
C	-0.402457	1.116133	0.95625
H	-0.026251	2.078605	0.598934
H	-1.492795	1.088278	0.987203
H	0.035699	0.921613	1.938628
C	-1.463197	1.314001	-1.598729
N	-1.944127	2.319653	-1.973614
C	-1.223774	-1.066529	-1.874026
N	-1.567375	-2.086723	-2.342139
F	-2.583814	0.0	0.0
