14

C	0.0	0.0	0.0
C	-0.573781	-0.162369	-1.431982
Cl	1.783888	0.0	0.0
H	0.257818	-0.381946	-2.117549
H	-0.315357	-0.861312	0.581219
C	-0.412938	1.277048	0.71971
H	-0.001648	1.26412	1.732603
H	-0.016797	2.153101	0.199102
H	-1.504202	1.262	0.72882
C	-1.20451	1.064671	-1.929595
N	-1.567061	2.061405	-2.432961
C	-1.499791	-1.300482	-1.523255
N	-1.961437	-2.332917	-1.850732
F	-2.600521	0.0	0.0
