14

C	0.0	0.0	0.0
C	-0.566006	-0.208857	-1.429962
Cl	1.784504	0.0	0.0
H	0.278775	-0.26919	-2.131895
H	-0.326157	-0.82659	0.62285
C	-0.408606	1.318157	0.645453
H	0.017378	1.370471	1.650946
H	-0.02564	2.162249	0.065424
H	-1.500057	1.295503	0.668739
C	-1.40975	0.897992	-1.898775
N	-1.872208	1.814235	-2.4714
C	-1.278258	-1.486722	-1.527435
N	-1.658166	-2.581191	-1.720962
F	-2.58965	0.0	0.0
