14

C	0.0	0.0	0.0
C	-0.566766	-0.283014	-1.417152
Cl	1.77989	0.0	0.0
H	0.27092	-0.294062	-2.129956
H	-0.330667	-0.786634	0.670629
C	-0.407913	1.356239	0.56547
H	-0.029773	2.165075	-0.066323
H	-1.498274	1.33358	0.596482
H	0.022093	1.47	1.56368
C	-1.504655	0.741627	-1.900465
N	-1.986889	1.614107	-2.523118
C	-1.174825	-1.615405	-1.464158
N	-1.52294	-2.730802	-1.572071
F	-2.592433	0.0	0.0
