14

C	0.0	0.0	0.0
C	-0.485589	-0.187026	-1.448155
Cl	1.784306	0.0	0.0
H	0.093156	0.510308	-2.069904
H	-0.346183	-0.819266	0.622663
C	-0.408419	1.350584	0.57321
H	-1.492297	1.352432	0.638214
H	0.051411	1.489197	1.55405
H	-0.050123	2.150293	-0.082374
C	-1.930804	0.085935	-1.757905
N	-2.664125	0.306931	-2.666049
C	-0.141687	-1.534621	-1.918228
N	0.159601	-2.609543	-2.283177
F	-2.603112	0.0	0.0
