14

C	0.0	0.0	0.0
C	-0.509518	0.269727	-1.426066
Cl	1.783645	0.0	0.0
H	0.168273	-0.24853	-2.116125
H	-0.321959	-1.000868	0.277743
C	-0.41617	1.014742	1.054183
H	-1.503266	1.039804	1.052474
H	-0.03386	0.698988	2.027732
H	0.012193	1.992416	0.819867
C	-0.399254	1.694807	-1.75848
N	-0.257912	2.82609	-2.039282
C	-1.875299	-0.245377	-1.759243
N	-2.524206	-0.700773	-2.641268
F	-2.632088	0.0	0.0
