14

C	0.0	0.0	0.0
C	-0.566611	0.066441	-1.443544
Cl	1.785307	0.0	0.0
H	0.278741	0.130816	-2.145339
H	-0.324798	-0.930991	0.453124
C	-0.40746	1.169113	0.887842
H	-1.498706	1.141587	0.909705
H	-0.027478	2.109484	0.479305
H	0.022589	1.028099	1.882881
C	-1.39742	1.251291	-1.693661
N	-1.846498	2.27033	-2.070189
C	-1.291197	-1.164221	-1.77807
N	-1.677823	-2.198412	-2.178511
F	-2.588169	0.0	0.0
