16

C	0.0	0.0	0.0
C	-0.644891	0.028961	-1.347704
F	1.359763	0.0	0.0
H	-1.751777	0.216284	-1.134302
H	-0.550272	-0.938036	-1.839378
N	-0.332573	1.295493	0.775174
O	0.385156	1.510641	1.75306
O	-1.280787	1.976464	0.417174
C	-0.527856	-1.145551	0.81919
H	-0.130408	-1.065483	1.832522
H	-0.193122	-2.085458	0.372024
H	-1.628571	-1.077193	0.806606
N	-0.039622	1.013591	-2.266178
O	-0.046153	0.727232	-3.467001
O	0.413631	2.060048	-1.802463
H	-3.19631	0.0	0.0
