13
Coordinates from ORCA-job run
  C   0.74920695443714     -0.07313869426649     -0.25880426187983
  C   -0.52453057960352     -0.73125923773493      0.31008288270598
  F   0.98493821344602     -0.63187143199720     -1.49559432477684
  H   -0.55753138514019     -1.78288897431994      0.01997986242324
  H   -0.57152303046472     -0.63144531614296      1.39306773102468
  C   1.85916299163348     -0.45684177300988      0.64331569171350
  N   2.70699422587195     -0.77775269516031      1.38870900033401
  N   0.75114483064808      1.34316518822711     -0.41199155003321
  H   -0.03713086876316      1.65721070465982     -0.96301273202330
  H   0.80925707870608      1.83702714307539      0.46731830481722
  N   -1.75104119621869     -0.08021455364074     -0.22856830157109
  O   -2.62500615453904      0.22188059877321      0.57916532047784
  O   -1.79294108001344      0.10712904153692     -1.44266762321221
