13
Coordinates from ORCA-job run
  C   0.58645964291024      0.08297250826766     -0.36058870704733
  C   -0.93169832121345      0.00645095357393     -0.25513155019587
  F   1.04479591416614     -0.83610981742346     -1.27096543600353
  H   -1.34120089062138      0.89739213537172      0.21770693127579
  H   -1.32586302102309     -0.10508835149076     -1.26607369606661
  C   1.23479331509285     -0.22211160835163      0.94116871796095
  N   1.74998668241079     -0.36382710638189      1.98736612096129
  N   0.91710025446672      1.37949832287182     -0.88631302428766
  H   0.70846872412002      2.10973220067562     -0.21583643043223
  H   1.90788737799635      1.41124391448552     -1.10003789552443
  N   -1.39648119438027     -1.16256503114829      0.54522024195839
  O   -2.30609632797467     -0.95991940013427      1.34469561768821
  O   -0.84915215595025     -2.23766872031599      0.31978910971303
