15

C	0.0	0.0	0.0
C	-0.516499	-0.03381	-1.432872
Cl	1.78333	0.0	0.0
H	-1.631995	0.078888	-1.185533
H	-0.350789	0.916639	0.463322
C	-0.468442	-1.143508	0.780605
N	-0.647464	-2.093254	1.449678
C	-0.163023	-1.281152	-2.203142
H	-0.577025	-1.236551	-3.209715
H	-0.599321	-2.137436	-1.685656
H	0.917731	-1.422672	-2.28702
N	-0.031764	1.191792	-2.115572
O	0.346795	1.10914	-3.288877
O	-0.075445	2.251403	-1.486742
F	-2.582935	0.0	0.0
