15

C	0.0	0.0	0.0
C	-0.22852	-0.001087	-1.557607
Cl	1.783158	0.0	0.0
H	0.378099	0.833229	-1.915133
H	-0.372419	0.937667	0.395179
C	-0.522667	-1.109421	0.785411
N	-0.646707	-2.016907	1.524276
C	-1.572739	0.050255	-2.25919
H	-1.361418	0.071319	-3.337792
H	-2.188405	-0.793649	-1.973258
H	-2.112873	0.936451	-1.947343
N	0.474388	-1.19346	-2.157715
O	0.19734	-2.302883	-1.712108
O	1.224822	-0.985515	-3.112744
F	-2.390458	0.0	0.0
