15

C	0.0	0.0	0.0
C	-0.230143	-0.022074	-1.558458
Cl	1.783087	0.0	0.0
H	0.3215	0.848863	-1.917669
H	-0.384457	0.935153	0.388644
C	-0.510678	-1.115271	0.787005
N	-0.663568	-2.026087	1.516445
C	-1.577476	-0.063824	-2.255059
H	-2.192076	0.749032	-1.892281
H	-2.11312	-0.973891	-2.010877
H	-1.375509	0.008586	-3.332811
N	0.539095	-1.169407	-2.159691
O	1.262461	-0.919001	-3.126161
O	0.33574	-2.292911	-1.709774
F	-2.4078	0.0	0.0
