15

C	0.0	0.0	0.0
C	-0.409646	0.155344	-1.484257
Cl	1.785	0.0	0.0
H	0.449823	-0.119195	-2.108583
H	-0.336936	0.86971	0.550703
C	-0.460414	-1.184155	0.720967
N	-0.584079	-2.100593	1.446801
C	-0.813569	1.588934	-1.75135
H	0.014564	2.24613	-1.456124
H	-1.025316	1.748866	-2.806984
H	-1.703952	1.770992	-1.15357
N	-1.449752	-0.812631	-1.966624
O	-1.262761	-1.991735	-1.690662
O	-2.279108	-0.405107	-2.771875
F	-2.337248	0.0	0.0
