15

C	0.0	0.0	0.0
C	-0.417449	0.20204	-1.478492
Cl	1.784728	0.0	0.0
H	0.457488	-0.001219	-2.107295
H	-0.338194	0.852071	0.578599
C	-0.444946	-1.206838	0.693019
N	-0.574622	-2.138083	1.398786
C	-0.915026	1.61323	-1.69769
H	-0.152139	2.317506	-1.348609
H	-1.111827	1.803166	-2.752638
H	-1.828916	1.688581	-1.111239
N	-1.393758	-0.813038	-1.996237
O	-2.23834	-0.438775	-2.801952
O	-1.145	-1.98588	-1.736837
F	-2.347809	0.0	0.0
