15

C	0.0	0.0	0.0
C	-0.229004	-0.024104	-1.558917
Cl	1.783186	0.0	0.0
H	0.333279	0.839088	-1.921488
H	-0.379964	0.939135	0.38374
C	-0.516059	-1.105966	0.794731
N	-0.658044	-2.004412	1.540693
C	-1.574822	-0.057069	-2.258029
H	-1.371855	0.00746	-3.336272
H	-2.11743	-0.96068	-2.003957
H	-2.184746	0.765723	-1.906946
N	0.531182	-1.183452	-2.154703
O	1.263213	-0.944191	-3.117031
O	0.311621	-2.302664	-1.70217
F	-2.402176	0.0	0.0
