16
Coordinates from ORCA-job run
  C   0.70727915969165     -0.16845000861078     -0.42007899335074
  C   -0.77167425591218     -0.44758204297771     -0.10239097151494
  Br  1.01637905275577     -0.70331537316177     -2.31909580097835
  H   -0.90033681639094     -1.53124861255390     -0.15262246151735
  N   1.51673945994848     -0.80417096205118      0.52130193487197
  H   2.49569747349202     -0.57755820440415      0.41050219609202
  H   1.36464609007058     -1.80296551302147      0.55710784163444
  N   1.07782660429919      1.32106616237784     -0.40565790922509
  O   0.25046824788391      2.11602364207129     -0.82619748481986
  O   2.20631485351582      1.58917054097637     -0.01708382611840
  N   -1.72361308341141      0.18868575920270     -0.91875304920986
  H   -2.65504508127332     -0.16048040882430     -0.74363457069803
  H   -1.68179555862240      1.19466084677514     -0.84826509775135
  N   -0.92257972063927     -0.14536164761477      1.39861712261295
  O   -1.05119550112414     -1.10828584885096      2.14857329441371
  O   -0.92911092428377      1.03881167066765      1.71867777555889
