16
Coordinates from ORCA-job run
  C   0.70863682079777      0.09205463205777     -0.45118027106363
  C   -0.57967584861594     -0.23000474477207      0.34241257347147
  Br  0.21704518391149      0.82653337743216     -2.16967702169881
  H   -0.27036985176462     -0.47092888607372      1.36229130248115
  N   1.56530649666049     -1.03179003484664     -0.63957488060150
  H   1.91508353766645     -1.32891417991575      0.26631588650475
  H   1.02279274969354     -1.78557180939027     -1.04585663558904
  N   1.54664520607749      1.09808077650641      0.35584682454688
  O   1.89714471856886      0.64896318496698      1.44405508996125
  O   1.81925732166372      2.18836822040733     -0.10837145922469
  N   -1.26619206497177     -1.31468665187335     -0.25277863448022
  H   -1.76003511838021     -1.01205220601606     -1.08390545045233
  H   -1.93596241658876     -1.71584137488443      0.38943291615738
  N   -1.42752015096248      1.03778339462984      0.48965944335233
  O   -0.89379685347533      1.96886365794818      1.08453760765816
  O   -2.55735973028069      1.02714264382361      0.01479270897683
