16
Coordinates from ORCA-job run
  C   0.68450675942042     -0.28313439943122     -0.42319228940137
  C   -0.82749951392756     -0.44814659367705     -0.08381069742528
  Br  0.95330787778918     -0.57555932945210     -2.32961111235127
  H   -1.00114289391025     -1.52413028817905     -0.03913124235955
  N   1.47477657374832     -1.17089534110082      0.30576026473680
  H   2.46421978276067     -0.99040139554487      0.20164435818099
  H   1.21334427143473     -1.20487741595963      1.28368580320792
  N   1.05040190245146      1.22411452444301     -0.18444834562481
  O   1.88400946742310      1.43860020237136      0.68764967446573
  O   0.45347981306215      2.06479991577126     -0.84460983274995
  N   -1.81419830403007      0.18808379925294     -0.87033269793556
  H   -2.00208424684022     -0.34325306369678     -1.70765208929140
  H   -1.55835395428796      1.13739273304183     -1.10636265017385
  N   -0.96966274240370      0.04311711302581      1.35345488495047
  O   -0.65198507303832     -0.74971272743022      2.24102209718277
  O   -1.35311971965195      1.19400226656553      1.51493387458837
