16
Coordinates from ORCA-job run
  C   0.65558540206944      0.07868835724901     -0.52873490095194
  C   -0.54498104637568     -0.21874877951941      0.40313883782199
  Br  -0.00478066392630      0.86262621440819     -2.16781269256185
  H   -0.12736492289374     -0.49609999008723      1.37407281115759
  N   1.44365124388752     -1.07118206310276     -0.83476262754546
  H   1.89853781455929     -1.38558724986895      0.01723251880541
  H   0.82287459137992     -1.80210839203489     -1.16458794157726
  N   1.61346869912029      1.03846909414583      0.19234209671838
  O   2.07479340796705      0.55669722350410      1.22376833874720
  O   1.86134303649265      2.13178667627759     -0.27933809610126
  N   -1.33383643472020     -1.26433676094046     -0.13090900816830
  H   -1.90828584461828     -0.92608194413121     -0.89362886968236
  H   -1.93827628016557     -1.66161205095250      0.57516949647201
  N   -1.32385939669782      1.07307723744711      0.67125333354976
  O   -0.68838313438984      1.97351544511323      1.21045428760896
  O   -2.50148647168872      1.11089698249234      0.33434241570713
