15

C	-0.584257	-0.084081	-1.398142
C	0.0	0.0	0.0
Cl	0.096279	-1.47216	-2.257606
H	1.092365	0.0	0.0
H	-1.667976	-0.186739	-1.387515
N	-0.328232	1.147461	-2.228023
O	0.602111	1.873323	-1.907092
O	-1.086195	1.30426	-3.182542
N	-0.427843	-1.086795	0.836304
H	0.356615	-1.696946	1.016694
H	-1.200375	-1.611745	0.45298
N	-0.524619	1.266181	0.63761
O	0.052276	1.673249	1.632459
O	-1.555682	1.752313	0.159732
Cl	3.276671	0.0	0.0
