15

C	-0.555669	0.071902	-1.423285
C	0.0	0.0	0.0
Cl	-0.369136	-1.437145	-2.286868
H	1.097889	0.0	0.0
H	-1.613111	0.339339	-1.410806
N	0.11025	1.211529	-2.183528
O	0.243715	2.240433	-1.529476
O	0.381277	1.067925	-3.365846
N	-0.450285	-1.175933	0.677961
H	-1.397723	-1.078034	1.019393
H	0.184475	-1.382322	1.437698
N	-0.506975	1.218099	0.757682
O	0.261336	1.794156	1.513092
O	-1.714079	1.462808	0.647477
Cl	3.297499	0.0	0.0
