13
Coordinates from ORCA-job run
  C   0.88987611013420      0.53460253976001      0.41630308429881
  C   -0.16958672336216     -0.20045964836649     -0.41072524517507
  F   0.46491962536840      0.63646178808598      1.72405918667976
  H   0.21334920481433     -0.26934078018335     -1.43611320914945
  H   1.01190936632058      1.55032238392944      0.02592555634869
  C   2.18719443555383     -0.15471672140736      0.37514570464670
  N   3.22550972216296     -0.69752067620006      0.30672837025015
  C   -1.49757669310274      0.56252756431152     -0.40075750372150
  H   -2.24030300593997      0.03726662859601     -1.00213566981157
  H   -1.35868228324547      1.56245085479162     -0.81848460672949
  H   -1.87463719986885      0.65355932663162      0.61766693821334
  C   -0.34260021446463     -1.56363343351372      0.09753241820137
  N   -0.50837234437048     -2.65151982643522      0.50585497594824
