13
Coordinates from ORCA-job run
  C   1.15285724500488     -0.15746117204117      0.18148342262595
  C   -0.19193874413944     -0.10552062533270     -0.55159174300283
  F   2.14485267239711     -0.52160750849705     -0.70281667795088
  H   -0.08192201234731      0.60701008808128     -1.37660527380381
  H   1.12250582143226     -0.90505679981536      0.98036076165349
  C   1.47769262175935      1.15664827630883      0.75580390958798
  N   1.71212340072131      2.21159852900964      1.21379293144282
  C   -1.33165125118178      0.32904463592124      0.37482930771876
  H   -1.15235765178982      1.33563112977669      0.75505996498693
  H   -2.27548572853677      0.32961575095304     -0.17054012237237
  H   -1.42762331309984     -0.35717404111306      1.21879299414204
  C   -0.45719986689950     -1.42751026561157     -1.12419195593263
  N   -0.69285319332045     -2.49421799763980     -1.55337751909544
