13
Coordinates from ORCA-job run
  C   1.14235322126886      0.41048741229275     -0.20147336844696
  C   -0.21651379176948     -0.14477069254343     -0.64906215436422
  F   1.14339758296983      1.77536129673367     -0.41789695992314
  H   -0.32677253252494      0.14732988109646     -1.69984186487135
  H   1.95081192085437     -0.02266325061043     -0.79714776657519
  C   1.39147185654259      0.14806386186228      1.22326979179022
  N   1.57799551655893     -0.06550452376458      2.36222628431863
  C   -1.37413747941681      0.42689535407237      0.17135385558449
  H   -2.32673750816209      0.08225721832895     -0.23296414543612
  H   -1.34993334192952      1.51624432844646      0.12895125994577
  H   -1.30492752424501      0.10943538155527      1.21303405338367
  C   -0.17290869787408     -1.60634084364746     -0.58437517797558
  N   -0.13409922227265     -2.77779542382229     -0.51607380743020
