15

C	-0.443323	0.027726	-1.442527
C	0.0	0.0	0.0
Br	0.208657	-1.539656	-2.392932
H	1.104138	0.0	0.0
N	-1.987204	0.006557	-1.620403
O	-2.421012	0.257517	-2.737071
O	-2.653737	-0.266648	-0.630397
C	0.029779	1.221243	-2.134289
N	0.405366	2.192306	-2.681449
N	-0.327267	-1.232238	0.679101
H	-1.156177	-1.148824	1.249132
H	0.479379	-1.474383	1.249184
C	-0.444319	1.214911	0.667478
N	-0.773048	2.180636	1.256305
H	2.522739	0.0	0.0
