15

C	-0.601742	-0.022915	-1.402707
C	0.0	0.0	0.0
Br	0.053747	1.466818	-2.468309
H	1.094027	0.0	0.0
N	-0.186063	-1.343971	-2.071132
O	0.981421	-1.45212	-2.400305
O	-1.065244	-2.189884	-2.173093
C	-2.058245	0.037887	-1.387548
N	-3.228086	0.135812	-1.312096
N	-0.298687	-1.250614	0.667515
H	0.547046	-1.525295	1.168034
H	-1.085198	-1.190365	1.302908
C	-0.456647	1.190579	0.703317
N	-0.821338	2.128872	1.314507
H	2.542384	0.0	0.0
