15

C	-0.584049	-0.008146	-1.400245
C	0.0	0.0	0.0
Br	0.142539	1.470443	-2.466842
H	1.100354	0.0	0.0
N	-0.190015	-1.296466	-2.127421
O	-0.938976	-1.651122	-3.033807
O	0.853005	-1.826585	-1.788794
C	-2.03807	0.081683	-1.413762
N	-3.208101	0.190584	-1.35001
N	-0.387953	-1.237412	0.664865
H	-1.069424	-1.080891	1.394098
H	0.463287	-1.623345	1.069194
C	-0.432539	1.200568	0.698646
N	-0.755167	2.173954	1.277029
H	2.545959	0.0	0.0
