15

C	-0.446956	0.027966	-1.442675
C	0.0	0.0	0.0
Br	0.170375	-1.558561	-2.385408
H	1.102899	0.0	0.0
N	-1.991802	0.030881	-1.612985
O	-2.428281	0.320067	-2.71997
O	-2.65504	-0.267909	-0.627891
C	0.046753	1.207255	-2.143098
N	0.449466	2.164524	-2.695516
N	-0.329468	-1.229481	0.681106
H	-1.163312	-1.14896	1.242261
H	0.472499	-1.474198	1.254824
C	-0.443764	1.220005	0.658449
N	-0.770857	2.213027	1.200703
H	2.525825	0.0	0.0
