17

C	-0.284312	-0.055342	-1.501457
C	0.0	0.0	0.0
Br	-2.259057	-0.755553	-1.782597
H	1.093795	0.0	0.0
N	-0.169925	1.239918	-2.025724
H	-0.789637	1.911658	-1.590289
H	-0.281775	1.246295	-3.029723
C	0.638224	-1.006617	-2.238535
H	0.399168	-2.041987	-2.021177
H	1.640209	-0.773858	-1.858648
H	0.565223	-0.833183	-3.315724
N	-0.399721	-1.208772	0.753411
O	-0.143668	-2.298363	0.249714
O	-0.899041	-1.053774	1.86991
C	-0.558579	1.178364	0.624519
N	-0.960329	2.194542	1.059719
F	2.487313	0.0	0.0
