17

C	-0.2897	-0.054979	-1.501127
C	0.0	0.0	0.0
Br	-2.25072	-0.796097	-1.778845
H	1.093857	0.0	0.0
N	-0.206096	1.243492	-2.02115
H	-0.845097	1.896459	-1.587464
H	-0.312043	1.251552	-3.025669
C	0.648589	-0.984499	-2.243657
H	0.437314	-2.024459	-2.017939
H	0.558012	-0.818979	-3.321293
H	1.648579	-0.728663	-1.873959
N	-0.386297	-1.213856	0.75432
O	-0.111394	-2.299963	0.251973
O	-0.886416	-1.065902	1.87019
C	-0.564834	1.172096	0.630892
N	-0.977039	2.181662	1.071886
F	2.487765	0.0	0.0
