17

C	-0.08772	0.029322	-1.533547
C	0.0	0.0	0.0
Br	-1.967762	0.297776	-2.163437
H	1.094092	0.0	0.0
N	0.687321	1.2014	-1.86782
H	0.822496	1.235037	-2.872318
H	1.596956	1.053051	-1.404525
C	0.440688	-1.239878	-2.183904
H	0.512768	-1.065473	-3.261073
H	1.435655	-1.393512	-1.758216
H	-0.181713	-2.114452	-2.006161
N	-0.550031	-1.21037	0.650325
O	-0.033684	-2.288306	0.360535
O	-1.466343	-1.075042	1.463025
C	-0.536308	1.197627	0.612366
N	-0.931387	2.172586	1.135897
F	2.550073	0.0	0.0
