16

C	0.0	0.0	0.0
C	-0.605291	-0.013334	-1.407649
Cl	1.776852	0.0	0.0
H	-1.718578	0.079693	-1.166776
C	-0.399407	1.245272	0.696599
N	-0.635613	2.182029	1.366475
N	-0.510221	-1.18574	0.631602
H	-0.191483	-1.198687	1.594345
H	-1.541122	-1.009343	0.599345
N	-0.338187	-1.316471	-2.080731
O	-1.291595	-2.075112	-2.223434
O	0.814411	-1.532944	-2.44932
N	-0.132211	1.057314	-2.316934
O	-0.301421	0.867465	-3.519884
O	0.320732	2.082132	-1.814798
F	-2.747539	0.0	0.0
