16

C	0.0	0.0	0.0
C	-0.618638	0.174779	-1.399969
Cl	1.785121	0.0	0.0
H	-1.715944	0.329472	-1.110912
C	-0.382613	1.164282	0.826319
N	-0.569414	2.040979	1.585238
N	-0.509337	-1.161504	0.675566
H	-0.244927	-1.984835	0.148129
H	-1.537303	-0.999952	0.62168
N	-0.563146	-1.051346	-2.237378
O	-1.425795	-1.131814	-3.107141
O	0.315474	-1.889187	-2.031366
N	-0.024292	1.280385	-2.193489
O	0.398224	1.042885	-3.324459
O	-0.014623	2.377456	-1.645273
F	-2.755072	0.0	0.0
