16

C	0.0	0.0	0.0
C	-0.602276	-0.062271	-1.415952
Cl	1.786263	0.0	0.0
H	-1.707336	0.076403	-1.174682
C	-0.384487	1.303711	0.580654
N	-0.574305	2.340637	1.098149
N	-0.514373	-1.019749	0.868976
H	-1.543107	-0.866479	0.780629
H	-0.254197	-1.920037	0.485609
N	-0.438694	-1.369816	-2.10663
O	0.301424	-2.231927	-1.634893
O	-1.098622	-1.490688	-3.135906
N	-0.054693	0.970698	-2.33253
O	0.792745	0.631247	-3.157952
O	-0.478332	2.112098	-2.165731
F	-2.751934	0.0	0.0
