16

C	0.0	0.0	0.0
C	-0.267959	0.144523	-1.530612
Cl	1.778835	0.0	0.0
H	0.3539	-0.601426	-2.019999
C	-0.456525	1.123479	0.829135
N	-0.621219	1.995487	1.598697
N	-0.490292	-1.216954	0.55307
H	-0.249209	-1.980756	-0.07167
H	-1.533198	-1.014081	0.494801
N	0.170851	1.447272	-2.122612
O	-0.065474	2.480565	-1.509765
O	0.720412	1.367428	-3.22232
N	-1.643695	-0.13327	-2.09585
O	-1.885933	-1.325723	-2.22794
O	-2.285708	0.802055	-2.543043
F	-2.565984	0.0	0.0
