16

C	0.0	0.0	0.0
C	-0.207159	0.147033	-1.551848
Cl	1.851638	0.0	0.0
H	0.301443	1.04523	-1.892675
C	-0.406632	1.277912	0.602511
N	-0.551111	2.339062	1.085525
N	-0.526581	-1.082678	0.706733
H	-0.310711	-1.935155	0.206716
H	-1.579737	-0.841004	0.607517
N	-1.60815	0.262552	-2.112448
O	-2.134928	-0.755693	-2.533023
O	-2.008398	1.410264	-2.232848
N	0.423293	-0.97301	-2.325678
O	0.35603	-2.116625	-1.888676
O	0.942117	-0.647588	-3.393068
F	-2.60426	0.0	0.0
