16

C	0.0	0.0	0.0
C	-0.205479	-0.036829	-1.560336
Cl	1.851085	0.0	0.0
H	0.315352	0.806879	-2.004854
C	-0.400585	1.341755	0.449771
N	-0.577575	2.439231	0.828331
N	-0.537912	-0.982732	0.830503
H	-1.593939	-0.739768	0.695052
H	-0.333297	-1.891581	0.434114
N	-1.603601	0.033826	-2.131439
O	-1.998893	1.168201	-2.35339
O	-2.136642	-1.015737	-2.456603
N	0.409587	-1.249973	-2.192198
O	0.934967	-1.06319	-3.288185
O	0.329492	-2.330303	-1.61766
F	-2.6178	0.0	0.0
