16

C	0.0	0.0	0.0
C	-0.247799	0.180888	-1.515305
Cl	1.833528	0.0	0.0
H	0.295352	-0.625199	-2.000159
C	-0.40758	1.101764	0.883967
N	-0.577483	1.892059	1.737814
N	-0.471756	-1.291832	0.372479
H	-0.192663	-1.456221	1.33476
H	-1.517444	-1.07746	0.338722
N	0.32987	1.449425	-2.064048
O	0.267605	2.468825	-1.388935
O	0.797093	1.361455	-3.199332
N	-1.641961	0.105817	-2.113177
O	-1.991428	-1.019751	-2.433003
O	-2.193968	1.158352	-2.390371
F	-2.534127	0.0	0.0
