16

C	0.0	0.0	0.0
C	-0.465717	0.136104	-1.458013
Br	1.959143	0.0	0.0
H	-0.11145	-0.748949	-1.9929
C	-0.423516	1.086748	0.880928
N	-0.621929	1.928473	1.67743
C	-0.390433	-1.368594	0.573841
H	-1.477933	-1.394777	0.594137
H	0.026848	-2.154825	-0.061097
H	0.027814	-1.470724	1.57719
N	0.239957	1.280134	-2.14677
O	0.818142	1.023836	-3.199636
O	0.168044	2.381871	-1.614985
C	-1.916099	0.320356	-1.741909
N	-2.642152	0.538711	-2.656711
F	-2.578604	0.0	0.0
