16

C	-0.293622	0.036341	-1.500601
C	0.0	0.0	0.0
Cl	-0.131496	-1.638512	-2.221389
H	1.10316	0.0	0.0
N	-1.752671	0.392178	-1.775505
O	-2.591557	-0.159226	-1.080234
O	-1.972996	1.174774	-2.694783
N	0.540995	1.00089	-2.065529
H	0.405582	1.105425	-3.0607
H	1.515034	0.810311	-1.823475
C	-0.533378	-1.152075	0.710381
N	-0.930294	-2.039539	1.3687
N	-0.519364	1.252211	0.573534
H	-0.526688	1.159029	1.583085
H	0.161959	1.969522	0.347611
Br	3.431996	0.0	0.0
