16

C	-0.501195	0.042382	-1.44342
C	0.0	0.0	0.0
Cl	-2.337547	0.329465	-1.396218
H	1.092588	0.0	0.0
N	0.038941	1.256398	-2.192606
O	0.726792	2.059664	-1.584242
O	-0.252578	1.297208	-3.385448
N	-0.121545	-1.06744	-2.189432
H	-0.464724	-1.028186	-3.138933
H	-0.32191	-1.947134	-1.736558
C	-0.423683	-1.286406	0.566988
N	-0.769662	-2.320157	1.007475
N	-0.457635	1.138785	0.77587
H	-1.191857	0.885663	1.421571
H	0.335378	1.511321	1.281983
Br	3.408766	0.0	0.0
