16

C	-0.350148	-0.138958	-1.491764
C	0.0	0.0	0.0
Cl	-2.033061	-0.675163	-1.771179
H	1.093884	0.0	0.0
N	-0.264056	1.317542	-2.078584
O	0.877476	1.664803	-2.35635
O	-1.274474	1.995164	-2.18612
N	0.554668	-1.028366	-2.077257
H	0.466019	-1.079147	-3.082573
H	1.512211	-0.814034	-1.793119
C	-0.433934	-1.207384	0.716513
N	-0.81615	-2.108929	1.366595
N	-0.46908	1.238905	0.577065
H	-1.413513	1.15194	0.929126
H	0.150515	1.499869	1.332727
Br	3.422868	0.0	0.0
