16

C	-0.575112	0.043729	-1.418741
C	0.0	0.0	0.0
Cl	0.322558	1.342681	-2.327583
H	1.093614	0.0	0.0
N	-0.284459	-1.227863	-2.19947
O	-0.892912	-1.34638	-3.258754
O	0.515664	-2.02185	-1.72444
N	-1.965289	0.210343	-1.389777
H	-2.340321	0.373256	-2.314049
H	-2.168157	0.97126	-0.750339
C	-0.521324	-1.161918	0.7172
N	-0.919376	-2.070559	1.345922
N	-0.471131	1.236906	0.673016
H	-0.559465	1.04512	1.664101
H	0.286893	1.907314	0.579876
Br	3.434343	0.0	0.0
