16

C	-0.3037	-0.314897	-1.470021
C	0.0	0.0	0.0
Cl	-0.292781	-2.139297	-1.73846
H	1.10745	0.0	0.0
N	-1.744484	0.050141	-1.82595
O	-2.574192	-0.02626	-0.927693
O	-1.971904	0.350806	-2.991548
N	0.563964	0.394672	-2.286359
H	0.471548	0.160805	-3.26322
H	1.526693	0.33004	-1.953137
C	-0.501616	-0.987842	0.954252
N	-0.903359	-1.692965	1.803997
N	-0.423421	1.359657	0.296042
H	0.304706	1.817462	0.827943
H	-1.288549	1.366497	0.818635
Br	3.411679	0.0	0.0
