16

C	-0.570082	0.01912	-1.421367
C	0.0	0.0	0.0
Cl	0.328315	1.307959	-2.344204
H	1.093796	0.0	0.0
N	-0.276042	-1.262239	-2.183568
O	-0.863743	-1.384548	-3.254149
O	0.498802	-2.063473	-1.680626
N	-1.959884	0.181673	-1.40173
H	-2.330063	0.332169	-2.329425
H	-2.169543	0.948334	-0.771524
C	-0.526571	-1.145844	0.73878
N	-0.936995	-2.052427	1.36255
N	-0.471665	1.250414	0.647199
H	0.275803	1.924788	0.522046
H	-0.53918	1.086967	1.643573
Br	3.436975	0.0	0.0
