16

C	-0.246744	0.072644	-1.525471
C	0.0	0.0	0.0
Cl	-1.996886	0.066084	-1.936488
H	1.09406	0.0	0.0
N	0.227953	1.456091	-2.10718
O	0.007252	2.479442	-1.471226
O	0.753892	1.408378	-3.212029
N	0.420104	-0.99181	-2.135501
H	1.381923	-1.025039	-1.789425
H	0.419694	-0.89811	-3.143421
C	-0.484606	-1.309581	0.450611
N	-0.910898	-2.325827	0.856422
N	-0.510093	1.025248	0.874603
H	0.054281	1.855442	0.759533
H	-1.464544	1.256166	0.625412
Br	3.389871	0.0	0.0
