11
Coordinates from ORCA-job run
  C   0.73649206036681     -0.48067661543700      0.05590568868066
  C   -0.40958623100739      0.46571737652610     -0.23019901070488
  F   0.34186043380845     -1.76403638695256     -0.26103689284529
  H   -0.12326124062943      1.50180373051192     -0.03968239541101
  H   0.99129796182175     -0.45881703631899      1.11716430000023
  H   -0.77532002586873      0.34776459171317     -1.24841572435507
  C   1.90501416382748     -0.10790535793438     -0.75204486784472
  N   2.84064337137046      0.20708339896402     -1.38630208997780
  N   -1.55393724449016      0.15960835958142      0.68624274902376
  O   -2.67495795898790      0.16098913469303      0.19153887706725
  O   -1.27824529021132     -0.03153119534673      1.86682936636687
