11
Coordinates from ORCA-job run
  C   0.57706479539037     -0.54986133610642     -0.37789389859151
  C   -0.22002177326152      0.55817822487135      0.27672783952293
  F   0.06464968387097     -0.78104007465916     -1.63758702986831
  H   -0.26306484057446      1.44220222504204     -0.35648030575656
  H   0.48726360094827     -1.47322444493321      0.19744655752999
  H   0.18329933139908      0.80557620387455      1.26048346587387
  C   1.98747456527355     -0.15267024649654     -0.48203237044954
  N   3.11142943161616      0.17895796707647     -0.54226778775219
  N   -1.62974122923606      0.10058961674584      0.49048038078503
  O   -1.77819832253972     -1.02529042820832      0.95610555579535
  O   -2.51915524288664      0.89758229279340      0.21601759291094
