14

C	0.0	0.0	0.0
C	-0.53893	-0.042869	-1.435746
F	1.382863	0.0	0.0
H	-1.646715	-0.066798	-1.3201
H	-0.3372	-0.915227	0.494887
C	-0.464281	1.228734	0.744081
H	-0.063489	2.124923	0.263675
H	-1.554171	1.261114	0.758365
H	-0.087232	1.186677	1.768128
C	-0.090392	-1.249177	-2.134451
N	0.247387	-2.226632	-2.690224
C	-0.149058	1.146482	-2.196153
N	0.144969	2.108297	-2.802119
Br	-3.740716	0.0	0.0
