14

C	0.0	0.0	0.0
C	-0.426881	-0.178989	-1.492398
F	1.385472	0.0	0.0
H	0.529055	-0.255263	-2.028393
H	-0.34365	-0.862355	0.571606
C	-0.435855	1.298044	0.632634
H	-0.04082	1.336115	1.650841
H	-1.523131	1.353206	0.652251
H	-0.024651	2.137114	0.065465
C	-1.10459	0.976293	-2.086766
N	-1.45878	1.945426	-2.64723
C	-1.112349	-1.447088	-1.761632
N	-1.459664	-2.52911	-2.057719
Br	-3.567958	0.0	0.0
