14

C	0.0	0.0	0.0
C	-0.434259	0.169225	-1.489396
F	1.385766	0.0	0.0
H	0.516954	0.185204	-2.039175
H	-0.343147	-0.972227	0.354376
C	-0.439248	1.111197	0.920664
H	-0.058432	0.902609	1.923406
H	-1.527123	1.161971	0.939708
H	-0.021276	2.060307	0.575802
C	-1.077725	1.449104	-1.804103
N	-1.407552	2.5283	-2.131367
C	-1.155766	-0.989377	-2.024639
N	-1.479534	-1.982851	-2.561768
Br	-3.567653	0.0	0.0
