14

C	0.0	0.0	0.0
C	-0.542708	-0.111162	-1.42977
F	1.382962	0.0	0.0
H	-1.650639	-0.128087	-1.309311
H	-0.338161	-0.889109	0.539406
C	-0.462221	1.263743	0.685755
H	-0.065208	2.135647	0.159862
H	-1.552183	1.297112	0.705412
H	-0.079286	1.271622	1.708314
C	-0.098707	-1.350074	-2.071667
N	0.236727	-2.351156	-2.585182
C	-0.154567	1.039475	-2.247876
N	0.137971	1.971124	-2.89982
Br	-3.740451	0.0	0.0
