18

C	-0.324354	-0.089322	-1.50118
C	0.0	0.0	0.0
F	-0.06191	1.223218	-1.98975
H	1.087198	0.0	0.0
N	0.587434	-1.021643	-2.036771
H	1.522348	-0.853118	-1.649052
H	0.598482	-0.943549	-3.04706
C	-1.752017	-0.406023	-1.879164
H	-1.824324	-0.447783	-2.969678
H	-2.031017	-1.379157	-1.476088
H	-2.424238	0.360377	-1.503855
N	-0.473407	-1.18278	0.733273
O	-1.4574	-1.060723	1.473889
O	0.150418	-2.22739	0.557739
N	-0.549432	1.180506	0.687747
O	0.014602	1.475088	1.741308
O	-1.515838	1.784484	0.2171
H	2.589285	0.0	0.0
