18

C	-0.504121	0.02707	-1.453037
C	0.0	0.0	0.0
F	0.198212	1.015624	-2.127669
H	1.087368	0.0	0.0
N	-0.121352	-1.204407	-2.103499
H	-0.726602	-1.952041	-1.794875
H	-0.215728	-1.063803	-3.102191
C	-1.9743	0.403094	-1.567621
H	-2.584636	-0.314527	-1.019524
H	-2.143259	1.40708	-1.172768
H	-2.258334	0.393142	-2.62422
N	-0.416879	-1.160804	0.752634
O	-1.194411	-2.004724	0.254514
O	0.130702	-1.293549	1.857096
N	-0.405517	1.209104	0.724341
O	-1.180315	1.133637	1.68619
O	0.062747	2.262726	0.282044
H	2.397635	0.0	0.0
