18

C	-0.489402	0.011486	-1.461253
C	0.0	0.0	0.0
F	0.299006	0.936672	-2.12421
H	1.090812	0.0	0.0
N	-0.226716	-1.262358	-2.08366
H	-0.911255	-1.945586	-1.785695
H	0.702003	-1.579206	-1.818208
C	-1.933685	0.42132	-1.666318
H	-2.152596	0.346742	-2.733408
H	-2.057819	1.453308	-1.343462
H	-2.610262	-0.216996	-1.099139
N	-0.479799	-1.245324	0.66575
O	-1.698678	-1.375109	0.817384
O	0.353064	-2.091961	0.978613
N	-0.410722	1.114969	0.822556
O	-0.511625	0.922509	2.045313
O	-0.456416	2.229121	0.277632
H	2.505373	0.0	0.0
