18

C	-0.287536	-0.022081	-1.509602
C	0.0	0.0	0.0
F	-1.651244	0.167354	-1.73664
H	1.104017	0.0	0.0
N	0.411912	1.046292	-2.178362
H	0.156974	1.92511	-1.736428
H	1.402881	0.914012	-1.956169
C	0.176741	-1.331682	-2.113527
H	1.210158	-1.510265	-1.800015
H	0.142083	-1.219313	-3.197483
H	-0.454026	-2.157834	-1.800707
N	-0.465967	-1.146317	0.802056
O	-0.004763	-1.19919	1.943477
O	-1.225122	-1.984735	0.31163
N	-0.516241	1.211271	0.649716
O	0.03509	2.275354	0.344661
O	-1.462283	1.12037	1.435783
H	2.526582	0.0	0.0
