18

C	-0.395616	0.104642	-1.486845
C	0.0	0.0	0.0
F	-0.179397	1.456325	-1.782366
H	1.104219	0.0	0.0
N	0.497401	-0.647582	-2.316191
H	0.301324	-1.629304	-2.15682
H	1.445722	-0.484729	-1.964159
C	-1.844958	-0.192421	-1.804994
H	-2.0847	-1.23333	-1.581036
H	-2.490426	0.459638	-1.21494
H	-1.993872	-0.002677	-2.871462
N	-0.376365	-1.226653	0.649794
O	-0.39385	-1.235705	1.890042
O	-0.465439	-2.251406	-0.055251
N	-0.518883	1.140421	0.792105
O	-1.724758	1.141021	1.054501
O	0.27054	2.027727	1.102765
H	2.48471	0.0	0.0
