18

C	-0.330034	0.030333	-1.496266
C	0.0	0.0	0.0
F	-1.698741	-0.097676	-1.714197
H	1.102478	0.0	0.0
N	0.073033	1.309009	-2.041315
H	1.068639	1.41783	-1.849581
H	-0.426407	2.05331	-1.566413
C	0.393546	-1.062409	-2.250027
H	1.442634	-1.075806	-1.941628
H	-0.055546	-2.028076	-2.036606
H	0.311466	-0.829344	-3.312974
N	-0.476625	-1.133979	0.779974
O	-0.880426	-0.924464	1.930195
O	-0.343167	-2.254747	0.279769
N	-0.481188	1.232046	0.685649
O	0.336814	1.879217	1.334853
O	-1.668001	1.539628	0.54087
H	2.543853	0.0	0.0
