15
Coordinates from ORCA-job run
  C   0.78069034434244     -0.47824349886493     -0.10949142520982
  C   -0.67751671832231     -0.03595757574407     -0.38404682233409
  Br  0.92075863986341     -2.40394731394702      0.17264993320747
  H   -0.99366943312612     -0.40849170286873     -1.35845941100084
  C   1.54460090844397     -0.18115240139337     -1.33329475883926
  N   2.17384742017688      0.10007703370318     -2.28616642498853
  N   1.27863023496423      0.19207564206622      1.06775814742753
  H   2.15769479357732     -0.21799921004704      1.35926041500343
  H   1.43758125606071      1.16885014384821      0.84102831300126
  N   -0.71989787769040      1.38566208890460     -0.31640955453106
  H   -1.49967626706920      1.75677903597635     -0.84250913122658
  H   -0.80804960883303      1.66897995514894      0.65381932920018
  N   -1.63044499615259     -0.69291632119624      0.60837708891438
  O   -1.77364168043017     -0.13395969449057      1.69167916432785
  O   -2.19390701580512     -1.71775618109553      0.23580513704808
