15
Coordinates from ORCA-job run
  C   0.87321656151920     -0.23357386446636     -0.11961928402148
  C   -0.65451819332920     -0.32180495448226     -0.32909023976193
  Br  1.67475109860004     -1.30322802856720     -1.63481068769507
  H   -0.94186765585194     -1.37121893401212     -0.40491410706086
  C   1.34705452010828      1.13509309972700     -0.31948370567781
  N   1.71678367971899      2.23980177357746     -0.47477779526152
  N   1.23826215351257     -0.69165369330155      1.16227516150023
  H   2.23243931916378     -0.61714654484438      1.33251404372222
  H   0.91767939512799     -1.63511843357866      1.34316245517641
  N   -1.07821202634726      0.41504150095884     -1.45355087411858
  H   -0.99587311368143      1.41242354119783     -1.29446936785045
  H   -2.02638156980603      0.18661943089070     -1.71792460736972
  N   -1.28410417882283      0.14855071344136      0.98893968508336
  O   -1.38304223170981      1.36129166537759      1.14383615776973
  O   -1.63518775820237     -0.72407727191825      1.77691316556549
