15
Coordinates from ORCA-job run
  C   0.82230593527708     -0.30871402673112     -0.17269590137081
  C   -0.70959650436128     -0.25418297179784     -0.19871034597962
  Br  1.34272028260551     -1.33728949973140     -1.77309683698505
  H   -1.06883826082326     -1.28988941349979     -0.14216080451617
  C   1.42292369096443      1.02326739958376     -0.32197268788875
  N   1.97081010451554      2.06129774760374     -0.39303692969843
  N   1.27231805724308     -1.07034706744709      0.96740592117859
  H   2.24922023466242     -1.31586593187270      0.85738051865674
  H   1.17292502954712     -0.49558279020668      1.79769313706948
  N   -1.21182128884470      0.56063932773883     -1.26899650990117
  H   -0.86413621307428      0.22692278789176     -2.15856698040455
  H   -2.22383325160180      0.52020579369293     -1.27786038244571
  N   -1.24420117178560      0.39701917095997      1.06200692123273
  O   -2.46334114871492      0.34649450023058      1.17724346280936
  O   -0.46745549560933      0.93602497358505      1.84536741824336
