15
Coordinates from ORCA-job run
  C   0.78378906923292     -0.32094020112541     -0.17055878275440
  C   -0.76314204871590     -0.30534178973033     -0.23971919235699
  Br  1.35886635124669     -1.40877422866928     -1.70181597357331
  H   -1.10037067701695     -1.33798086972125     -0.31927476049491
  C   1.34684349220878      1.01757610693631     -0.39593253346171
  N   1.79934112556147      2.08934933003647     -0.56999299289169
  N   1.21799226716151     -0.98701514411186      1.03240005075829
  H   1.11291353701411     -0.35284361724541      1.81873679393273
  H   2.19377684472763     -1.24974013343336      0.96110973677796
  N   -1.37393900995076      0.51113725758363     -1.23017906669518
  H   -1.43215697479109      0.04185711589385     -2.12150463649359
  H   -0.92033471186629      1.41104682965314     -1.32942508303990
  N   -1.27788647603286      0.16797910986864      1.10172234837721
  O   -2.24294552006269     -0.41799342674635      1.57066850499308
  O   -0.70374726871658      1.14168366081122      1.59276558692241
