15
Coordinates from ORCA-job run
  C   0.86342954885178      0.11549669921073     -0.07962231298698
  C   -0.66571053495937     -0.10881532405722      0.17551493930585
  Br  1.08168981515831      1.19503975760179     -1.71045648360149
  H   -0.73433483768472     -0.67095405717778      1.11007467616671
  C   1.49029090826762      0.83844402260199      1.02561293792669
  N   1.98282888006268      1.38324590090806      1.94344477736061
  N   1.57848299457319     -1.11557012879073     -0.28069336861692
  H   1.65886067974194     -1.63603649613487      0.58589592909664
  H   1.13432746736271     -1.67726634649624     -0.99651690027146
  N   -1.38927131454497     -0.77251877555232     -0.84302709837151
  H   -1.30634287683000     -1.77574045769658     -0.81070810483637
  H   -1.23359876537160     -0.39488574633635     -1.76656463825491
  N   -1.33305751876663      1.21606080517566      0.47344266925432
  O   -1.88883350835892      1.78654790417069     -0.45685672672349
  O   -1.23676093750203      1.61795224257315      1.63145970455230
