15
Coordinates from ORCA-job run
  C   0.84320184182115     -0.38576927943607     -0.22111762813844
  C   -0.69792777033185     -0.31843657840674     -0.31294365834705
  Br  1.49902354222868     -1.27513336711815     -1.84379206724472
  H   -1.07901975301394     -1.33927828854972     -0.26119176549907
  C   1.38228532785515      0.98483594900705     -0.25667345459003
  N   1.78652747744667      2.08968621597075     -0.23679902090823
  N   1.26270900483066     -1.18284184997115      0.89419882073428
  H   0.83250149073360     -0.88058285607583      1.76000553663601
  H   2.27091227007193     -1.17807330204569      0.98319444795427
  N   -1.14529115674605      0.36770332366124     -1.45634068373448
  H   -0.93353822111957      1.35702577508494     -1.40852862454989
  H   -2.13769304204239      0.24356229531032     -1.59996387149261
  N   -1.18189932836823      0.34586433524348      1.00355561503831
  O   -1.26482503320519     -0.37360036360268      1.99800956185688
  O   -1.44096665016061      1.54403799092824      0.95738679228478
