16
Coordinates from ORCA-job run
  C   0.70212994622256      0.34848640850214      0.19186216004254
  C   -0.49443653857061     -0.62057922593058      0.26294979775895
  Br  1.42373267375883      0.61897849509030      2.05228866659548
  H   -0.19457096121447     -1.52693576359755      0.80064871018050
  N   0.26500333635533      1.60695582844857     -0.28120190819918
  H   -0.37632026148087      1.48812920251195     -1.05639724501742
  H   1.02677887443333      2.23281188902553     -0.50247586595998
  N   1.69683958301142     -0.30226856637166     -0.62416847053894
  H   2.42448696824958      0.35699555560318     -0.87494687289567
  H   2.13291693366582     -1.06888108690645     -0.12229893339845
  N   -0.98639809547183     -0.78734722611868     -1.07568277253926
  H   -1.75124705065902     -1.44942824789157     -1.10756598022832
  H   -0.22109827391011     -1.10836328799094     -1.65563127994369
  N   -1.60877584800903     -0.05666249284307      1.11710742949281
  O   -2.37687472763986      0.74847601137239      0.60569144722152
  O   -1.66216655874105     -0.48036749290356      2.26982111742912
