16
Coordinates from ORCA-job run
  C   0.76459371210665      0.23189844014702      0.13096468332314
  C   -0.48088892219499     -0.58749688202738      0.52884288269212
  Br  2.29353804294758     -0.62110153580427      1.12625945988217
  H   -0.61010398579254     -0.59637260866973      1.61242788252768
  N   0.57315466035256      1.59085760554071      0.47764894246733
  H   1.39825857336159      2.14190322689577      0.27920796315229
  H   0.29555073982251      1.72208060300938      1.44309240586829
  N   1.05363442050426      0.04451027505457     -1.26819983073685
  H   0.50413796265079      0.70766714357046     -1.80419871741934
  H   2.03729512191940      0.16560236791246     -1.46482813149430
  N   -0.43026326959019     -1.88121847876205     -0.01180825893328
  H   -1.26399785196325     -2.41891876167564      0.17469986979687
  H   -0.21455068759854     -1.84264756462808     -0.99947732357498
  N   -1.68442100089760      0.24720377910063      0.04144532246488
  O   -2.28499774252885      0.90238445942306      0.88874046397574
  O   -1.95293977309937      0.19364793091308     -1.15581761399177
