16
Coordinates from ORCA-job run
  C   0.76064431469733      0.39916704626239      0.09877668202645
  C   -0.45602166273687     -0.50903272692617      0.41188757685891
  Br  2.27559983290133     -0.60480436139316      1.15103464271727
  H   -0.64580993682860     -0.49571847826212      1.49086182875354
  N   0.81674035846349      1.71243048040567      0.63967721851996
  H   0.05107132423463      2.26092131992496      0.26532987161210
  H   0.76895356390787      1.70336248429528      1.64960476154465
  N   0.93066688440533      0.44235081479347     -1.27192235995708
  H   0.85430334124526     -0.46886088952947     -1.70508356493214
  H   1.74526260326655      0.96822931410526     -1.55402859425346
  N   -0.29575873859547     -1.79484879174101     -0.20925193123998
  H   -1.19053685248604     -2.24963136605330     -0.33405828289857
  H   0.30962902268518     -2.36913954930942      0.36198234595264
  N   -1.67593833122321      0.16006042891984     -0.19073547713724
  O   -2.23743085205904     -0.37516638086229     -1.13954395545961
  O   -2.01237487187774      1.21868065537006      0.33546923789257
