16
Coordinates from ORCA-job run
  C   0.53924978876578      0.41205316727871     -0.24856905134759
  C   -0.54399897344150     -0.57385997824355      0.28053385753167
  Br  -0.16221169267933      1.21330461513434     -1.96953763056597
  H   -0.09523428695358     -1.03245659182949      1.16727034329592
  N   1.65397266014634     -0.42512903960866     -0.66517659088149
  H   2.11342536841105     -0.05726173901725     -1.48646580483548
  H   2.32133608801274     -0.49174753423134      0.09565432328469
  N   0.82634421008986      1.41763491387711      0.68221154693039
  H   1.77557359160498      1.75058048889658      0.69487348441744
  H   0.37116968252266      1.36290870582424      1.58016873159099
  N   -1.00790533457845     -1.57634379341657     -0.61419480387672
  H   -0.19914899445778     -2.02466061384359     -1.02670657538303
  H   -1.56985192965754     -1.14950671088027     -1.34001138547139
  N   -1.72280895035132      0.19122195785459      0.81399344029538
  O   -1.59894102278978      0.66309992444488      1.94661523542240
  O   -2.70197020464413      0.32016222776028      0.09034087959279
