13

C	0.0	0.0	0.0
C	-0.572686	0.056915	-1.395975
Cl	1.766041	0.0	0.0
H	-1.647157	0.20831	-1.260511
H	-0.35233	-0.874272	0.539224
H	-0.150562	0.916358	-1.92226
N	-0.396908	1.19616	0.824845
O	-0.563131	2.25638	0.232191
O	-0.453812	1.031796	2.037262
N	-0.310136	-1.225152	-2.049244
H	0.356655	-1.113089	-2.799041
H	-1.174903	-1.577614	-2.437042
Cl	-3.660071	0.0	0.0
