15

C	-0.38191	-0.00495	-1.46977
C	0.0	0.0	0.0
F	-1.793138	-0.109051	-1.543536
H	1.095766	0.0	0.0
H	0.012795	-0.903297	-1.953435
N	0.03294	1.156049	-2.188783
H	1.005493	1.029431	-2.446425
H	-0.000597	1.925126	-1.524711
N	-0.465947	-1.189847	0.716926
H	0.281724	-1.87069	0.747691
H	-1.256901	-1.595649	0.231485
N	-0.467487	1.249512	0.591281
H	-1.434166	1.122856	0.868574
H	0.06821	1.402005	1.43648
Cl	3.482887	0.0	0.0
