15

C	-0.411183	-0.158406	-1.458767
C	0.0	0.0	0.0
F	-0.395875	1.138957	-2.080399
H	1.101707	0.0	0.0
H	-1.450405	-0.485761	-1.553194
N	0.469677	-1.048473	-2.099292
H	1.436111	-0.81784	-1.88247
H	0.319964	-1.067976	-3.098199
N	-0.461109	-1.163803	0.747481
H	0.273504	-1.468583	1.369512
H	-1.259281	-0.869263	1.299708
N	-0.572833	1.227357	0.559463
H	-0.016858	1.460622	1.377017
H	-0.422789	1.972771	-0.111322
Cl	3.53084	0.0	0.0
