15

C	-0.40427	-0.079528	-1.463102
C	0.0	0.0	0.0
F	-0.135695	1.142904	-2.091398
H	1.103295	0.0	0.0
H	-1.48332	-0.238085	-1.572504
N	0.318382	-1.151294	-2.067846
H	0.162005	-1.162733	-3.067188
H	1.310828	-1.008497	-1.891837
N	-0.524056	-1.20874	0.661501
H	0.033052	-1.344469	1.499919
H	-0.311706	-1.994802	0.054999
N	-0.505525	1.197367	0.642236
H	-1.311362	0.929149	1.195493
H	0.207563	1.565645	1.25819
Cl	3.527994	0.0	0.0
