15

C	-0.50117	0.00422	-1.441845
C	0.0	0.0	0.0
F	-0.15743	-1.203297	-2.04543
H	1.099508	0.0	0.0
H	0.017863	0.774407	-2.029603
N	-1.934779	0.114869	-1.443784
H	-2.271816	0.410001	-2.350151
H	-2.160271	0.819755	-0.748396
N	-0.481172	-1.14895	0.747348
H	-1.373833	-1.437458	0.362303
H	0.177676	-1.905034	0.609252
N	-0.52465	1.221606	0.646834
H	0.134381	1.974391	0.464488
H	-0.473002	1.029822	1.640862
Cl	3.576186	0.0	0.0
