13

C	-0.610519	-0.003407	-1.383962
C	0.0	0.0	0.0
Br	-0.040837	1.558545	-2.374511
H	1.091024	0.0	0.0
H	-0.357784	-0.888885	0.527435
H	-0.349938	0.891208	0.526616
N	-0.151518	-1.279548	-2.104111
O	0.576825	-1.232691	-3.079617
O	-0.608213	-2.299847	-1.587394
N	-2.056578	-0.065585	-1.457843
H	-2.429779	0.808094	-1.107101
H	-2.359631	-0.817216	-0.846768
Br	3.657199	0.0	0.0
