18

C	0.0	0.0	0.0
C	0.026823	-0.073613	-1.571363
Br	2.305926	0.0	0.0
H	0.748768	-0.855	-1.841441
N	-0.528661	1.156479	0.511933
H	-0.425478	1.879481	-0.194912
H	-1.548899	0.933892	0.609734
N	-0.465298	-1.133853	0.651422
H	-0.238243	-1.961794	0.11721
H	-1.498035	-0.984305	0.659884
N	0.409253	1.239669	-2.096736
H	0.277763	1.235445	-3.09944
H	1.394087	1.380795	-1.906446
C	-1.322152	-0.459287	-2.176895
H	-1.24273	-0.364352	-3.268396
H	-1.555392	-1.50185	-1.951581
H	-2.139709	0.128671	-1.765748
F	-2.863954	0.0	0.0
