18

C	0.0	0.0	0.0
C	-0.291343	-0.29281	-1.538748
Br	2.032742	0.0	0.0
H	0.586311	0.077836	-2.06765
N	-0.404762	1.360208	0.285224
H	-0.092143	1.603244	1.221113
H	-1.430859	1.261286	0.302364
N	-0.509477	-1.025442	0.857419
H	-0.353436	-0.733085	1.819153
H	-1.532958	-0.919764	0.679604
N	-1.431418	0.385179	-2.130304
H	-1.249751	1.38172	-2.061261
H	-2.229428	0.209845	-1.501282
C	-0.40054	-1.787938	-1.797859
H	-1.310531	-2.175254	-1.340305
H	-0.46059	-1.942278	-2.878882
H	0.460478	-2.326258	-1.396153
F	-2.888838	0.0	0.0
