18

C	0.0	0.0	0.0
C	-0.207206	-0.044257	-1.570876
Br	2.034491	0.0	0.0
H	0.373824	0.813075	-1.940169
N	-0.398549	1.281679	0.479286
H	-0.616646	1.274191	1.465213
H	0.252046	2.017863	0.24615
N	-0.674486	-1.067888	0.632994
H	-1.693666	-0.817135	0.436125
H	-0.537676	-1.005227	1.638825
N	-1.581447	0.108862	-2.008098
H	-1.971799	-0.822201	-2.114003
H	-2.172477	0.462871	-1.232857
C	0.34189	-1.322768	-2.203644
H	-0.045738	-2.181609	-1.651082
H	-0.023089	-1.366618	-3.233328
H	1.428519	-1.377372	-2.218639
F	-3.113076	0.0	0.0
