18

C	0.0	0.0	0.0
C	-0.420811	-0.017437	-1.481509
Br	1.997989	0.0	0.0
H	-1.512621	-0.06962	-1.367982
N	-0.49501	1.203057	0.603182
H	-0.319144	1.10563	1.599487
H	-1.521191	1.055823	0.468434
N	-0.447284	-1.16694	0.713085
H	-0.238284	-1.965429	0.11945
H	-1.473151	-1.015968	0.662688
N	0.031763	-1.264554	-2.111187
H	-0.542513	-1.433075	-2.928942
H	0.989995	-1.148153	-2.426777
C	-0.036704	1.235286	-2.260406
H	-0.359352	2.131714	-1.730867
H	-0.512142	1.21283	-3.248215
H	1.047549	1.290246	-2.401819
F	-2.84472	0.0	0.0
