18

C	0.0	0.0	0.0
C	0.019179	-0.013337	-1.574592
Br	2.294355	0.0	0.0
H	0.737407	-0.785292	-1.877046
N	-0.53144	1.134993	0.554956
H	-0.417095	1.883834	-0.12176
H	-1.551043	0.909938	0.644505
N	-0.464751	-1.16056	0.609076
H	-0.219898	-1.969069	0.051117
H	-1.497164	-1.017301	0.60814
N	0.406033	1.318064	-2.049383
H	0.203173	1.386795	-3.03919
H	1.404344	1.43161	-1.913392
C	-1.331209	-0.370753	-2.192373
H	-1.577239	-1.415017	-1.992878
H	-2.143637	0.214272	-1.768855
H	-1.245047	-0.24876	-3.281067
F	-2.865905	0.0	0.0
