18

C	0.0	0.0	0.0
C	-0.463692	-0.13451	-1.445972
Br	2.077071	0.0	0.0
H	-1.551148	-0.231383	-1.256802
N	-0.568094	1.154641	0.581014
H	-0.404923	1.113057	1.583408
H	-1.606506	0.881833	0.432793
N	-0.295993	-1.214411	0.686569
H	-0.005539	-1.991155	0.104265
H	0.174528	-1.248459	1.580502
N	0.038109	-1.383357	-2.026764
H	0.947997	-1.216642	-2.444806
H	-0.59641	-1.674446	-2.760341
C	-0.174368	1.102648	-2.281543
H	-0.647649	1.00143	-3.264472
H	0.904697	1.229907	-2.425758
H	-0.564274	1.993797	-1.790662
F	-2.876655	0.0	0.0
