18

C	0.0	0.0	0.0
C	-0.403833	-0.088636	-1.521194
Br	2.060384	0.0	0.0
H	0.494559	0.053649	-2.127449
N	-0.365716	1.247664	0.521127
H	-0.301792	1.9907	-0.155204
H	0.061833	1.43403	1.413091
N	-0.503661	-0.981096	0.899067
H	-1.526924	-0.775854	0.82038
H	-0.319485	-1.909667	0.540461
N	-1.328308	1.013819	-1.808069
H	-1.63973	0.899431	-2.767553
H	-2.137829	0.815993	-1.174717
C	-1.017247	-1.452179	-1.842859
H	-1.225844	-1.50113	-2.917811
H	-1.957702	-1.509009	-1.291764
H	-0.359087	-2.294863	-1.600228
F	-2.962805	0.0	0.0
