12
Coordinates from ORCA-job run
  C   -0.48166492467634      0.21545661992689      0.33861107572519
  C   0.46871480537773     -0.98109042109689      0.24429309398370
  F   -1.42231046052612     -0.14875840224167      1.32153321076128
  H   -0.11914369963309     -1.85004314384564     -0.06828334149790
  H   0.86423220972765     -1.19376090843389      1.23990406519454
  N   -1.06471984557468      0.50525351715229     -0.90807947332459
  H   -1.55457909744695     -0.29372732095282     -1.28974391454553
  H   -1.67520879978889      1.31072083236781     -0.87180468152012
  C   0.21252815837905      1.41221307060574      0.85229107728121
  N   0.76306227702986      2.35683122721042      1.27892807328873
  C   1.56043025110260     -0.75009227698133     -0.69509746810164
  N   2.44865912602920     -0.58200279371091     -1.44255171724489
