12
Coordinates from ORCA-job run
  C   -0.45927028670566      0.20709246526843      0.37308967748976
  C   0.47368761741474     -0.99184738656686      0.18300549215223
  F   -1.34433867917636     -0.18499499255620      1.39631518148708
  H   -0.13910062900258     -1.84560725160281     -0.12364065481904
  H   0.92468152758454     -1.24097346747125      1.14605117692457
  N   -1.11122909017744      0.54355452545973     -0.82666948414558
  H   -1.63050623237966     -0.23782075569491     -1.20560324800540
  H   -1.70938013174298      1.35308998888535     -0.72876696076349
  C   0.27386366263454      1.38038686060370      0.88658297642496
  N   0.85690464460947      2.30495218785762      1.31409245756660
  C   1.51075451932538     -0.73672746142065     -0.81046449316763
  N   2.35493307761600     -0.54910471276216     -1.60299212114406
