12
Coordinates from ORCA-job run
  C   -0.31970711489204      0.25668361930963      0.37529521466069
  C   1.03853934560575     -0.32925935589034     -0.02830630261070
  F   -0.85746655919587     -0.60833466688725      1.34200990329320
  H   1.63051148798596     -0.49959597602692      0.87333197070904
  H   1.56246774380351      0.38433155240589     -0.66776164098750
  N   -1.15834928157006      0.42962334222071     -0.74381276077836
  H   -1.32032914167133     -0.44986241846269     -1.22083098926749
  H   -2.04187667976512      0.85162478528633     -0.48852415773440
  C   -0.11356286377730      1.55599087928994      1.04648881637922
  N   0.07227375063942      2.58202557096171      1.58481900161763
  C   0.85013770682311     -1.58952058587206     -0.74168439373775
  N   0.65836160601398     -2.58570674633493     -1.33102466154356
