18

C	0.0	0.0	0.0
C	-0.35074	-0.21612	-1.511776
Cl	1.802052	0.0	0.0
H	0.313876	0.457213	-2.06508
C	-0.499443	1.360593	0.44737
H	-0.144017	1.575501	1.458053
H	-0.139753	2.150767	-0.21906
H	-1.59311	1.347211	0.453086
C	-0.529312	-1.102843	0.89138
H	-0.248659	-0.913906	1.930982
H	-0.137338	-2.077401	0.595598
H	-1.622608	-1.107421	0.823271
N	-1.696524	0.044203	-1.959621
H	-2.420987	-0.349068	-1.35524
H	-1.867049	1.041482	-1.954669
C	0.043368	-1.580911	-1.920243
N	0.368731	-2.653742	-2.268721
Cl	-4.201911	0.0	0.0
