18

C	0.0	0.0	0.0
C	-0.513442	0.196574	-1.43309
Cl	1.806104	0.0	0.0
H	-1.611381	0.161437	-1.33313
C	-0.470893	1.139631	0.887374
H	-0.134925	0.969541	1.912679
H	-1.564993	1.149894	0.865326
H	-0.080372	2.100409	0.54662
C	-0.474358	-1.340322	0.534532
H	-0.086613	-1.491437	1.544493
H	-0.141548	-2.150302	-0.112225
H	-1.567361	-1.31749	0.562032
N	-0.091733	-0.882297	-2.320121
H	0.876035	-0.739901	-2.589857
H	-0.660618	-0.862031	-3.159021
C	-0.147223	1.527365	-1.957603
N	0.134559	2.558026	-2.446726
Cl	-3.812249	0.0	0.0
