18

C	0.0	0.0	0.0
C	-0.346646	-0.016904	-1.528854
Cl	1.802548	0.0	0.0
H	0.30619	0.738431	-1.982917
C	-0.506068	1.287626	0.62112
H	-0.143445	1.376886	1.647807
H	-1.599699	1.261735	0.633971
H	-0.161984	2.158887	0.05601
C	-0.527737	-1.212112	0.738415
H	-0.138608	-2.138659	0.312821
H	-0.242002	-1.163139	1.79213
H	-1.621261	-1.206836	0.675835
N	-1.697601	0.279331	-1.938711
H	-2.410808	-0.212985	-1.398176
H	-1.890674	1.260421	-1.782554
C	0.064859	-1.308804	-2.113428
N	0.38411	-2.338496	-2.578614
Cl	-4.198342	0.0	0.0
