18

C	0.0	0.0	0.0
C	-0.515712	-0.198983	-1.442478
Cl	1.802336	0.0	0.0
H	-1.609049	-0.099081	-1.350612
C	-0.467257	1.342121	0.538021
H	-0.098244	1.485596	1.556332
H	-0.100515	2.16214	-0.082474
H	-1.561018	1.339135	0.543103
C	-0.478284	-1.134553	0.888845
H	-0.081295	-2.096274	0.558535
H	-1.571945	-1.145627	0.862325
H	-0.144307	-0.962859	1.914452
N	-0.228279	-1.478949	-2.074167
H	0.727755	-1.752429	-1.873541
H	-0.855919	-2.174098	-1.690588
C	-0.033234	0.880527	-2.318848
N	0.363715	1.735468	-3.019469
Cl	-3.782568	0.0	0.0
