12
Coordinates from ORCA-job run
  C   -0.59453603452636     -0.84327120211375     -0.26854270828242
  C   0.15207811601436      0.50180713171440     -0.18516601676425
  Cl  -1.32382119850920     -1.05629611559225     -1.87935691218108
  H   -0.58466041991514      1.29419060568445     -0.34801037343373
  H   0.11513271386594     -1.66246706132511     -0.12556172666111
  C   -1.62225847021317     -0.90491558024613      0.76524343832886
  N   -2.46841328020552     -0.95858844899040      1.57723812241269
  C   1.16171136772339      0.58381770658553     -1.25761348772729
  N   2.02875582543545      0.65418333308315     -2.04708253922039
  N   0.70099162939341      0.63510960038986      1.15051936733384
  H   1.58555587783092      0.14911727950614      1.23169398383392
  H   0.84846387310592      1.60731275130412      1.38663885236097
