12
Coordinates from ORCA-job run
  C   -0.93116765966470     -0.50818425801048      0.09821400213116
  C   0.22961352912830      0.41434059490244     -0.30014016060541
  Cl  -0.91226824333019     -0.82167696096306      1.85364730859379
  H   0.16176172807860      0.53899183111884     -1.38678341314644
  H   -1.85743230077780      0.02803185422182     -0.11827949859821
  C   -0.88785564111921     -1.76344355886985     -0.64352874889217
  N   -0.84608640656789     -2.75256790539155     -1.27528891709768
  C   1.52607950564804     -0.22640165854445     -0.00245263665333
  N   2.57992167083369     -0.67750161382828      0.25406419065834
  N   0.03520760440042      1.71628595260153      0.30987456606229
  H   0.22206041621717      1.66749649841228      1.30472325531336
  H   0.67916579715359      2.38562922435075     -0.09404994776571
