12
Coordinates from ORCA-job run
  C   -0.87005805874812     -0.51071058652057     -0.44185458631504
  C   0.28210866094651      0.50465982085645     -0.34358439170229
  Cl  -2.42556207293636      0.35276788308567     -0.26959053946647
  H   0.11026956769308      1.24829592396618     -1.13739529528849
  H   -0.87653146101052     -0.96259521602655     -1.43627146581370
  C   -0.75347323100256     -1.55553715560699      0.56892658933905
  N   -0.66239402420103     -2.43057373566126      1.34636515332592
  C   1.53505385463964     -0.19300869806630     -0.65522783978741
  N   2.53486003289395     -0.74586909421478     -0.92462750297483
  N   0.34289739206891      1.04993730510405      1.00022388985465
  H   1.21020559465663      1.55109606059704      1.14448187719560
  H   -0.42737625500011      1.69053749248707      1.14755411163302
