12
Coordinates from ORCA-job run
  C   -0.89436318009785     -0.54688364113455     -0.46741455543411
  C   0.17816286770881      0.55750770275199     -0.38232752725577
  Cl  -2.51975796674807      0.16960276211704     -0.42188530431175
  H   -0.07733802059313      1.30316448251689     -1.14111316095959
  H   -0.80231679564173     -1.07389860565761     -1.41987100207030
  C   -0.72028799225161     -1.49683341100453      0.62767977594798
  N   -0.53329627381476     -2.23469004350152      1.52207680884586
  C   1.48093439726436     -0.03951145558997     -0.74726049314567
  N   2.52973664109297     -0.50585672076294     -0.99962893332324
  N   0.14507173121786      1.19400157266705      0.91513382229827
  H   0.56620506004158      0.60050422656911      1.62054819296795
  H   0.64724953182158      2.07189313102904      0.89506237644037
