12
Coordinates from ORCA-job run
  C   -0.61412159976918     -0.81416456528850     -0.33654262667714
  C   0.23425750221298      0.46822586525445     -0.21520393090488
  Cl  -1.43970694311561     -0.87902432578868     -1.91096991173565
  H   -0.42413517963830      1.32361152451091     -0.42551285932380
  H   0.04875710839980     -1.67780447746048     -0.26106651935690
  C   -1.58684973221194     -0.84416777304116      0.75085703375619
  N   -2.35056520665668     -0.81416300523149      1.64253378435574
  C   1.28382315684593      0.45019494271752     -1.23836515588770
  N   2.14529588057621      0.44699910050089     -2.03530049680385
  N   0.84174247862121      0.46836810343138      1.10900803474056
  H   1.67330183640884      1.04433145289268      1.12750186707016
  H   0.18620069832674      0.82859315750249      1.79206078076726
