12
Coordinates from ORCA-job run
  C   -0.97515317591864     -0.41647423698591      0.10297574066343
  C   0.29246305206054      0.31740851834205     -0.35786326732690
  Cl  -1.15782641302225     -0.30640787615595      1.87333939665763
  H   0.34372682606661      0.18511687343760     -1.44453932951049
  H   -1.82684881414967      0.10631046399385     -0.33700060100679
  C   -0.96295760241375     -1.81171592590033     -0.32167924028353
  N   -0.94184726860780     -2.92313671745898     -0.70039337116082
  C   1.49494723903550     -0.30847358350128      0.22742794477854
  N   2.47739188505172     -0.74536494452872      0.70049112230897
  N   0.14703035242170      1.73519673204061     -0.08843003788819
  H   0.87793659680423      2.25368939801368     -0.56000662863851
  H   0.23113732267180      1.91285129870340      0.90567827140665
