13

C	-0.161875	0.151192	0.018459
C	-0.604257	0.160574	-1.466082
Br	1.641817	-0.586935	0.215718
H	-1.629736	0.54765	-1.433159
H	-0.854828	-0.528349	0.532658
C	-0.190682	1.476647	0.613795
N	-0.232938	2.55504	1.080116
N	-0.665129	-1.131297	-2.107871
H	-1.396857	-1.649391	-1.617728
H	0.217612	-1.613815	-1.981269
C	0.229344	1.08925	-2.246447
N	0.896887	1.825139	-2.872202
Cl	-2.908765	-1.614314	0.191499
