13
Coordinates from ORCA-job run
  C   0.64216433683494     -0.02214567103391     -0.11131055181887
  C   -0.38116335279794     -0.44734773362070      0.65872872527966
  H   -0.19087909749290     -1.24862702967785      1.36715591830300
  N   0.47801864048749      0.92842186605185     -1.12819845705821
  H   1.34409456527376      1.21596296548061     -1.55403712436805
  H   -0.24690752155239      0.72093877594240     -1.79521717303250
  N   1.99291408860995     -0.37793173368955      0.09045175060488
  H   2.11406587912632     -0.93157463705787      0.92641357264343
  H   2.39006435237986     -0.85761362802293     -0.70796799909922
  C   -1.76107589762723      0.13502900951619      0.57722309984378
  H   -2.24236621843911      0.14457022619339      1.55845669541502
  H   -1.71636400030505      1.16559633288212      0.21452500883834
  H   -2.42256577449771     -0.42527874296373     -0.09522346555126
