13
Coordinates from ORCA-job run
  C   0.56865721743991      0.27405193433336     -0.28642327083101
  C   -0.59350604562431      0.50411821491579      0.35997689279370
  H   -0.84659487743003      1.53478057061439      0.59216227346955
  N   1.36457651071341      1.27522413500941     -0.87121960758101
  H   2.32586750227119      1.21138628287766     -0.56262247513738
  H   0.99452515484593      2.20045412003133     -0.71002819932718
  N   1.15174623115724     -0.98539281395961     -0.47968176531348
  H   1.43393758501882     -1.12405097193913     -1.44063381735651
  H   0.58273626971874     -1.74811217195900     -0.14640372566599
  C   -1.54555505951320     -0.57116915171418      0.80114267003726
  H   -1.31165584187139     -0.96956280160742      1.79540768815665
  H   -2.56725610774388     -0.18728662151427      0.84454442572669
  H   -1.55747853898244     -1.41544072508834      0.10377891102872
