13
Coordinates from ORCA-job run
  C   0.57501873985732     -0.19926339752442     -0.23516486172093
  C   -0.28673630915910     -0.22896621833348      0.80288518171340
  H   0.05583195561993     -0.65480508643446      1.74174609532543
  N   1.80832076577185     -0.88434120414276     -0.26727503558390
  H   1.93950524369960     -1.45893288391573      0.55292538851219
  H   2.59549408262574     -0.25858328432136     -0.38610202321365
  N   0.26891928868799      0.42320913379416     -1.45302434246764
  H   -0.04346149131428      1.37743096207787     -1.38017462780714
  H   0.96781625803100      0.28346024083633     -2.16441835276358
  C   -1.68811021570894      0.29872820894130      0.71623938741582
  H   -2.04597972687606      0.25752858949370     -0.31616279086466
  H   -1.77581023915664      1.33783664288049      1.05721969627525
  H   -2.36980835207841     -0.29430170335164      1.33130628517942
