13
Coordinates from ORCA-job run
  C   0.50655362317958      0.23917493043764     -0.33315634428858
  C   -0.57058142027793      0.51712104735135      0.43066901461533
  H   -0.69431824433725      1.53458432381416      0.79068365419860
  N   1.36148341740240      1.21441575709002     -0.88969726291554
  H   2.31871620559140      1.11599238850076     -0.57467006845819
  H   1.02884929153411      2.15094821692295     -0.71018267926501
  N   0.81611880968911     -1.05975500433485     -0.75929149417968
  H   1.59199320552565     -1.09840568437284     -1.40005443812948
  H   0.86502997599483     -1.75032907230504     -0.02848157918533
  C   -1.59807619711916     -0.51137006106299      0.79975981853555
  H   -2.59614031444445     -0.06876246948211      0.85128545085625
  H   -1.62213618217479     -1.30816702578917      0.05141723764073
  H   -1.40649217056350     -0.97644734676989      1.77471869057533
