13
Coordinates from ORCA-job run
  C   0.59457966059562     -0.17010169454718     -0.20588931912327
  C   -0.37906631833948     -0.36592844831781      0.70765550946125
  H   -0.15025855687769     -0.97538545802957      1.57734608890765
  N   0.43775695071366      0.68348750182318     -1.30653881665244
  H   1.21078507931149      0.65432027322948     -1.95123244589274
  H   0.13588388492028      1.61784474334044     -1.08468596828368
  N   1.81363502717112     -0.88056618393772     -0.23556950078406
  H   2.61854293955235     -0.27333562886589     -0.14273406155394
  H   1.84117986001757     -1.60724879602004      0.46524335853583
  C   -1.75474592940703      0.21654457603380      0.57349473102529
  H   -1.86893749183314      1.17006319736712      1.10388109297901
  H   -2.51000095147888     -0.46241221856505      0.97759446178463
  H   -1.99035415434588      0.39271813648925     -0.47956513040354
