13
Coordinates from ORCA-job run
  C   0.54894166767012      0.27709419670003     -0.22118384469749
  C   -0.54019392612350      0.54809316713557      0.53028649881834
  H   -0.60992342947214      1.53606069635923      0.97341067968466
  N   1.49625113329896      1.25171303447682     -0.57390368155089
  H   1.08367059719729      2.09780750949299     -0.92913442144498
  H   2.24777182316052      0.92630405797877     -1.15914588492020
  N   0.77575951767108     -1.01603275341530     -0.73000660157844
  H   0.61343043422202     -1.74783762741191     -0.05699211906193
  H   1.65576357002177     -1.13296031082481     -1.20560093088405
  C   -1.60234921149853     -0.47841752760979      0.79372284312150
  H   -2.55866818501991     -0.00660347391633      1.02766099819191
  H   -1.74241565358825     -1.11283313148892     -0.08668803099272
  H   -1.36703833753943     -1.14038783747635      1.63857449531429
