13
Coordinates from ORCA-job run
  C   0.59224768868118      0.19754665942492     -0.18882075219692
  C   -0.60171714394191      0.55639956552440      0.32756684270949
  H   -0.82396415123233      1.61606167894143      0.41626327591532
  N   0.93358803622423     -1.13743644594066     -0.44551689016563
  H   1.88885203544853     -1.25949682572208     -0.73990792129922
  H   0.27282538768607     -1.64752541700238     -1.00825960669732
  N   1.66518011907935      1.08744431537962     -0.40850047969777
  H   1.94280419409359      1.12758869880502     -1.38139558198533
  H   1.45996945321766      2.01463092986571     -0.06470635301066
  C   -1.62888467866797     -0.43915998702009      0.77879587251856
  H   -2.36870035896429     -0.67229398730872      0.00292917871516
  H   -2.18427975240631     -0.06631169176222      1.64318348701700
  H   -1.14592082921780     -1.37644749318496      1.06836892817731
