13
Coordinates from ORCA-job run
  C   0.63773563279135     -0.12639742339794     -0.12496917519793
  C   -0.42775651097391     -0.49495596329709      0.61623833547072
  H   -0.30217574486110     -1.31691880347991      1.31496998986699
  N   0.59245823274633      0.96376193868871     -1.00974335423608
  H   0.07046119175638      1.74224805723053     -0.64065496447364
  H   1.49673541921939      1.26584165336241     -1.33715747274101
  N   1.86357339314808     -0.80521893800447     -0.07918634821106
  H   2.50448856102560     -0.58229114486749     -0.82275248181736
  H   1.76462245174484     -1.79951095607865      0.03723202138876
  C   -1.77159086679862      0.16199762345286      0.53152918827786
  H   -1.92412576429881      0.94581077951393      1.28569685288440
  H   -2.56870430240325     -0.57161123561491      0.67762069490668
  H   -1.93672169309629      0.61724441249202     -0.44982328611833
