13
Coordinates from ORCA-job run
  C   0.60118476503648      0.29648383828856     -0.18218104119938
  C   -0.53861333331896      0.51918395471493      0.50567714953260
  H   -0.70346720947120      1.52819197798142      0.87152624354437
  N   1.45981862632238      1.33989457697862     -0.56544812609574
  H   1.02512959937340      2.07066039137537     -1.10248622745818
  H   2.33370520614944      1.02374386455932     -0.95287972671850
  N   1.11014968686157     -0.97415979092290     -0.50695683768557
  H   0.57180332041081     -1.73055374176309     -0.11263515807007
  H   1.24558624396301     -1.10644498658048     -1.50095092458998
  C   -1.56200093239244     -0.53258046589532      0.82484069862544
  H   -1.58922758047960     -1.31977640195434      0.06464657245040
  H   -2.56346004094285     -0.09730588119063      0.86431603387615
  H   -1.38860835151204     -1.01633733559146      1.79353134378844
