13
Coordinates from ORCA-job run
  C   0.68168812156302     -0.11619460112241     -0.06565789894634
  C   -0.36712320901579     -0.32706613902940      0.75736936281266
  H   -0.20041894900387     -0.97753615993059      1.61071173472212
  N   0.73874731197740      0.87921741643770     -1.05808717012731
  H   0.91334842822414      0.50898892053507     -1.98347077752075
  H   -0.06693747911887      1.48611990710437     -1.05884479512747
  N   1.88566946297965     -0.82859373255364      0.05943116446699
  H   2.62523747547248     -0.48111679665680     -0.52883196877509
  H   1.79030018757751     -1.82940616546645      0.03279606391074
  C   -1.72119618142630      0.30102847062010      0.59179016356818
  H   -1.82392417536009      1.24402549655809      1.14193877706455
  H   -1.95043808799947      0.50681356138764     -0.45864322949877
  H   -2.50395290586982     -0.36628017788368      0.96049857345049
