13
Coordinates from ORCA-job run
  C   0.60499360830773      0.23928216907641     -0.23953976488987
  C   -0.66139402485044      0.53462124763421      0.12193549022317
  H   -0.98569313630275      1.56725575310503      0.02912093336302
  N   1.12234824039326     -1.05442689610214     -0.38465333238426
  H   0.47299560380562     -1.78049638316583     -0.12469356172257
  H   2.00982176420788     -1.16132359771788      0.08758635646777
  N   1.59715434169012      1.19640263132946     -0.51785877284459
  H   1.24291196522893      2.14027799527823     -0.46636560856464
  H   2.03614495626247      1.02353489634191     -1.41279520588427
  C   -1.65650272626987     -0.47570647782104      0.61856817260540
  H   -1.17677348100357     -1.26036613615937      1.21317585429227
  H   -2.39711336126351     -0.00131518658925      1.26619659225852
  H   -2.20889375020588     -0.96774001520975     -0.19067715291993
