13
Coordinates from ORCA-job run
  C   0.47974363185016      0.36109866008445     -0.34888940382043
  C   -0.48485169832368      0.48649871809466      0.58695374897490
  H   -0.55347339136793      1.44133026041869      1.09938484050077
  N   1.46336469619764      1.34442035344010     -0.54569698996235
  H   1.99351042808509      1.58185237095961      0.27533779141438
  H   2.03529560318341      1.18806943183514     -1.35949442144053
  N   0.56099549401348     -0.68587946804777     -1.28464120189897
  H   1.43762948667851     -1.18957538101762     -1.24544410589664
  H   -0.22195069037988     -1.32025782867268     -1.24095371189714
  C   -1.47719164823093     -0.58501788054834      0.93699605073289
  H   -1.75852833471725     -0.52202562439195      1.99096973070909
  H   -1.06841467423647     -1.58802712990650      0.77836485258963
  H   -2.40512890275216     -0.51248648224778      0.35711281999438
