13
Coordinates from ORCA-job run
  C   0.62040995123310     -0.25850799713289     -0.17423839198384
  C   -0.42547902957330     -0.45057472400612      0.65711984363958
  H   -0.31187575449215     -1.21078422023868      1.42409128225234
  N   0.57282332372565      0.47997929817896     -1.37022206423019
  H   -0.35293042693071      0.80912021431393     -1.59824220508330
  H   1.24373155115352      1.23679244370085     -1.39940505316859
  N   1.86441366852027     -0.87747821992249      0.03363764865587
  H   2.51078219982252     -0.75177943622535     -0.72815714850621
  H   2.27437081013044     -0.70787495910849      0.93630659592512
  C   -1.73333173808883      0.28173713156799      0.56529501810210
  H   -1.60994048362029      1.28684471708158      0.14948308546241
  H   -2.47312574812461     -0.24147985882846     -0.05232579612968
  H   -2.17884832375561      0.40300561061915      1.55565718506439
