13
Coordinates from ORCA-job run
  C   0.58774612388098     -0.16611357490798     -0.22873412574670
  C   -0.37286440256293     -0.41115977898172      0.68679289057156
  H   -0.13904019788389     -1.08376509866772      1.50712710258533
  N   1.79284881571929     -0.89308803698281     -0.33340618183054
  H   2.61016635523372     -0.30745959678038     -0.21369003191635
  H   1.82054499604940     -1.66740298400219      0.31445774433306
  N   0.42552337691886      0.76663325070423     -1.26220459919066
  H   0.14194220858192      1.68648359464737     -0.96743819206786
  H   1.18666076566041      0.77433334772652     -1.92147697737256
  C   -1.73866629397627      0.20529684028643      0.62122645307406
  H   -1.82250677665904      1.12492219055201      1.21353924309915
  H   -2.49902082144890     -0.48378720964178      0.99765911083681
  H   -1.99333414951354      0.45310705604801     -0.41285243637531
