13
Coordinates from ORCA-job run
  C   0.64500003709486     -0.15686609314115     -0.19957769129887
  C   -0.34906861493039     -0.37788672881485      0.68622809402742
  H   -0.17460660732489     -1.11094723588036      1.46886980476146
  N   1.95874890204806     -0.63788556295130     -0.05519663700062
  H   2.26694033702192     -1.12707835120288     -0.88537725609982
  H   2.06574813177520     -1.21645132736335      0.76511097550395
  N   0.52666273079156      0.58416559626626     -1.38305663625486
  H   -0.37620392357972      1.01801731252612     -1.49835377395140
  H   1.27634745421854      1.25571393819698     -1.48038681249710
  C   -1.68885750170387      0.30061341870377      0.64560379373846
  H   -2.11283054977330      0.37717445991114      1.64951248342145
  H   -1.61602225744951      1.32235023141584      0.25841748713001
  H   -2.42185813818846     -0.23291965766621      0.02920616851991
