13
Coordinates from ORCA-job run
  C   0.63343447525919     -0.18415625425682     -0.21240824741205
  C   -0.28277530503017     -0.23054935534402      0.77753110816991
  H   -0.01331498678813     -0.75243000268222      1.69139171832603
  N   1.81931660419087     -0.94010889717139     -0.23463690370074
  H   1.93696870058746     -1.49020243839460      0.60360897558758
  H   2.62796714215702     -0.35463995301223     -0.39846306155122
  N   0.54204934731691      0.61101995792508     -1.36217235292699
  H   -0.32676923504077      1.11727267508579     -1.43525944178567
  H   0.73690218717735      0.08218722722841     -2.20152083193061
  C   -1.63890843016452      0.41250554152924      0.70587136476787
  H   -1.63472285282176      1.45977349537843      1.03026430359315
  H   -2.04897390565929      0.38470383495744     -0.30921511179419
  H   -2.35017374118417     -0.11537583124312      1.34500848065694
