13
Coordinates from ORCA-job run
  C   0.64329373674120     -0.02941837539273     -0.10106791406257
  C   -0.39541272033916     -0.43351966337902      0.65969488488657
  H   -0.22240515848305     -1.22417829257620      1.38434485634450
  N   1.98833826500854     -0.38984814328941      0.12902412762061
  H   2.09208040746384     -0.92977119984318      0.97627919602662
  H   2.39463781816903     -0.88625321387366     -0.65448199372435
  N   0.50262356828033      0.90441292588133     -1.13686136582684
  H   1.37783457929386      1.18055231025728     -1.55134558280664
  H   -0.21184932304951      0.69049447133864     -1.81297743950198
  C   -1.76932456986208      0.15757137854704      0.54646993070258
  H   -2.26361029666869      0.19144855198471      1.52074077655005
  H   -2.42621458811946     -0.41146067515264     -0.12308143720828
  H   -1.71099171843486      1.17996992549785      0.16326196099972
