14

C	-0.548882	-0.007062	-1.384905
C	0.0	0.0	0.0
Br	0.063945	1.624303	-2.278392
H	1.089686	0.0	0.0
H	-0.360611	0.857366	0.567001
C	-0.122319	-1.150313	-2.181904
N	0.282785	-2.057894	-2.810264
N	-2.092216	0.012815	-1.36459
O	-2.661978	-0.414757	-2.368485
O	-2.586533	0.782822	-0.543012
N	-0.387921	-1.243052	0.693999
O	0.003241	-1.338632	1.87026
O	-1.344595	-1.894364	0.23914
Br	2.932805	0.0	0.0
