14

C	-0.471781	0.006008	-1.431231
C	0.0	0.0	0.0
Br	-2.450239	0.022261	-1.525624
H	1.091899	0.0	0.0
H	-0.386193	-0.870204	0.520664
C	0.02326	1.080103	-2.271753
N	0.41833	1.954155	-2.952627
N	-0.05609	-1.329625	-2.081244
O	-0.019399	-1.345331	-3.302035
O	0.041302	-2.295583	-1.323714
N	-0.472294	1.201211	0.717175
O	-1.112552	1.014691	1.75264
O	-0.180464	2.304267	0.243952
Br	3.263925	0.0	0.0
