14

C	-0.4875	-0.006966	-1.427197
C	0.0	0.0	0.0
Br	-2.424037	-0.069549	-1.593198
H	1.090785	0.0	0.0
H	-0.407755	0.85721	0.534004
C	0.006909	1.184809	-2.10592
N	0.409374	2.169419	-2.609562
N	0.148613	-1.237561	-2.163201
O	1.351038	-1.110784	-2.330461
O	-0.554431	-2.192267	-2.439135
N	-0.477793	-1.222048	0.67662
O	-1.355364	-1.103469	1.540017
O	0.132385	-2.262278	0.413333
Br	2.747418	0.0	0.0
