14

C	-0.051879	-0.015312	0.024931
C	-0.625157	-0.509251	-1.309815
Br	1.904954	0.164513	-0.078736
H	-1.73175	-0.429747	-1.145935
H	-0.436843	0.993139	0.178675
C	-0.437033	-0.921657	1.174538
H	-0.023583	-1.923679	1.041119
H	-1.528886	-0.962149	1.205866
H	-0.068066	-0.512306	2.116473
C	-0.251617	-1.89199	-1.599805
N	0.036397	-3.010719	-1.813028
C	-0.274805	0.357081	-2.433519
N	-0.005243	1.058013	-3.33643
Cl	-3.489798	0.336051	-0.178758
