14

C	-0.056964	-0.015262	0.023646
C	-0.617461	-0.386688	-1.355681
Br	1.898733	0.190358	-0.049449
H	-1.72532	-0.330009	-1.193495
H	-0.452637	0.970701	0.268685
C	-0.440224	-1.02893	1.080606
H	-0.083625	-0.703874	2.059445
H	-1.531687	-1.084545	1.098391
H	-0.013151	-2.009324	0.858825
C	-0.231724	-1.734055	-1.769885
N	0.063737	-2.827836	-2.080232
C	-0.265451	0.582731	-2.391342
N	0.00577	1.365913	-3.223366
Cl	-3.489529	0.339265	-0.160798
