16

C	0.0	0.0	0.0
C	-0.55596	0.094561	-1.410155
Cl	1.779272	0.0	0.0
H	-1.652377	-0.015704	-1.328542
H	-0.360797	-0.938292	0.415402
C	-0.448152	1.200635	0.829679
H	-1.535088	1.284408	0.808426
H	-0.110242	1.064235	1.858909
H	0.020894	2.110706	0.443599
N	-0.025183	-0.989743	-2.29991
O	0.014778	-2.107921	-1.799456
O	0.278687	-0.70453	-3.453529
N	-0.280292	1.409215	-2.071409
O	-1.264066	2.057602	-2.422737
O	0.892046	1.758862	-2.199161
Cl	-3.556589	0.0	0.0
