16

C	0.0	0.0	0.0
C	-0.303824	-0.194642	-1.498137
Cl	1.786996	0.0	0.0
H	0.47701	-0.823518	-1.919303
H	-0.314593	-0.931735	0.470628
C	-0.539166	1.192734	0.758693
H	-0.291724	1.052904	1.814211
H	-0.087256	2.118053	0.410638
H	-1.627095	1.229576	0.649396
N	-0.265587	1.02287	-2.370487
O	0.051547	0.799761	-3.538971
O	-0.554677	2.117453	-1.903237
N	-1.544081	-0.992883	-1.860563
O	-2.30483	-0.543048	-2.694748
O	-1.549578	-2.10824	-1.361074
Cl	-3.747048	0.0	0.0
