16

C	0.0	0.0	0.0
C	-0.619433	-0.023126	-1.379358
Cl	1.780243	0.0	0.0
H	-1.707449	-0.17513	-1.23839
H	-0.305257	-0.950306	0.440262
C	-0.513726	1.146819	0.852421
H	-0.133219	2.098197	0.483189
H	-1.605478	1.132112	0.834842
H	-0.168928	1.00659	1.878823
N	-0.07016	-1.170405	-2.176112
O	-0.270334	-2.277013	-1.688608
O	0.546718	-0.935967	-3.210217
N	-0.456776	1.205318	-2.210786
O	-1.222437	1.290124	-3.166053
O	0.409603	2.022465	-1.908636
Cl	-3.641478	0.0	0.0
