16

C	0.0	0.0	0.0
C	-0.608332	-0.061653	-1.383996
Cl	1.782907	0.0	0.0
H	-1.697008	0.096894	-1.269438
H	-0.320448	-0.912319	0.501215
C	-0.480792	1.222279	0.766317
H	-0.112204	1.162366	1.792567
H	-0.104661	2.140113	0.312776
H	-1.571554	1.225006	0.769477
N	-0.450049	-1.388095	-2.063933
O	0.039359	-2.318106	-1.430152
O	-0.885999	-1.445468	-3.208658
N	-0.042192	0.97549	-2.294434
O	-0.552588	2.090029	-2.216663
O	0.908918	0.666037	-3.006451
Cl	-3.607017	0.0	0.0
