16

C	0.0	0.0	0.0
C	-0.353589	-0.229438	-1.478752
Cl	1.779523	0.0	0.0
H	0.448479	-0.792774	-1.949776
H	-0.314321	-0.913036	0.50708
C	-0.575494	1.210447	0.692121
H	-0.195964	2.138927	0.265136
H	-1.664767	1.166373	0.602928
H	-0.295422	1.168592	1.747028
N	-0.455088	1.009446	-2.303348
O	0.298844	1.060964	-3.278869
O	-1.26495	1.865999	-1.972823
N	-1.548898	-1.119878	-1.76397
O	-1.580664	-2.139665	-1.094747
O	-2.216228	-0.850297	-2.747344
Cl	-3.791608	0.0	0.0
