16

C	0.0	0.0	0.0
C	-0.244055	-0.084531	-1.516511
Cl	1.780306	0.0	0.0
H	0.426952	0.603219	-2.025374
H	-0.343953	-0.917206	0.473219
C	-0.574102	1.234561	0.649288
H	-0.25569	1.270395	1.693421
H	-0.240364	2.140689	0.141433
H	-1.665806	1.157906	0.605466
N	-1.589653	0.260075	-2.120686
O	-1.830407	1.458803	-2.11154
O	-2.224082	-0.629195	-2.662239
N	0.120831	-1.443043	-2.045808
O	-0.09088	-2.420678	-1.338951
O	0.590455	-1.457487	-3.181901
Cl	-3.800412	0.0	0.0
