16
Coordinates from ORCA-job run
  C   -0.56669595247214      0.11755628915957     -0.16391757006307
  C   0.87966494424198     -0.42501037749967     -0.09880544679906
  F   -0.48618354000525      1.33014489736806     -0.86931278829977
  H   0.89453683888714     -1.31652804159566      0.52926777229962
  C   -1.14666368439570      0.42400068542407      1.19850724349536
  H   -2.17276003412030      0.77352873149991      1.06393282164572
  H   -1.15008969003112     -0.46527518730090      1.82873114058596
  H   -0.58256647135997      1.21313550714174      1.69169391870928
  N   -1.34082917919231     -0.85193105489393     -0.84615651177800
  H   -1.06729037798292     -0.93059744920426     -1.81895301664569
  H   -2.32633963696430     -0.62882740927259     -0.79636083955917
  N   1.77811671267110      0.58296866532240      0.57182194791444
  O   1.82648698925881      0.50450469906286      1.79668493236116
  O   2.34850021794246      1.40261997562683     -0.13584695547415
  C   1.38370511687519     -0.72328123847167     -1.43344121127164
  N   1.72940774664736     -1.00700869236675     -2.51884543712097
