16
Coordinates from ORCA-job run
  C   -0.55569979205697      0.18340132336261     -0.13990684871938
  C   0.83687872502120     -0.48798227715703     -0.15678899561083
  F   -0.37296842735812      1.45071862995490     -0.71890011136773
  H   0.77946279103900     -1.43484759541264      0.38138594566041
  C   -1.09399281255534      0.39712603873043      1.25694081372473
  H   -2.08385154951032      0.85205028138817      1.17716797885981
  H   -0.45491412920248      1.07413000893193      1.82043656398001
  H   -1.17622278125402     -0.54980754796297      1.79061296336594
  N   -1.41973074455593     -0.63843886565321     -0.90277286884917
  H   -1.16424064098730     -0.64118971553344     -1.88354959625725
  H   -2.38121173555473     -0.33703529118870     -0.81175809463054
  N   1.82970560284674      0.36597012410180      0.59080165640431
  O   2.46562116488369      1.19593597861639     -0.04534741970406
  O   1.88365201060153      0.16392860878554      1.80119696569508
  C   1.29814652158753     -0.69562795882272     -1.52364246290369
  N   1.60736579705552     -0.89833174214105     -2.63787648964764
