16
Coordinates from ORCA-job run
  C   -0.58609350942095      0.22713055958751     -0.23035082614905
  C   0.81548924786586     -0.44350472203499     -0.10178517476251
  F   -0.36722827601901      1.36702916573062     -0.98599220811722
  H   0.72823364705205     -1.33788234210217      0.51813144084403
  C   -1.15424281248501      0.63379391685182      1.11040129260465
  H   -2.15441913510315      1.03137761850536      0.93696510075740
  H   -0.54057909264015      1.40754056829792      1.56853650359715
  H   -1.21157800966536     -0.21371399394653      1.79645797067844
  N   -1.51088516516954     -0.58745712990295     -0.94337909195191
  H   -1.91015465890702     -1.32015270469261     -0.37532148631259
  H   -1.13455873700783     -0.95873489058810     -1.80648284950102
  N   1.77595767391834      0.46452643487568      0.62254986485754
  O   2.42166559510112      1.26155721307173     -0.04562971254836
  O   1.78622668021057      0.34619262805314      1.84544216464539
  C   1.34250045654627     -0.77932029446777     -1.41765685224885
  N   1.69766609572382     -1.09638202723866     -2.49088613639309
