16
Coordinates from ORCA-job run
  C   -0.60438171116931     -0.04873024575947     -0.38993021990489
  C   0.92744124058766     -0.25725178725047     -0.44060252111589
  F   -0.91052176733429      0.22918326208103     -1.74405464463416
  H   1.14376429415469     -1.02245140547237     -1.18905947599861
  C   -1.05370256231480      1.14196553897078      0.42125207973916
  H   -0.78475488984886      1.02020795214839      1.46888819568600
  H   -0.60264456005266      2.05508003485337      0.03411140062929
  H   -2.13851928652406      1.23388001827140      0.33164573371679
  N   -1.19548507370260     -1.24413153576582      0.06554369189312
  H   -0.99263467082150     -2.03365013912627     -0.53469120167754
  H   -2.19499468463060     -1.14722808706688      0.18250300661622
  N   1.41078445731102     -0.81341592561378      0.87218410657778
  O   1.49714332537935     -0.02977250097825      1.81049494625215
  O   1.64678084358141     -2.01569326616184      0.89134918092814
  C   1.64375980819708      0.97014791871917     -0.75577021057379
  N   2.20996523718746      1.96286016815101     -1.02386406813378
