16
Coordinates from ORCA-job run
  C   -0.61158023214536     -0.05975987249841     -0.33380814284776
  C   0.93669648515956      0.09724857448112     -0.20023751684058
  F   -0.75333848179501     -0.59306723953471     -1.61368938732414
  H   1.30379217818906      0.81112751614880     -0.93901032786005
  C   -1.26749711036899      1.30295210294571     -0.30457224493073
  H   -2.33914934654556      1.16395497207791     -0.45181975581141
  H   -0.87954167889331      1.92479274079785     -1.11216217953769
  H   -1.09844783530678      1.80805851166079      0.64894159279322
  N   -1.22837030704231     -0.94035352996365      0.58563979680543
  H   -0.68464595470705     -1.77468607256428      0.76175093404018
  H   -1.47204693461818     -0.48652022205308      1.45352536148215
  N   1.60403323234682     -1.20866390663320     -0.54498364644755
  O   1.42567441002954     -2.14202045370229      0.23375305575112
  O   2.24404633842842     -1.23836771593415     -1.58763406691447
  C   1.29416757940635      0.49409900180231      1.15228582182529
  N   1.52720765786281      0.84020559296929      2.25002070581699
