17

C	-0.523376	-0.027063	-1.431596
C	0.0	0.0	0.0
Br	0.058908	-1.664027	-2.350394
H	1.095654	0.0	0.0
N	-1.982074	-0.01357	-1.493443
H	-2.294098	0.866563	-1.093647
H	-2.27647	-0.030128	-2.464476
C	0.054646	1.080926	-2.215436
N	0.398407	2.02387	-2.829141
N	-0.425094	-1.197871	0.708379
H	0.340816	-1.46889	1.310175
H	-1.257016	-1.041326	1.263458
C	-0.417777	1.296751	0.697048
H	0.140398	1.348684	1.634865
H	-0.149928	2.185143	0.117077
H	-1.491137	1.332645	0.937835
F	2.62705	0.0	0.0
