17

C	-0.067037	0.066666	-1.531703
C	0.0	0.0	0.0
Br	-1.843258	0.727411	-2.22084
H	1.099343	0.0	0.0
N	0.985963	0.898348	-2.091219
H	1.820528	0.636135	-1.51755
H	0.769981	1.862137	-1.855319
C	0.065626	-1.282621	-2.101829
N	0.210868	-2.332669	-2.609378
N	-0.566204	-1.222754	0.53252
H	-1.420187	-1.038042	1.043802
H	0.104205	-1.652683	1.156921
C	-0.473569	1.264615	0.689434
H	-0.080212	2.161884	0.206241
H	-0.10642	1.259295	1.719627
H	-1.56792	1.335611	0.700496
F	2.687478	0.0	0.0
