15

C	-0.4342	0.023022	-1.462984
C	0.0	0.0	0.0
Cl	-0.032876	1.625106	-2.180148
H	1.093022	0.0	0.0
H	-0.334952	-0.961392	0.405371
C	0.315791	-1.051076	-2.240841
H	1.386865	-0.896445	-2.094385
H	0.044473	-2.03526	-1.850262
H	0.067131	-1.006726	-3.302224
C	-1.886535	-0.143657	-1.586709
N	-3.042377	-0.334818	-1.676039
N	-0.618566	1.08364	0.75987
H	0.019292	1.870576	0.766215
H	-0.717814	0.786469	1.719898
Cl	3.496193	0.0	0.0
