15

C	-0.444801	-0.021559	-1.459442
C	0.0	0.0	0.0
Cl	-0.033593	1.560094	-2.233071
H	1.100181	0.0	0.0
H	-0.337399	-0.947964	0.435556
C	0.294029	-1.121971	-2.211569
H	0.039058	-1.108209	-3.272418
H	1.367461	-0.967307	-2.076681
H	0.019614	-2.093488	-1.789736
C	-1.898521	-0.180065	-1.568949
N	-3.052395	-0.376222	-1.674276
N	-0.622663	1.098485	0.736255
H	-0.08244	1.935885	0.548001
H	-0.506113	0.910639	1.725326
Cl	3.513775	0.0	0.0
