15

C	-0.421519	0.051045	-1.470861
C	0.0	0.0	0.0
Cl	-2.231088	0.251571	-1.575948
H	1.094622	0.0	0.0
H	-0.367193	-0.930525	0.448439
C	0.250208	1.206966	-2.19005
H	-0.055282	1.251953	-3.236753
H	-0.025387	2.127561	-1.676509
H	1.332521	1.06621	-2.11361
C	-0.129181	-1.224318	-2.127271
N	0.086605	-2.249868	-2.658383
N	-0.432591	1.208891	0.690675
H	0.30572	1.497099	1.318741
H	-1.271846	1.042135	1.227356
Cl	3.433409	0.0	0.0
