18

C	0.0	0.0	0.0
C	-0.358826	-0.271674	-1.474289
F	1.415042	0.0	0.0
H	0.381324	0.329164	-2.015504
C	-0.311675	1.405606	0.378181
N	-0.510131	2.514721	0.711736
N	-0.528822	-0.965593	0.895381
H	-1.490804	-1.165809	0.62476
H	-0.553598	-0.608591	1.844942
C	-1.747762	0.180092	-1.899688
H	-1.887511	1.252017	-1.7516
H	-2.563574	-0.305685	-1.359533
H	-1.879605	-0.032157	-2.966486
C	-0.103606	-1.741568	-1.805824
H	0.871741	-2.067999	-1.440851
H	-0.869949	-2.385175	-1.369666
H	-0.134385	-1.874752	-2.891279
Cl	-4.585156	0.0	0.0
