18

C	0.0	0.0	0.0
C	-0.402126	0.245853	-1.490175
F	1.388106	0.0	0.0
H	0.571336	0.416936	-1.962138
C	-0.311315	1.180513	0.860745
N	-0.468398	2.098409	1.576009
N	-0.522342	-1.212784	0.534906
H	-1.538331	-1.16476	0.408146
H	-0.344848	-1.241962	1.533879
C	-1.257534	1.491499	-1.711117
H	-1.52043	1.58517	-2.769198
H	-0.730156	2.401467	-1.411846
H	-2.188848	1.412688	-1.149062
C	-1.023455	-0.982388	-2.153894
H	-2.033479	-1.160317	-1.77706
H	-1.090712	-0.797669	-3.230657
H	-0.416323	-1.87645	-1.993658
Cl	-3.832192	0.0	0.0
