18

C	0.0	0.0	0.0
C	-0.474866	0.064715	-1.451194
F	1.404692	0.0	0.0
H	-1.566592	0.118168	-1.392365
C	-0.315439	1.267521	0.723238
N	-0.468163	2.274047	1.309114
N	-0.495106	-1.163655	0.655913
H	-1.513889	-1.141928	0.527614
H	-0.323076	-1.08724	1.653504
C	-0.063737	-1.204023	-2.193312
H	-0.423441	-1.15492	-3.225138
H	-0.485268	-2.091372	-1.722573
H	1.024867	-1.308188	-2.211642
C	0.056725	1.311556	-2.151348
H	1.15016	1.31593	-2.171961
H	-0.305698	1.334169	-3.18271
H	-0.285838	2.225045	-1.659895
Cl	-3.595088	0.0	0.0
