18

C	0.0	0.0	0.0
C	-0.553853	-0.115985	-1.414998
F	1.413241	0.0	0.0
H	-1.637317	0.021394	-1.283388
C	-0.318011	1.32863	0.586536
N	-0.475559	2.392445	1.056461
N	-0.488997	-0.999149	0.856292
H	-0.09319	-0.948795	1.781876
H	-0.436393	-1.925197	0.46955
C	-0.293626	-1.50411	-1.997835
H	0.759043	-1.788197	-1.899139
H	-0.54615	-1.506011	-3.060848
H	-0.924065	-2.261783	-1.527456
C	0.020981	0.975527	-2.312101
H	-0.174347	1.97049	-1.905282
H	-0.448362	0.924161	-3.297951
H	1.101489	0.857215	-2.435408
Cl	-3.941971	0.0	0.0
