18

C	0.0	0.0	0.0
C	-0.472453	-0.177232	-1.44464
F	1.397984	0.0	0.0
H	-1.565599	-0.16487	-1.393601
C	-0.321633	1.36839	0.504413
N	-0.522123	2.458206	0.894899
N	-0.494781	-1.04221	0.835686
H	-1.51394	-1.045977	0.710687
H	-0.314961	-0.811515	1.806894
C	0.005917	-1.52364	-1.982934
H	1.098179	-1.554911	-2.035444
H	-0.331301	-2.342959	-1.348938
H	-0.39229	-1.675727	-2.990021
C	0.0036	0.971734	-2.328145
H	-0.420599	1.925656	-2.007804
H	1.094446	1.052506	-2.315615
H	-0.313671	0.796612	-3.359871
Cl	-3.605914	0.0	0.0
