18

C	0.0	0.0	0.0
C	-0.396089	-0.420204	-1.451653
F	1.39533	0.0	0.0
H	0.584449	-0.506868	-1.933833
C	-0.310412	1.434094	0.269239
N	-0.489466	2.575626	0.484209
N	-0.503599	-0.874737	1.002217
H	-1.518819	-0.921488	0.869263
H	-0.346249	-0.465968	1.916993
C	-1.196009	0.632388	-2.216254
H	-1.368692	0.282565	-3.239748
H	-2.162788	0.795214	-1.740265
H	-0.657248	1.582835	-2.276511
C	-1.073642	-1.788803	-1.528728
H	-0.51535	-2.543372	-0.970852
H	-1.118154	-2.094076	-2.578053
H	-2.093739	-1.730188	-1.148094
Cl	-3.792188	0.0	0.0
