18

C	0.0	0.0	0.0
C	-0.377049	-0.414555	-1.432953
F	1.415276	0.0	0.0
H	0.382054	0.096086	-2.038131
C	-0.310956	1.438256	0.232485
N	-0.508395	2.578165	0.437957
N	-0.514854	-0.867614	0.997567
H	-1.499561	-1.044051	0.803271
H	-0.456128	-0.439275	1.913879
C	-1.751013	0.05347	-1.89128
H	-2.576336	-0.313696	-1.278479
H	-1.827221	1.143144	-1.884271
H	-1.91196	-0.286023	-2.919145
C	-0.192934	-1.921521	-1.606867
H	-0.217172	-2.166607	-2.672589
H	0.757853	-2.2587	-1.1904
H	-0.998549	-2.474445	-1.119666
Cl	-4.592305	0.0	0.0
