17

C	-0.30983	0.158588	-1.492925
C	0.0	0.0	0.0
F	-1.595734	0.714303	-1.674989
H	1.091913	0.0	0.0
N	0.667224	0.969137	-2.113999
H	1.552358	0.898127	-1.597326
H	0.801004	0.724427	-3.08499
C	-0.414365	-1.180215	-2.137137
N	-0.467151	-2.192391	-2.732875
C	-0.564784	-1.233382	0.65686
H	-0.093886	-2.115635	0.218537
H	-0.322597	-1.217252	1.719275
H	-1.649837	-1.303954	0.550011
N	-0.42104	1.232254	0.700572
O	0.085411	2.292171	0.333626
O	-1.213691	1.132122	1.645731
H	2.67388	0.0	0.0
