17

C	-0.33972	0.044946	-1.488379
C	0.0	0.0	0.0
F	-1.712878	0.226984	-1.667518
H	1.09207	0.0	0.0
N	0.354556	1.035082	-2.266154
H	0.132078	1.923914	-1.830153
H	1.347948	0.874726	-2.084213
C	-0.020984	-1.280079	-2.082512
N	0.169574	-2.333186	-2.565808
C	-0.457803	-1.238744	0.742875
H	-0.063046	-2.124187	0.24212
H	-0.049286	-1.218863	1.751718
H	-1.548098	-1.308809	0.7981
N	-0.413405	1.211723	0.701604
O	-0.520969	1.15032	1.933472
O	-0.532997	2.277494	0.070842
H	2.576941	0.0	0.0
