17

C	-0.50017	0.015502	-1.437601
C	0.0	0.0	0.0
F	-1.941766	0.046722	-1.395964
H	1.091388	0.0	0.0
N	0.017057	1.040974	-2.245936
H	-0.480653	1.090663	-3.12437
H	0.004334	1.915217	-1.736335
C	-0.211148	-1.280451	-2.100557
N	-0.027128	-2.289812	-2.671554
C	-0.421437	-1.238442	0.762509
H	-0.093011	-2.125806	0.217482
H	0.082649	-1.237254	1.728061
H	-1.500901	-1.281005	0.92085
N	-0.375281	1.199956	0.71156
O	-0.241617	2.306235	0.143099
O	-0.650286	1.109483	1.92173
H	2.476088	0.0	0.0
