17

C	-0.506475	0.011964	-1.435108
C	0.0	0.0	0.0
F	-1.947802	0.077401	-1.385553
H	1.091353	0.0	0.0
N	0.029079	1.017505	-2.255972
H	0.038769	1.897707	-1.756149
H	-0.471376	1.068857	-3.132923
C	-0.253873	-1.296609	-2.086801
N	-0.099743	-2.311786	-2.655533
C	-0.425419	-1.232299	0.768982
H	-0.072431	-2.121385	0.243236
H	0.054804	-1.213772	1.746091
H	-1.507567	-1.287233	0.902105
N	-0.370789	1.208658	0.702978
O	-0.661609	1.129814	1.909492
O	-0.215967	2.306947	0.127587
H	2.484058	0.0	0.0
