17

C	-0.29522	0.131172	-1.498311
C	0.0	0.0	0.0
F	-1.631791	0.496562	-1.693049
H	1.107882	0.0	0.0
N	0.53238	1.056052	-2.223287
H	0.389434	1.950992	-1.763811
H	1.496289	0.795456	-1.988474
C	-0.138974	-1.20163	-2.136881
N	-0.049841	-2.245705	-2.66397
C	-0.517364	-1.246379	0.678128
H	-0.120051	-2.124442	0.167737
H	-0.161438	-1.268231	1.70735
H	-1.609714	-1.292381	0.684141
N	-0.408874	1.204238	0.715286
O	-0.216723	2.309815	0.182801
O	-0.841432	1.086255	1.871037
H	2.569681	0.0	0.0
