17

C	-0.455123	-0.097791	-1.448596
C	0.0	0.0	0.0
F	-0.208081	-1.399074	-1.882291
H	1.101791	0.0	0.0
N	-1.874032	0.115392	-1.59682
H	-2.102669	0.099161	-2.586122
H	-2.064141	1.048616	-1.248446
C	0.340998	0.755839	-2.375832
N	0.844905	1.381071	-3.233728
C	-0.376672	-1.192716	0.848069
H	-1.458933	-1.28583	0.968998
H	0.096039	-1.07621	1.822588
H	0.018284	-2.094404	0.379861
N	-0.375118	1.239946	0.581902
O	-0.305666	1.356818	1.822573
O	-0.581148	2.219948	-0.184346
H	2.404414	0.0	0.0
