17

C	-0.457825	0.082355	-1.445592
C	0.0	0.0	0.0
F	-0.13315	-1.125447	-2.063402
H	1.107987	0.0	0.0
N	-1.883976	0.227465	-1.572998
H	-2.133551	1.084219	-1.08974
H	-2.114454	0.34284	-2.555588
C	0.293125	1.10737	-2.223407
N	0.793884	1.88732	-2.944358
C	-0.345665	-1.297356	0.697384
H	-1.419004	-1.395243	0.87442
H	0.190554	-1.323513	1.645628
H	0.000577	-2.128115	0.08278
N	-0.391263	1.147027	0.737663
O	-0.234783	1.126116	1.97774
O	-0.708458	2.193786	0.105865
H	2.392266	0.0	0.0
