17

C	-0.32438	0.268234	-1.465267
C	0.0	0.0	0.0
F	-0.03564	1.592681	-1.743208
H	1.10244	0.0	0.0
N	0.512965	-0.534675	-2.31406
H	0.128729	-1.463537	-2.431058
H	1.438228	-0.589128	-1.870119
C	-1.748253	0.029419	-1.81063
N	-2.855804	-0.248521	-2.082961
C	-0.433074	-1.36932	0.488354
H	-0.078976	-1.493679	1.51268
H	0.048121	-2.139061	-0.116966
H	-1.519389	-1.501477	0.455228
N	-0.546399	1.013847	0.917463
O	-0.082792	1.027879	2.059498
O	-1.4463	1.763778	0.520538
H	2.696785	0.0	0.0
