15

C	0.0	0.0	0.0
C	-0.540272	0.115176	-1.428844
F	1.375113	0.0	0.0
H	-1.622	-0.129697	-1.357008
N	-0.507046	0.991001	0.826914
H	-1.532361	0.963698	0.748533
H	-0.233234	0.795061	1.783862
N	-0.290259	-1.442852	0.530996
O	-0.131406	-1.580798	1.739129
O	-0.590181	-2.322035	-0.26567
C	0.154753	-0.763427	-2.370712
N	0.709375	-1.417982	-3.172241
C	-0.399362	1.497914	-1.895213
N	-0.286234	2.581944	-2.330485
Cl	-3.427875	0.0	0.0
