15

C	0.0	0.0	0.0
C	-0.384065	0.296365	-1.478533
F	1.359068	0.0	0.0
H	0.504465	-0.040349	-2.025773
N	-0.529065	0.853194	0.938738
H	-1.556877	0.830416	0.814375
H	-0.300233	0.522475	1.869518
N	-0.255785	-1.52068	0.274207
O	-0.479884	-1.835414	1.435999
O	-0.074845	-2.286739	-0.666697
C	-0.485159	1.743017	-1.691411
N	-0.52787	2.887443	-1.951322
C	-1.488022	-0.406599	-2.146557
N	-2.100482	-0.961	-2.983887
Cl	-3.334488	0.0	0.0
