15

C	0.0	0.0	0.0
C	-0.553034	-0.236555	-1.41265
F	1.342362	0.0	0.0
H	-1.63654	-0.438352	-1.278867
N	-0.514771	1.162413	0.558327
H	-0.227675	1.220668	1.529729
H	-1.54075	1.108694	0.503515
N	-0.304495	-1.27055	0.865989
O	-0.673585	-2.300807	0.316663
O	-0.078425	-1.127049	2.064868
C	0.122217	-1.336704	-2.102875
N	0.675664	-2.17611	-2.709157
C	-0.391622	0.982889	-2.209181
N	-0.255747	1.927073	-2.893611
Cl	-3.441139	0.0	0.0
