16

C	-0.081882	0.062446	-1.53646
C	0.0	0.0	0.0
Cl	-1.786751	0.309842	-2.128094
H	1.098213	0.0	0.0
N	0.711841	1.213136	-1.888562
H	1.610296	1.067173	-1.408176
H	0.86286	1.222206	-2.889765
C	0.436178	-1.248139	-2.114243
H	-0.187364	-2.100632	-1.838129
H	1.445653	-1.366459	-1.708428
H	0.476155	-1.176615	-3.204812
C	-0.549433	-1.21006	0.573374
N	-0.980562	-2.202593	1.033124
C	-0.515429	1.190251	0.651665
N	-0.923889	2.13087	1.225345
F	2.555415	0.0	0.0
