16

C	-0.311847	0.042205	-1.513881
C	0.0	0.0	0.0
Cl	0.121981	-1.56858	-2.20094
H	1.096289	0.0	0.0
N	-1.729487	0.226542	-1.756312
H	-1.880372	0.338148	-2.753222
H	-2.019717	1.085929	-1.299388
C	0.627422	1.064458	-2.146675
H	1.639421	0.858634	-1.782971
H	0.327595	2.06808	-1.826568
H	0.571093	1.00973	-3.236962
C	-0.572868	-1.139454	0.692071
N	-1.003944	-2.061398	1.280123
C	-0.450947	1.242963	0.606183
N	-0.820654	2.27028	1.045535
F	2.51483	0.0	0.0
