14

C	-0.563927	-0.074662	-1.421722
C	0.0	0.0	0.0
Br	-0.350116	1.662566	-2.307247
H	1.097573	0.0	0.0
H	-1.641011	-0.258638	-1.415354
C	0.094871	-1.057252	-2.274711
N	0.573001	-1.84601	-3.001083
N	-0.442834	-1.213418	0.717916
O	-0.482527	-1.184362	1.950681
O	-0.714802	-2.218418	0.052687
N	-0.478088	1.179582	0.70685
H	0.332208	1.7868	0.782868
H	-0.693775	0.885145	1.653109
F	2.504957	0.0	0.0
