14

C	-0.549001	0.024302	-1.430723
C	0.0	0.0	0.0
Br	0.066031	1.635646	-2.352509
H	1.089892	0.0	0.0
H	-1.640718	0.087522	-1.427676
C	-0.151951	-1.142002	-2.210342
N	0.152108	-2.072436	-2.86017
N	-0.580288	-1.265624	0.588332
O	0.172788	-2.100933	1.074659
O	-1.814686	-1.366985	0.558471
N	-0.448635	1.083024	0.819888
H	0.310385	1.746665	0.890431
H	-1.29237	1.534201	0.491378
F	2.550767	0.0	0.0
