14

C	-0.325121	0.036843	-1.472025
C	0.0	0.0	0.0
Br	-2.288393	0.07373	-1.836472
H	1.093625	0.0	0.0
H	0.031682	-0.865763	-1.96369
C	0.242152	1.228317	-2.088796
N	0.67642	2.191796	-2.603348
N	-0.462225	-1.320229	0.538568
O	-0.302124	-2.299186	-0.199081
O	-0.915462	-1.383555	1.677177
N	-0.443748	1.091168	0.783778
H	-1.267611	1.559552	0.433881
H	0.322531	1.732384	0.924844
F	2.495683	0.0	0.0
