14

C	-0.556797	-0.087409	-1.421941
C	0.0	0.0	0.0
Br	0.056635	1.46033	-2.457229
H	1.107547	0.0	0.0
H	-1.647646	-0.032724	-1.438531
C	-0.141768	-1.29595	-2.125106
N	0.150365	-2.269173	-2.713623
N	-0.535864	-1.191678	0.741165
O	-1.522453	-1.786187	0.273531
O	0.006704	-1.486879	1.796928
N	-0.412909	1.165207	0.730425
H	-1.186056	1.660598	0.308878
H	0.38935	1.773964	0.805035
F	2.532086	0.0	0.0
