14

C	-0.54851	-0.030684	-1.437133
C	0.0	0.0	0.0
Br	-0.504789	1.754433	-2.239911
H	1.09404	0.0	0.0
H	-1.600288	-0.329545	-1.467943
C	0.204131	-0.911209	-2.326265
N	0.742127	-1.600789	-3.110388
N	-0.416558	-1.281088	0.638856
O	-0.637023	-2.254672	-0.090148
O	-0.489797	-1.317499	1.869652
N	-0.413024	1.13107	0.768909
H	-1.183816	0.9107	1.385565
H	0.378126	1.408325	1.33526
F	2.500404	0.0	0.0
