16

C	0.0	0.0	0.0
C	-0.415665	-0.011291	-1.52548
Cl	1.791465	0.0	0.0
H	0.511088	-0.208523	-2.070712
N	-0.500203	1.148713	0.684109
H	-1.527457	1.063342	0.622326
H	-0.243476	1.082643	1.664305
C	-0.339384	-1.288353	0.645059
N	-0.522471	-2.29244	1.229239
C	-0.952674	1.330696	-2.024079
H	-1.062953	1.276474	-3.11065
H	-0.249635	2.125948	-1.772802
H	-1.924546	1.533093	-1.578922
C	-1.274603	-1.133629	-1.921992
N	-1.779648	-2.045017	-2.466195
Cl	-3.372717	0.0	0.0
