16

C	0.0	0.0	0.0
C	-0.51275	0.114214	-1.450499
Cl	1.787511	0.0	0.0
H	-1.605308	0.204211	-1.339923
N	-0.498381	1.109658	0.753954
H	-0.235933	1.002108	1.728117
H	-1.523078	1.049132	0.691234
C	-0.356629	-1.328013	0.549869
N	-0.575253	-2.392667	0.998498
C	-0.197854	-1.098678	-2.321927
H	-0.590127	-0.933668	-3.328063
H	0.877006	-1.275805	-2.391675
H	-0.68612	-1.982628	-1.90933
C	0.001675	1.341714	-2.055588
N	0.385362	2.295099	-2.624351
Cl	-3.496895	0.0	0.0
