16

C	0.0	0.0	0.0
C	-0.495642	-0.085096	-1.468794
Cl	1.793184	0.0	0.0
H	-1.592114	-0.036973	-1.357231
N	-0.483245	1.130104	0.737623
H	-0.260346	1.975843	0.220132
H	-1.505498	1.026367	0.766106
C	-0.383492	-1.23527	0.706547
N	-0.606834	-2.225444	1.297164
C	-0.106679	-1.359072	-2.213908
H	0.976445	-1.453622	-2.309701
H	-0.549401	-1.348472	-3.21206
H	-0.49853	-2.225687	-1.678657
C	-0.055442	1.109856	-2.184579
N	0.297993	2.065504	-2.770326
Cl	-3.476698	0.0	0.0
