17

C	0.0	0.0	0.0
C	-0.310794	0.348106	-1.471391
Cl	1.921121	0.0	0.0
H	0.322327	-0.306236	-2.075702
N	-0.502297	0.968474	0.875162
H	-0.175418	1.907464	0.694128
H	-0.412182	0.72114	1.848704
N	-0.421446	-1.33775	0.288339
H	-0.015607	-1.638938	1.166083
H	-1.435228	-1.305758	0.398975
C	0.098844	1.72859	-1.739977
N	0.387442	2.847023	-1.950409
C	-1.781061	0.142879	-1.839844
H	-2.03758	-0.913693	-1.770689
H	-1.941474	0.463652	-2.872222
H	-2.465127	0.680205	-1.183608
Cl	-4.618234	0.0	0.0
