17

C	0.0	0.0	0.0
C	-0.224326	0.288165	-1.539965
Cl	1.804969	0.0	0.0
H	0.406314	-0.454559	-2.042323
N	-0.528994	1.07002	0.778188
H	-1.533209	1.108819	0.582271
H	-0.431488	0.820138	1.757194
N	-0.467065	-1.281884	0.445829
H	-0.181524	-2.020159	-0.188113
H	-1.487499	-1.236109	0.473956
C	0.332219	1.59863	-1.894704
N	0.728464	2.64274	-2.258391
C	-1.622784	0.17195	-2.141548
H	-2.086723	-0.777315	-1.885287
H	-2.297011	0.947907	-1.79372
H	-1.520639	0.240941	-3.22913
Cl	-3.912381	0.0	0.0
