17

C	0.0	0.0	0.0
C	-0.485857	-0.131627	-1.461288
Cl	1.845868	0.0	0.0
H	-1.578435	-0.217645	-1.327994
N	-0.468851	1.161837	0.687789
H	-0.187064	2.005123	0.20581
H	-1.492668	1.08199	0.685925
N	-0.458225	-1.120086	0.727378
H	-0.096557	-1.993577	0.371638
H	-0.243497	-1.008109	1.708392
C	0.004867	-1.367786	-2.064523
N	0.405753	-2.356499	-2.557024
C	-0.161214	1.067174	-2.348338
H	-0.659611	1.956275	-1.95883
H	-0.541491	0.895083	-3.357346
H	0.915156	1.243123	-2.401828
Cl	-3.654157	0.0	0.0
