16

C	0.0	0.0	0.0
C	-0.585406	-0.026216	-1.404273
Cl	1.793328	0.0	0.0
H	-1.673276	-0.037512	-1.151002
H	-0.340098	0.900301	0.515002
C	-0.400399	-1.164966	0.80003
N	-0.556637	-2.115235	1.473438
C	-0.214209	-1.278195	-2.180333
H	-0.744062	-1.28242	-3.137852
H	-0.514729	-2.176989	-1.634772
H	0.860108	-1.339219	-2.386776
C	-0.264771	1.254251	-2.15784
H	0.80811	1.375422	-2.344722
H	-0.779584	1.250273	-3.123428
H	-0.624139	2.124647	-1.599202
H	-3.063066	0.0	0.0
