16

C	0.0	0.0	0.0
C	-0.347167	-0.002392	-1.541313
Cl	1.793119	0.0	0.0
H	0.606832	-0.208822	-2.036298
H	-0.319041	0.917683	0.481475
C	-0.537312	-1.145899	0.723508
N	-0.569653	-2.165634	1.326019
C	-0.776042	1.392604	-1.979206
H	-0.029541	2.142433	-1.693175
H	-0.893889	1.432484	-3.068629
H	-1.727255	1.623428	-1.49551
C	-1.296161	-1.075059	-2.076093
H	-2.332657	-0.81271	-1.88027
H	-1.119425	-1.179767	-3.157396
H	-1.107691	-2.043548	-1.604474
H	-2.272079	0.0	0.0
