16

C	0.0	0.0	0.0
C	-0.356411	0.119482	-1.535217
Cl	1.792968	0.0	0.0
H	0.609407	0.105288	-2.048894
H	-0.327439	0.872572	0.555312
C	-0.510579	-1.207346	0.638333
N	-0.556681	-2.266139	1.163571
C	-0.988387	1.468581	-1.86117
H	-1.093071	1.578095	-2.947821
H	-1.964404	1.5186	-1.377517
H	-0.360062	2.291768	-1.50019
C	-1.138811	-1.046475	-2.13537
H	-2.152331	-1.052912	-1.737693
H	-0.661575	-2.003006	-1.89837
H	-1.149242	-0.934934	-3.227866
H	-2.371093	0.0	0.0
