16

C	0.0	0.0	0.0
C	-0.355768	-0.022093	-1.540423
Cl	1.791565	0.0	0.0
H	0.611538	-0.02693	-2.052013
H	-0.323479	0.924075	0.468199
C	-0.525407	-1.131872	0.75441
N	-0.560371	-2.113824	1.414285
C	-1.055582	1.253481	-2.001377
H	-2.05237	1.287926	-1.562151
H	-1.113817	1.263691	-3.097376
H	-0.49309	2.141378	-1.688459
C	-1.071117	-1.281422	-2.021801
H	-2.073974	-1.316527	-1.598691
H	-0.524294	-2.180889	-1.719524
H	-1.115269	-1.266073	-3.118425
H	-2.357807	0.0	0.0
