16

C	0.0	0.0	0.0
C	-0.354477	0.106438	-1.536676
Cl	1.793045	0.0	0.0
H	0.607938	0.021646	-2.050179
H	-0.325613	0.877897	0.5475
C	-0.516736	-1.201367	0.64409
N	-0.554734	-2.259792	1.172052
C	-0.900852	1.489978	-1.869556
H	-1.023234	1.597576	-2.954122
H	-1.863515	1.607048	-1.369355
H	-0.214528	2.274264	-1.529219
C	-1.212572	-1.006397	-2.136049
H	-2.246491	-0.900355	-1.813405
H	-1.134714	-0.949487	-3.23141
H	-0.856207	-1.992411	-1.821678
H	-2.33935	0.0	0.0
