16

C	0.0	0.0	0.0
C	-0.573251	0.039518	-1.411319
Cl	1.793363	0.0	0.0
H	-1.662837	0.026221	-1.170733
H	-0.341293	0.87819	0.551332
C	-0.403237	-1.195816	0.748503
N	-0.566373	-2.165048	1.392427
C	-0.20334	-1.181642	-2.236613
H	-0.712735	-1.135026	-3.204117
H	-0.527299	-2.09931	-1.738155
H	0.874109	-1.24871	-2.42426
C	-0.228974	1.347137	-2.107373
H	-0.742731	1.396139	-3.072464
H	-0.570913	2.199463	-1.510972
H	0.846339	1.455934	-2.28894
H	-3.057257	0.0	0.0
