13

C	0.0	0.0	0.0
C	-0.322829	-0.070523	-1.519781
Br	1.927248	0.0	0.0
H	-0.149044	0.935922	-1.914658
H	-1.38398	-0.305767	-1.613203
C	-0.649004	1.124937	0.653738
N	-0.697611	2.152005	1.250411
N	-0.423345	-1.278379	0.69786
O	-0.473634	-2.291377	0.006462
O	-0.467256	-1.24088	1.926017
C	0.473091	-1.016108	-2.295276
N	1.062474	-1.753162	-2.995201
H	-2.121294	0.0	0.0
