13

C	0.0	0.0	0.0
C	-0.296933	0.010311	-1.522545
Br	1.937784	0.0	0.0
H	-1.360914	-0.182898	-1.660083
H	0.283858	-0.790308	-1.982005
C	-0.54244	1.119074	0.74222
N	-0.591794	2.127034	1.360483
N	-0.462927	-1.29436	0.6002
O	-0.476539	-2.271947	-0.158803
O	-0.507929	-1.348198	1.830724
C	0.045342	1.289242	-2.133345
N	0.270493	2.303114	-2.681747
H	-2.066937	0.0	0.0
