12

C	0.0	0.0	0.0
C	-0.483861	-0.070629	-1.472937
Br	1.950839	0.0	0.0
H	0.011948	-0.937431	-1.921544
H	-0.327152	0.918808	0.487732
H	-0.088353	0.819714	-1.972107
C	-0.433614	-1.160646	0.766135
N	-0.742337	-2.135182	1.344467
N	-1.894944	-0.165368	-1.686305
H	-2.315462	-0.980267	-1.257291
H	-2.434434	0.608722	-1.317381
Cl	-4.642238	0.0	0.0
