12

C	0.0	0.0	0.0
C	-0.34563	0.026841	-1.576704
Br	1.948154	0.0	0.0
H	0.287364	0.809408	-2.025185
H	-0.217726	0.924574	0.514502
H	-1.3656	0.336495	-1.778352
C	-0.440693	-1.171918	0.742238
N	-0.650146	-2.161187	1.350732
N	-0.095327	-1.2958	-2.145423
H	-0.881301	-1.875352	-1.852418
H	-0.195797	-1.191678	-3.151034
Cl	-2.569071	0.0	0.0
