12

C	0.0	0.0	0.0
C	-0.492583	-0.187522	-1.446524
Br	1.955353	0.0	0.0
H	0.10255	-0.979777	-1.910961
H	-0.34794	0.94531	0.415233
H	-1.533903	-0.50364	-1.376293
C	-0.378198	-1.108499	0.875062
N	-0.555798	-2.03687	1.572639
N	-0.441885	1.015576	-2.255169
H	0.441792	1.496564	-2.132781
H	-1.192066	1.626068	-1.952076
Cl	-3.417369	0.0	0.0
