16

C	0.0	0.0	0.0
C	-0.432386	0.401075	-1.418903
F	1.387521	0.0	0.0
H	0.395156	0.973874	-1.850292
H	-0.32081	0.827919	0.6372
C	-0.567106	-1.296174	0.518648
H	-0.279538	-1.42882	1.563425
H	-0.197843	-2.142947	-0.059484
H	-1.65911	-1.24856	0.463801
N	-1.626511	1.134113	-1.443883
H	-1.924681	1.324849	-2.389676
H	-2.412871	0.696797	-0.9473
N	-0.420266	-0.858143	-2.336341
O	0.596567	-1.552377	-2.317056
O	-1.387695	-1.04523	-3.068085
Cl	-4.238916	0.0	0.0
