16

C	0.0	0.0	0.0
C	-0.510532	0.156943	-1.415245
F	1.389547	0.0	0.0
H	-1.60517	0.22552	-1.349579
H	-0.324245	0.868513	0.574243
C	-0.487947	-1.279372	0.631641
H	-0.125816	-2.135587	0.062108
H	-0.116638	-1.339281	1.657934
H	-1.579422	-1.273254	0.638998
N	-0.086066	-0.894463	-2.268841
H	-0.516794	-0.811024	-3.178549
H	0.918387	-0.860018	-2.382779
N	-0.047462	1.540258	-1.918363
O	-0.300311	2.512005	-1.214651
O	0.535562	1.593053	-3.002294
Cl	-3.733887	0.0	0.0
