16

C	0.0	0.0	0.0
C	-0.432529	0.403257	-1.419987
F	1.387912	0.0	0.0
H	0.404439	0.964235	-1.850352
H	-0.305211	0.841533	0.628004
C	-0.575827	-1.280532	0.542912
H	-0.252358	-2.137893	-0.045148
H	-1.669036	-1.211171	0.533058
H	-0.243828	-1.417627	1.574302
N	-1.61506	1.161016	-1.440007
H	-2.403622	0.721576	-0.949215
H	-1.909223	1.349959	-2.388054
N	-0.444653	-0.844931	-2.3501
O	-1.357003	-0.942578	-3.166108
O	0.512109	-1.615538	-2.268566
Cl	-4.220524	0.0	0.0
