16

C	0.0	0.0	0.0
C	-0.432653	0.353506	-1.431455
F	1.387667	0.0	0.0
H	0.398805	0.909416	-1.878279
H	-0.322156	0.849737	0.607003
C	-0.560248	-1.278093	0.57022
H	-1.653359	-1.23977	0.530518
H	-0.192193	-2.142596	0.02033
H	-0.256851	-1.370189	1.615116
N	-1.623284	1.091057	-1.482255
H	-1.917088	1.259647	-2.433129
H	-2.414094	0.673543	-0.975123
N	-0.421771	-0.931206	-2.313801
O	0.576397	-1.648155	-2.245685
O	-1.36723	-1.111438	-3.075208
Cl	-4.23674	0.0	0.0
