16

C	0.0	0.0	0.0
C	-0.17694	0.067203	-1.542451
F	1.396843	0.0	0.0
H	0.387933	-0.786908	-1.919051
H	-0.335507	0.932828	0.461201
C	-0.571066	-1.207828	0.678257
H	-1.663536	-1.1246	0.643886
H	-0.241442	-1.241001	1.720908
H	-0.256398	-2.122748	0.171398
N	0.347961	1.282939	-2.129963
H	1.219611	1.494806	-1.663243
H	-0.315172	2.028032	-1.95173
N	-1.548403	-0.139184	-2.11468
O	-1.883281	-1.306687	-2.295656
O	-2.186195	0.858032	-2.424779
Cl	-3.98177	0.0	0.0
