16

C	0.0	0.0	0.0
C	-0.420584	0.41927	-1.430642
F	1.397075	0.0	0.0
H	0.423353	1.006724	-1.813172
H	-0.297558	0.837958	0.638341
C	-0.572222	-1.284865	0.536195
H	-0.215071	-2.133536	-0.045084
H	-1.665114	-1.22473	0.485297
H	-0.27305	-1.414954	1.579108
N	-1.623589	1.161965	-1.598453
H	-1.535489	2.048655	-1.123001
H	-2.436104	0.683594	-1.195391
N	-0.471301	-0.79734	-2.348077
O	-1.43762	-0.933561	-3.08286
O	0.493969	-1.56322	-2.295365
Cl	-4.18117	0.0	0.0
