16

C	0.0	0.0	0.0
C	-0.343427	-0.183691	-1.494056
F	1.391234	0.0	0.0
H	0.243756	0.562205	-2.033287
H	-0.331959	1.008202	0.270604
C	-0.566536	-1.007721	0.962795
H	-0.222228	-2.015224	0.731188
H	-0.262647	-0.74849	1.979739
H	-1.658722	-0.973673	0.909906
N	-1.694685	-0.158321	-1.93609
H	-2.34159	-0.622115	-1.301645
H	-2.025918	0.796889	-1.977646
N	0.269327	-1.49666	-1.936674
O	-0.357188	-2.518661	-1.666734
O	1.348931	-1.462881	-2.526645
Cl	-4.214334	0.0	0.0
