16

C	0.0	0.0	0.0
C	-0.391275	0.291711	-1.458985
F	1.390433	0.0	0.0
H	0.391953	0.924171	-1.883188
H	-0.329223	0.869424	0.577012
C	-0.540986	-1.272348	0.595372
H	-0.13684	-2.144716	0.080165
H	-0.257074	-1.325786	1.648934
H	-1.631104	-1.277101	0.521213
N	-1.661587	0.867762	-1.602101
H	-1.950591	0.925741	-2.56932
H	-2.422468	0.453997	-1.049597
N	-0.172506	-1.014427	-2.265858
O	-1.080733	-1.842475	-2.296613
O	0.919156	-1.139775	-2.829053
Cl	-4.252748	0.0	0.0
