16

C	0.0	0.0	0.0
C	-0.427342	-0.070957	-1.475595
F	1.390386	0.0	0.0
H	0.384888	0.357892	-2.068893
H	-0.324145	0.981996	0.354097
C	-0.552764	-1.092967	0.876935
H	-0.258774	-0.917149	1.913729
H	-1.645239	-1.089059	0.81426
H	-0.168215	-2.066073	0.565789
N	-1.649456	0.567913	-1.719815
H	-1.951477	0.459613	-2.677633
H	-2.426737	0.293715	-1.106047
N	-0.361469	-1.562963	-1.897498
O	0.765506	-2.0502	-2.005056
O	-1.413438	-2.165963	-2.080339
Cl	-4.274129	0.0	0.0
