16

C	0.0	0.0	0.0
C	-0.258425	-0.152509	-1.574449
F	1.390347	0.0	0.0
H	0.4189	0.665127	-1.924136
H	-0.377555	0.962399	0.328135
C	-0.320272	-1.167306	0.940416
H	0.173973	-2.058087	0.554632
H	-1.378472	-1.340761	1.055633
H	0.122888	-0.911856	1.924313
N	-1.438701	-0.002765	-2.274369
H	-1.352048	0.433828	-3.166381
H	-2.192077	-0.698852	-2.193884
N	0.50111	-1.428603	-2.191274
O	1.532583	-1.20269	-2.845187
O	-0.064563	-2.49894	-2.16334
Cl	-3.347661	0.0	0.0
