16

C	0.0	0.0	0.0
C	-0.43543	-0.152278	-1.463161
F	1.390336	0.0	0.0
H	0.348393	0.286688	-2.085776
H	-0.32544	0.998462	0.30317
C	-0.540114	-1.048126	0.938937
H	-0.141994	-2.032059	0.684401
H	-0.2473	-0.809158	1.963933
H	-1.631813	-1.068782	0.879074
N	-1.685648	0.418688	-1.713466
H	-2.455596	0.154432	-1.087109
H	-1.985339	0.306338	-2.671607
N	-0.293707	-1.659223	-1.813885
O	0.850872	-2.059346	-2.04363
O	-1.302646	-2.357971	-1.812652
Cl	-4.338226	0.0	0.0
