18

C	-0.517057	-0.002901	-1.442072
C	0.0	0.0	0.0
Cl	0.214364	1.5233	-2.227248
H	1.090303	0.0	0.0
N	-0.076549	-1.182345	-2.095873
H	-0.228253	-1.111143	-3.09471
H	0.914033	-1.324149	-1.910448
C	-2.017191	0.185172	-1.55361
H	-2.528064	-0.644251	-1.057787
H	-2.31462	0.21302	-2.605448
H	-2.301929	1.128541	-1.086683
N	-0.418981	-1.310609	0.631481
O	0.284631	-2.294573	0.435555
O	-1.438407	-1.31758	1.33988
N	-0.472765	1.115313	0.757177
H	0.262717	1.375904	1.405252
H	-1.306762	0.859324	1.272137
H	2.748564	0.0	0.0
