18

C	-0.546436	0.149059	-1.422423
C	0.0	0.0	0.0
Cl	-0.06175	-1.348235	-2.392222
H	1.090895	0.0	0.0
N	-1.966154	0.318147	-1.428383
H	-2.425074	-0.491097	-1.024879
H	-2.289519	0.436827	-2.379238
C	0.157393	1.320383	-2.077535
H	1.23704	1.185952	-1.976035
H	-0.11348	1.379216	-3.135938
H	-0.143845	2.23063	-1.560553
N	-0.508766	-1.304346	0.588232
O	0.213468	-2.292957	0.561128
O	-1.652467	-1.294626	1.075794
N	-0.406777	1.123471	0.780081
H	0.230046	1.213224	1.562473
H	-1.364546	1.039149	1.08924
H	2.809767	0.0	0.0
