18

C	-0.564481	-0.027624	-1.413234
C	0.0	0.0	0.0
Cl	0.328707	-1.338751	-2.387881
H	1.092673	0.0	0.0
N	-1.977464	-0.251799	-1.424277
H	-2.319313	-0.19949	-2.377771
H	-2.155323	-1.185029	-1.070545
C	-0.2137	1.269466	-2.11826
H	0.859136	1.446218	-2.027621
H	-0.478813	1.194844	-3.177143
H	-0.753264	2.088035	-1.645564
N	-0.402672	-1.156943	0.818201
O	-0.813909	-2.200586	0.27867
O	-0.206781	-1.05803	2.038211
N	-0.301437	1.239611	0.66329
H	-1.173424	1.178166	1.172657
H	0.454594	1.413432	1.318021
H	2.549469	0.0	0.0
