18

C	-0.550954	0.142591	-1.419335
C	0.0	0.0	0.0
Cl	-0.117092	-1.403649	-2.346567
H	1.091024	0.0	0.0
N	-1.961612	0.357255	-1.426819
H	-2.290531	0.435746	-2.381399
H	-2.440906	-0.411224	-0.972481
C	0.193541	1.269683	-2.10515
H	-0.06319	2.199962	-1.598877
H	-0.092049	1.324026	-3.159823
H	1.268146	1.094909	-2.014756
N	-0.504759	-1.302296	0.603262
O	-1.690031	-1.318477	0.977145
O	0.260849	-2.252009	0.709986
N	-0.402155	1.124483	0.780607
H	0.218101	1.206159	1.576856
H	-1.369632	1.062619	1.064134
H	2.832681	0.0	0.0
