18

C	-0.587268	0.060815	-1.42697
C	0.0	0.0	0.0
Cl	-0.410071	-1.541464	-2.233864
H	1.090111	0.0	0.0
N	-1.996178	0.404675	-1.487052
H	-2.519306	-0.257585	-0.921474
H	-2.076578	1.310036	-1.034522
C	0.2341	1.072233	-2.201196
H	0.09693	2.056053	-1.746627
H	1.2924	0.810287	-2.133608
H	-0.104899	1.093853	-3.238371
N	-0.50572	-1.219941	0.712585
O	0.186067	-2.232097	0.71874
O	-1.627625	-1.13841	1.24597
N	-0.395332	1.199627	0.699513
H	0.38302	1.463744	1.295553
H	-1.215299	1.020334	1.264989
H	2.793579	0.0	0.0
