18

C	-0.463028	0.001214	-1.457937
C	0.0	0.0	0.0
Cl	-0.073218	-1.674964	-2.149769
H	1.094302	0.0	0.0
N	-1.845519	0.321594	-1.606164
H	-2.093185	0.34244	-2.588018
H	-2.404086	-0.371516	-1.122056
C	0.412856	0.971363	-2.229733
H	0.184588	1.988961	-1.905868
H	0.214653	0.887972	-3.302135
H	1.46371	0.755811	-2.016193
N	-0.545984	-1.185664	0.74933
O	-1.740455	-1.468663	0.585052
O	0.194059	-1.765752	1.532484
N	-0.418991	1.171882	0.717044
H	-1.166055	1.652445	0.235129
H	0.388762	1.768857	0.849107
H	2.820006	0.0	0.0
