13

C	-0.38783	-0.040567	-1.461623
C	0.0	0.0	0.0
Br	-2.33037	0.065487	-1.736684
H	1.093673	0.0	0.0
H	-0.057994	-0.961531	-1.932069
H	0.038709	0.824607	-1.965128
N	-0.453429	-1.31537	0.626103
O	-1.108787	-1.294069	1.662575
O	-0.12041	-2.335178	0.021031
N	-0.443718	1.106544	0.762331
H	-1.297564	1.520822	0.426415
H	0.294543	1.781989	0.87406
Cl	3.286698	0.0	0.0
