18

C	-0.282229	-0.039871	-1.497814
C	0.0	0.0	0.0
Br	-2.257163	-0.17168	-1.829545
H	1.106494	0.0	0.0
C	0.192624	1.229877	-2.179118
H	1.268437	1.316479	-1.989546
H	-0.311278	2.102425	-1.767946
H	0.016027	1.168445	-3.256986
N	0.315201	-1.255229	-2.014066
H	1.293423	-1.246553	-1.718526
H	0.294098	-1.241063	-3.02792
N	-0.525534	-1.193682	0.668859
H	0.146635	-1.456178	1.382839
H	-0.536404	-1.9491	-0.009674
N	-0.469175	1.227052	0.611487
H	-1.370292	1.020219	1.029208
H	0.173402	1.479461	1.352824
Br	3.572012	0.0	0.0
