15

C	-0.447964	-0.026732	-1.438717
C	0.0	0.0	0.0
F	0.012432	1.039099	-2.135745
H	1.094053	0.0	0.0
H	-0.339409	-0.925197	0.472539
C	-0.113408	-1.265826	-2.154669
N	0.125659	-2.255996	-2.738613
N	-1.98758	0.070917	-1.464966
O	-2.485129	1.117028	-1.85444
O	-2.58142	-0.905989	-1.023418
C	-0.520385	1.229031	0.73631
H	-0.267395	2.140122	0.191908
H	-1.603002	1.201707	0.893724
H	-0.032369	1.281972	1.710785
Cl	3.393334	0.0	0.0
