15

C	-0.448368	-0.012488	-1.438688
C	0.0	0.0	0.0
F	0.008887	1.06121	-2.12563
H	1.094032	0.0	0.0
H	-0.339029	-0.929914	0.46347
C	-0.112633	-1.243788	-2.16753
N	0.127532	-2.227855	-2.762022
N	-1.988285	0.080259	-1.462742
O	-2.489651	1.129115	-1.839559
O	-2.578493	-0.903627	-1.032232
C	-0.520875	1.221304	0.748508
H	-0.033085	1.264517	1.723502
H	-1.603502	1.192195	0.905419
H	-0.268131	2.137847	0.213403
Cl	3.39081	0.0	0.0
