15

C	-0.467318	-0.018387	-1.433765
C	0.0	0.0	0.0
F	-0.039156	-1.122326	-2.094676
H	1.095151	0.0	0.0
H	-0.343259	0.93685	0.445264
C	-1.935813	0.058226	-1.567018
N	-3.10813	0.075958	-1.635
N	0.083742	1.208032	-2.174628
O	-0.326294	2.283303	-1.750099
O	0.854331	1.014545	-3.099335
C	-0.518658	-1.209447	0.76849
H	-1.610992	-1.229995	0.835559
H	-0.174623	-2.133308	0.301339
H	-0.11069	-1.184465	1.780265
Cl	3.413262	0.0	0.0
