15
Coordinates from ORCA-job run
  C   1.06840545452624     -0.03933111959514      0.01297049795095
  C   -0.39842778274174      0.04240117927823     -0.38961706120075
  Br  2.05328048899598     -0.78784523822306     -1.49593385286287
  H   -0.48613924073080      0.66160721730031     -1.28301492686375
  H   1.19864812298939     -0.76274244149247      0.82383902080160
  N   1.58296495342977      1.28816467733543      0.28090559550200
  H   1.30766613774511      1.55108315370587      1.22141596547688
  H   2.59439975941896      1.28418213695236      0.24398916978136
  N   -1.13116770685694      0.80294156110808      0.68159177234066
  O   -2.06556962196912      1.51128640332706      0.32519295861674
  O   -0.77765472810222      0.61478282188327      1.84727440435741
  C   -1.10415098299299     -1.29475047003640     -0.53860278548821
  H   -1.02216693110724     -1.87135642404174      0.38567824791661
  H   -2.16015648481809     -1.13352110598389     -0.76221523468325
  H   -0.66093143778632     -1.86590235151791     -1.35347377164539
