15
Coordinates from ORCA-job run
  C   1.05207918570581      0.25647348101962     -0.44748513005507
  C   -0.45129291052376     -0.01577861750652     -0.53887025754608
  Br  1.52672148927894      1.75449456154371     -1.69619879640693
  H   -0.76383844525573      0.08368381022654     -1.57713124980846
  H   1.55492493549672     -0.58936605717598     -0.92405845692842
  N   1.48960208969621      0.52656824685167      0.86158014360795
  H   0.81134070409387      0.41923176823738      1.59824787965420
  H   2.40856206896583      0.18959945164078      1.09126847198065
  N   -1.20048997927644      1.05051163009087      0.20140786983001
  O   -1.66100097133269      1.98048437589806     -0.45103852802195
  O   -1.26979500361398      0.92839516040205      1.42689155914282
  C   -0.80622695709267     -1.38606748511056      0.01781257799852
  H   -0.33364229112853     -1.56563287718189      0.98216239557663
  H   -1.88554243572768     -1.48350383989069      0.14448849188106
  H   -0.47340147928590     -2.15009360904504     -0.68807697090491
