15
Coordinates from ORCA-job run
  C   1.05806733885231      0.26265106700269     -0.43516889233435
  C   -0.44575147338018     -0.00431940730110     -0.55261944975555
  Br  1.50208681275767      1.87154657481595     -1.58675372267201
  H   -0.77317113906643      0.13184926780134     -1.58217753833800
  H   1.57554355881352     -0.53208914187185     -0.97411799302382
  N   1.51665254062875      0.38034099462656      0.87422765867492
  H   0.85081535722038      0.55045462659327      1.60848087591803
  H   2.34632137430784     -0.11922025739685      1.13415781054441
  N   -1.19553347392311      1.05923160353718      0.20349831704537
  O   -1.23111657666559      0.95687524383960      1.43334738454827
  O   -1.69236122642706      1.97231706114606     -0.44669172663285
  C   -0.80959904465345     -1.37366969081008     -0.01152707894232
  H   -0.31905880655637     -2.13930408793878     -0.61730894529256
  H   -1.88782030270248     -1.53396347844312     -0.06922608015226
  H   -0.49407493920580     -1.48270037560088      1.02387938041272
