15
Coordinates from ORCA-job run
  C   1.11847215738100     -0.02100118223454     -0.04115947793959
  C   -0.38177586468071      0.02499554684284     -0.35747517696874
  Br  2.02491288357786     -0.62461167456576     -1.68524092089812
  H   -0.56533318645989      0.72969988095718     -1.17089263948486
  H   1.30868371071434     -0.79867965011392      0.69911716740669
  N   1.69536224939028      1.20016746736380      0.40882834577489
  H   1.35832226594115      2.00873595532723     -0.09620154848498
  H   1.58286729798832      1.32461846261614      1.40513053388686
  N   -1.01823476897172      0.65084516141909      0.84907667758010
  O   -0.90066025533947      0.04039299260770      1.91083083077202
  O   -1.58033306980758      1.73412894038910      0.70521713498159
  C   -1.03725574213835     -1.31930142381147     -0.60871554143626
  H   -0.83121536108981     -2.00066671312596      0.21808066029218
  H   -0.65602712874332     -1.75146516743746     -1.53270938741220
  H   -2.11878518776210     -1.19985859623397     -0.70288665806960
