15
Coordinates from ORCA-job run
  C   1.02096204521275      0.13044075401505     -0.50489474037636
  C   -0.48684032515832     -0.08882173212373     -0.49997963858570
  Br  1.36840358514873      1.82041956469340     -1.57530099958343
  H   -0.83795579811075     -0.13200406601803     -1.53077317797453
  H   1.46120222756247     -0.63142340382703     -1.14919928585844
  N   1.62103357200118      0.09414832972463      0.76356727732200
  H   2.62823108758766      0.15281872365968      0.71051615491647
  H   1.25194776761442      0.80785068127856      1.37764977619892
  N   -1.20993206586422      1.08530381053638      0.08894137525884
  O   -2.16106614344014      1.53389190484316     -0.54174185536768
  O   -0.82739284478472      1.48756130429178      1.18808959155709
  C   -0.88618691602912     -1.33179029497250      0.28003755675291
  H   -0.38340484684349     -2.20446570533046     -0.14155695217509
  H   -0.59274897547405     -1.23706481913723      1.32396954757447
  H   -1.96525236942241     -1.48486505163364      0.20967537034053
