15
Coordinates from ORCA-job run
  C   1.04449113511945      0.00450068343347      0.09478433017186
  C   -0.42145027715744      0.02600894640803     -0.31959804348188
  Br  2.07313564725897     -0.83102640207171     -1.43319963322010
  H   -0.55460225940553      0.68496552286726     -1.18017438582520
  H   1.19667590686484     -0.69484914887520      0.91580090324506
  N   1.48717258790760      1.28808183394253      0.45719516987783
  H   1.43204120372779      1.95466805681292     -0.30207172305323
  H   2.41811712117005      1.28725237145938      0.84956755383358
  N   -1.14576108513709      0.70630068677282      0.81064047066254
  O   -1.15099336657548      0.11714747755708      1.88776605516033
  O   -1.67267157063280      1.78937122563715      0.57601745346250
  C   -1.05471690122223     -1.33287163387349     -0.54707913766240
  H   -0.88146651607052     -1.97998343551096      0.31354007189722
  H   -0.63809367997319     -1.79988158283577     -1.43783298953865
  H   -2.13187794587443     -1.21968460172350     -0.68635609552945
