11
Coordinates from ORCA-job run
  C   0.00014597671928     -0.61538554810158     -0.03762326593007
  C   -0.79712577131230      0.49084566016634      0.01971374558902
  H   -1.87357067616178      0.43149994876216      0.07390276015947
  C   -0.68617972641383     -1.88146871855293     -0.02457013372889
  N   -1.22993407144355     -2.92427560580124     -0.00333234155520
  N   1.34841592152672     -0.67996810875902     -0.17907807779664
  H   1.80641944475477     -1.54652619880159      0.04671040768560
  H   1.85393619767656      0.18363681891305     -0.05015539949511
  N   -0.27692201813447      1.82247532893667      0.04351017172570
  O   0.95180902980160      1.98297310042246     -0.01500106389305
  O   -1.09599430701301      2.73719332281570      0.12592319723916
