11
Coordinates from ORCA-job run
  C   0.23882595437049     -0.46747756756584     -0.13229454610459
  C   -0.02228229741749      0.85397839212457     -0.28020627358155
  H   0.50433467961521      1.48185760994051     -0.98681158225373
  C   -0.43878862656302     -1.31439862266423      0.81356801185648
  N   -0.87349756687885     -2.13143864743785      1.53941629015273
  N   1.13218575280362     -1.14731133275195     -0.93142171083854
  H   1.53261680563692     -1.98215534918122     -0.53406561493181
  H   1.78351183750778     -0.58527670865415     -1.45741163276510
  N   -1.02796054793086      1.56534955815623      0.46795112689631
  O   -1.10649563370471      2.77147212207505      0.22458110185887
  O   -1.72245035743909      0.95440054595888      1.27769482971092
