11
Coordinates from ORCA-job run
  C   -0.06184158237496     -0.60845041610481     -0.08100929857826
  C   -0.74344404629503      0.55844666791298      0.10961862789057
  H   -1.82139899185829      0.61369534709660      0.09353549625832
  C   -0.87316448022598     -1.77690792609855     -0.30562620150288
  N   -1.52104605005308     -2.73863905126195     -0.50263653844239
  N   1.27605549612703     -0.82677778873625     -0.01444738488621
  H   1.63866255471331     -1.67133056103171     -0.42281509017855
  H   1.86279705943123     -0.00607154850540      0.00140186548848
  N   -0.09092783751754      1.81358185504621      0.31871928347910
  O   1.14879602874843      1.84225401204311      0.35164517787691
  O   -0.81448815069510      2.80019940963978      0.45061406259492
