11
Coordinates from ORCA-job run
  C   0.22008595120354     -0.46798107151930     -0.15901197112745
  C   0.20249975578364      0.87610171519265      0.01191599995709
  H   1.05771280783201      1.50659489694537     -0.19251424362728
  C   -0.90236042734010     -1.32376757866954      0.12247975242825
  N   -1.70618984265423     -2.15896867800910      0.32182072751943
  N   1.29725873703051     -1.14008935195864     -0.69382448398240
  H   2.17361434608538     -0.64235184417162     -0.71766856252413
  H   1.37862088917068     -2.11334221919090     -0.44650307921140
  N   -0.94827383553487      1.61553226724896      0.46619701714997
  O   -0.77628322938617      2.83047381606783      0.58605632074196
  O   -1.99568515219039      1.01679804806429      0.70205252267596
