11
Coordinates from ORCA-job run
  C   0.23820285438903     -0.47727465100474     -0.09205369642488
  C   0.22493784475999      0.86627423167663      0.08419210393489
  H   1.10133829708373      1.48592627957181     -0.05323758502742
  C   -0.92034518131894     -1.31532432257604      0.07004150549737
  N   -1.76442745132085     -2.13162155078203      0.13754385417149
  N   1.38790372276008     -1.18348597741213     -0.37065957395255
  H   2.17724714581949     -0.64828993256217     -0.69804059828391
  H   1.26142181935609     -2.06539787749578     -0.84112709313766
  N   -0.93921598314176      1.61524452530530      0.48502900868870
  O   -1.99220509128922      1.02089472142077      0.70705886878275
  O   -0.77385797709766      2.83405455385837      0.57125320575122
