11
Coordinates from ORCA-job run
  C   -0.03802764311296     -0.60888404310457     -0.08172441932645
  C   -0.76549290893184      0.52943390211098      0.11703966844140
  H   -1.84475989271132      0.53429499736239      0.13094812944678
  C   -0.80557658883655     -1.81262162201072     -0.27383315907409
  N   -1.41351809644035     -2.80666890456636     -0.43394868923755
  N   1.30816651206923     -0.76716815226092     -0.05732324690000
  H   1.86419545538229      0.07422398375298     -0.04829497104824
  H   1.70052628876252     -1.61032963059509     -0.43937192918635
  N   -0.16148485873080      1.81029004101061      0.30965487342510
  O   -0.92125487910862      2.76549081789031      0.46594612467454
  O   1.07722661165840      1.88993861041039      0.31090761878488
