11
Coordinates from ORCA-job run
  C   -0.02173169395966     -0.61280921644171     -0.07685297402586
  C   -0.77450001408025      0.50321601283438      0.15057499626572
  H   -1.85139459080722      0.48074540319931      0.21980360930467
  C   -0.75786136361445     -1.84011334618942     -0.23932355732497
  N   -1.35287437125095     -2.84566050492389     -0.37536605660741
  N   1.32901631255495     -0.72592398276114     -0.11022483194751
  H   1.85493060554501      0.13433476795503     -0.12079371242046
  H   1.73576765265131     -1.55709032489459     -0.50406962163161
  N   -0.20327512898026      1.80370430250880      0.30952131139119
  O   -0.98587273501647      2.73422284390840      0.49997338944898
  O   1.02979532695799      1.92537404480484      0.24575744754727
