11
Coordinates from ORCA-job run
  C   0.27346440211943     -0.45518690787672     -0.10593029887795
  C   0.10408484613450      0.88905477289986     -0.08205427605248
  H   0.80038914011394      1.57853582319997     -0.54090052812341
  C   -0.65069373339575     -1.38687635710341      0.48475635685347
  N   -1.30718304451627     -2.27457238740019      0.89019742674109
  N   1.39334375332188     -1.05861174414123     -0.63524580362805
  H   1.27739086416850     -2.00963579568376     -0.94698700054945
  H   1.96821504096762     -0.49091387091798     -1.23839817660888
  N   -1.00257301611765      1.55055388709054      0.56201864498092
  O   -1.01044811608034      2.77918670684838      0.45823738747898
  O   -1.84599013671587      0.87946587308454      1.15330626778575
