11
Coordinates from ORCA-job run
  C   -0.04390098741465     -0.61138655736217     -0.06799307619903
  C   -0.69802134226551      0.50480432071908      0.36673401454744
  H   -1.71906104817640      0.48303677726400      0.71627674846245
  C   -0.80218835745164     -1.83512167129264     -0.02855145487227
  N   -1.41030342636896     -2.84185058594972     -0.01392529634075
  N   1.24868493049579     -0.73423961047627     -0.46306586053108
  H   1.50775195979349     -1.55352913378596     -0.98575287924289
  H   1.74931080892039      0.12574810671886     -0.62965880224491
  N   -0.10085870105226      1.80381164542470      0.36784064731133
  O   1.07201102588363      1.92047708050737     -0.01925524287215
  O   -0.80242486236388      2.73724962823273      0.75635120198188
