11
Coordinates from ORCA-job run
  C   -0.07897092400518     -0.57704075506077     -0.17700786424864
  C   -0.78277784129836      0.55560119641021      0.10585095324737
  H   -1.85685613084076      0.58962536245560      0.18262661912884
  C   -0.82251287782582     -1.78564858083679     -0.41729656246774
  N   -1.30891381088829     -2.84810919388374     -0.58447821373555
  N   1.26586732989719     -0.75100865828619     -0.17103143264332
  H   1.84677439197908      0.07000975330654     -0.08885262892141
  H   1.64702180438580     -1.58074124320707     -0.58602252868759
  N   -0.13680742435075      1.78173775519977      0.47342660494785
  O   1.09994846608814      1.83936945017833      0.44439831428540
  O   -0.87177298314103      2.70620491372410      0.81938673909479
