11
Coordinates from ORCA-job run
  C   0.20502838294050     -0.46548147217031     -0.18551613596891
  C   0.28804229459230      0.79766042785853      0.29772712312314
  H   1.22685286462959      1.26413961008772      0.56587175798254
  C   -1.03537928076306     -1.10883673956591     -0.53001802349385
  N   -1.95098825119889     -1.78216354981373     -0.83284168470797
  N   1.31411233563176     -1.23397517231319     -0.46518890062967
  H   2.18540036734309     -0.93127546125395     -0.05793240774514
  H   1.17451078860394     -2.23171105893678     -0.45082437033591
  N   -0.84890882715960      1.66140621456967      0.49514716036156
  O   -1.97194933739368      1.25732603677921      0.20080421742701
  O   -0.58772133722594      2.77191116475875      0.96277126398719
