11
Coordinates from ORCA-job run
  C   -0.00583509829747     -0.61520585731282     -0.03530093349874
  C   -0.69805110178192      0.47576085352472      0.40428807848932
  H   -1.61797169139910      0.39587242786268      0.96339741684537
  C   -0.58264344259605     -1.89395938506020      0.29028379853242
  N   -1.03599397350101     -2.94677475670412      0.55420603521621
  N   1.11377570643158     -0.65433511848439     -0.80081788778724
  H   1.63654838724612     -1.51292087753093     -0.83332903073728
  H   1.60459594369686      0.21847781355835     -0.92409138655845
  N   -0.25487978084952      1.81708942265483      0.18388817150873
  O   0.79541467543767      2.00047706067205     -0.45029648876165
  O   -0.95495962438715      2.71651841681984      0.64777222675131
