11
Coordinates from ORCA-job run
  C   0.25927174985739     -0.44020123658858     -0.17652985547992
  C   0.14691217792622      0.70328917198009      0.54170229565686
  H   0.89471782992272      1.02657018796370      1.25385896075178
  C   -0.73288976881579     -0.89565358923806     -1.11432196453251
  N   -1.44464802262531     -1.41947746115430     -1.89049036836545
  N   1.37782553490254     -1.24368952166272     -0.13350996643532
  H   2.00578304465106     -1.10101574709699      0.64227620172075
  H   1.23753923113490     -2.21018264869963     -0.38122614567918
  N   -0.96406816605496      1.61504686823445      0.43533359791515
  O   -1.86331757222610      1.37876950935532     -0.36892560345259
  O   -0.91812603867268      2.58754446690673      1.19183284790042
