11
Coordinates from ORCA-job run
  C   -0.04369712707572     -0.60813944411557     -0.09135897884093
  C   -0.68008611383704      0.48349598925158      0.42454827977210
  H   -1.62174658148813      0.41656703008679      0.94783733556469
  C   -0.71117385520618     -1.86952245175611      0.10339944525192
  N   -1.24065269496257     -2.90738748199911      0.26513035773972
  N   1.09547466548911     -0.65359992535093     -0.82660308840530
  H   1.56422555900159     -1.53796309126286     -0.92406648364936
  H   1.64101874433898      0.19392416612158     -0.86450220859764
  N   -0.14336326662913      1.80599528796687      0.34170015719332
  O   0.93528138035714      1.97510934692352     -0.24749158846084
  O   -0.79628070998805      2.70452057413425      0.87140677243232
