11
Coordinates from ORCA-job run
  C   -0.10699031424855     -0.60832211963539     -0.07970977558375
  C   -0.80685883807555      0.54130008918793      0.00796398333104
  H   -1.87460872516424      0.62589080231757     -0.12647873263921
  C   -0.80791047071727     -1.80629923558763     -0.45364652650810
  N   -1.31080878929943     -2.80799991712591     -0.80919410340302
  N   1.22990037295022     -0.78827626588625      0.20670904756601
  H   1.77987543546500      0.04420639679761      0.34688401299270
  H   1.70548734935205     -1.50839670510970     -0.30866101633640
  N   -0.10772799339337      1.78216361170803      0.32524061486397
  O   0.15496654619983      2.52410471824140     -0.62058672197656
  O   0.14567542693131      2.00262862509235      1.51047921769333
