11
Coordinates from ORCA-job run
  C   0.20455904847192     -0.48705229270178     -0.11626877588535
  C   0.27136881599026      0.78594847354517      0.34297499910627
  H   1.20122831407476      1.26172743509408      0.62550837221154
  C   -1.02035834344793     -1.12921736240577     -0.51430695558423
  N   -1.91702268788558     -1.78774578954802     -0.89605401751404
  N   1.30044326287495     -1.31985597960004     -0.17431594153544
  H   2.20584893452623     -0.88109834601477     -0.11038895297077
  H   1.24930681339945     -2.07296589558459     -0.84150225943916
  N   -0.87532388796372      1.64230295967195      0.51316524701544
  O   -0.62336103960289      2.78192471994419      0.91064478907726
  O   -1.99668923043745      1.20703207759959      0.25954349551847
