11
Coordinates from ORCA-job run
  C   -0.05977146381748     -0.60185072555547     -0.11993779524768
  C   -0.64384982197733      0.46921409308546      0.49190885698436
  H   -1.61738354419833      0.41661842929053      0.95519505104302
  C   -0.82514611127571     -1.82179008434354     -0.10852624580088
  N   -1.44182231399035     -2.82335324365669     -0.11845792011958
  N   1.17652382724884     -0.68974661000451     -0.67299348431208
  H   1.36136272271391     -1.45576814894423     -1.29807366653882
  H   1.66651208733797      0.18074862910242     -0.81485318557040
  N   -0.03253721106407      1.76061597444683      0.54657026187850
  O   -0.67161545024031      2.65447436429423      1.10065170254662
  O   1.08872727926286      1.91083732228499      0.03751642513693
