11
Coordinates from ORCA-job run
  C   0.20600884499126     -0.46080136498637     -0.19452267757158
  C   0.28536137799283      0.77690688536436      0.35126470490829
  H   1.21668167119833      1.21316179785991      0.68764535573820
  C   -1.02486987499029     -1.06194141723833     -0.63566795883567
  N   -1.93177401010897     -1.70291189685634     -1.02300081198882
  N   1.31530078757640     -1.23692691650372     -0.45185725665468
  H   2.16822511161862     -0.97067861765668      0.01528202230941
  H   1.15818943939210     -2.23130324249982     -0.49282395956237
  N   -0.84510300145969      1.65350645884046      0.52757206377975
  O   -0.59068311241069      2.73562819113771      1.06083189243764
  O   -1.95733723379990      1.28636012253884      0.15427662543983
