11
Coordinates from ORCA-job run
  C   -0.07856884708507     -0.59149688645962     -0.15747708839348
  C   -0.65682386651808      0.47584725250552      0.46617853160772
  H   -1.60780785053067      0.41015719193151      0.97270587896697
  C   -0.82268855365755     -1.82349856465980     -0.10465367628114
  N   -1.41480709705989     -2.83886064093907     -0.06169911344249
  N   1.06644510305188     -0.62709671776583     -0.88567931851462
  H   1.48639227190624     -1.52396850769917     -1.06135456065839
  H   1.66467266676717      0.18242214889502     -0.81769869178569
  N   -0.04182192681618      1.76501387797280      0.53006852902307
  O   1.05565047393923      1.92970437602681     -0.02430932892411
  O   -0.65064237399707      2.64077647019184      1.14391883840215
