11
Coordinates from ORCA-job run
  C   0.20942264842787     -0.46870426640494     -0.17257142323821
  C   0.15209754608629      0.88203694152986     -0.08323630532215
  H   0.91754746280285      1.53114716212386     -0.48783497403431
  C   -0.79085417149284     -1.34778612667768      0.37300065522990
  N   -1.49573342189049     -2.19850316075078      0.77657450341852
  N   1.19835219725941     -1.13114828952989     -0.86732606407564
  H   1.37995354289148     -2.07903874945245     -0.57733969119423
  H   2.02704700539850     -0.59942947798321     -1.08509414853060
  N   -0.92600987952817      1.60318979967231      0.54552003689262
  O   -1.87355132776408      0.97982220647082      1.01979520921493
  O   -0.79827160219082      2.82941396100211      0.55851220163914
