11
Coordinates from ORCA-job run
  C   0.20970811745405     -0.46874915097087     -0.17170403180002
  C   0.14954528040639      0.88229447422823     -0.08806394102095
  H   0.90870789059851      1.53229651053425     -0.50282697410630
  C   -0.78306364009778     -1.34776736500263      0.38786363839811
  N   -1.48271000963796     -2.19824359825501      0.80088205029778
  N   1.19324834541048     -1.13219233014014     -0.87288830594829
  H   1.37886337841600     -2.07895172833587     -0.58231550786052
  H   2.01818445910350     -0.59989590391302     -1.10290048202028
  N   -0.92497997841217      1.60307574807908      0.54698566596828
  O   -1.86686774898466      0.97940320950608      1.03195816549287
  O   -0.80063609425635      2.82973013426990      0.55300972259933
