11
Coordinates from ORCA-job run
  C   -0.03168236496903     -0.61270232215186     -0.06054340547758
  C   -0.73832925074032      0.50527281905684      0.27585432844726
  H   -1.79321631085588      0.48076515534902      0.50396175777269
  C   -0.78149447086061     -1.84225892343901     -0.08283183689010
  N   -1.38066778109955     -2.85388779895138     -0.11549765499968
  N   1.29838691877266     -0.73186798681938     -0.30243606505094
  H   1.80906569660869      0.12929057358911     -0.42745606328818
  H   1.62022914223975     -1.55839584851342     -0.77667055539520
  N   -0.15405562953485      1.80952836814573      0.31803065555870
  O   1.05479459037292      1.92877511289225      0.06617130308206
  O   -0.90203053993377      2.74448085084209      0.60241753624099
