11
Coordinates from ORCA-job run
  C   -0.01642295943021     -0.60718735366465     -0.10593451002209
  C   -0.76534303383595      0.47380732925928      0.25895459958903
  H   -1.80099133130016      0.39373063919240      0.55268993324505
  C   -0.69556435989035     -1.87690793289754     -0.07815387091595
  N   -1.23072137227393     -2.92393464049306     -0.04989990020299
  N   1.26172986588047     -0.63549837144557     -0.56160629897230
  H   1.74955717763848     -1.51494982706555     -0.54702827213166
  H   1.79365300558322      0.21550419524282     -0.45697257513807
  N   -0.23759400416700      1.80158097039783      0.31248685118191
  O   -1.00414526300395      2.68881277793067      0.68611947745720
  O   0.94584227479936      1.98604221354338     -0.01065543409012
