11
Coordinates from ORCA-job run
  C   0.22079374055948     -0.46082524100598     -0.17817032897203
  C   0.25147505202265      0.83894538652386      0.20323586216718
  H   1.17076956315706      1.39907305942725      0.31248697442309
  C   -0.99165958030193     -1.22404427261678     -0.31549945930016
  N   -1.87506186944682     -1.98819401272409     -0.45384475445561
  N   1.34933528550752     -1.15860287404643     -0.54858795397660
  H   1.30208679065478     -2.16053174133361     -0.45625096619776
  H   2.23518526477095     -0.75725862195964     -0.28327413821908
  N   -0.92337404294093      1.62173745400643      0.49290520563725
  O   -2.03451343224951      1.10977208442018      0.37202227307430
  O   -0.70503677173324      2.77992877930876      0.85497728581942
