11
Coordinates from ORCA-job run
  C   -0.04835067136692     -0.61089363632680     -0.07117989028556
  C   -0.63451349440274      0.48987264557756      0.48325687569618
  H   -1.58265175648284      0.44909721726570      0.99771176782152
  C   -0.77622529795959     -1.84521533329658      0.07288300794276
  N   -1.36248778792595     -2.85996699735179      0.17346634633969
  N   1.16288327898906     -0.71008889415200     -0.67530969115249
  H   1.61971658528116      0.15887922892200     -0.90802726361761
  H   1.34076280953874     -1.51844062373483     -1.24683983304492
  N   -0.05794281011837      1.79631260894611      0.41029365278900
  O   -0.69412357657206      2.71382028075629      0.92786811819629
  O   1.03293272101951      1.93462350339435     -0.16412309068488
