11
Coordinates from ORCA-job run
  C   0.21226768580428     -0.45514580798818     -0.20217168675884
  C   0.27299268889531      0.80370223651504      0.29525546826755
  H   1.20642951983532      1.30094726858304      0.52412011948751
  C   -1.01931506929883     -1.14005655160139     -0.49414427658301
  N   -1.92341338388469     -1.84377225295683     -0.76020631852767
  N   1.33378126119911     -1.17639901295251     -0.55143370989310
  H   2.21232558700203     -0.84734745961260     -0.18192901860916
  H   1.23181485088264     -2.17882332883250     -0.54440297231158
  N   -0.88304444135407      1.62135824919340      0.56277108580811
  O   -2.00342408928120      1.18455295735397      0.30734848590677
  O   -0.64041460979990      2.72998370229855      1.04479282321341
