11
Coordinates from ORCA-job run
  C   0.24087591060322     -0.47595917464542     -0.11289208377321
  C   0.09083699468550      0.68216149977604      0.57482670339286
  H   0.81983646270824      1.03886630422742      1.29048648619358
  C   -0.70292638581403     -0.93936588309647     -1.09501911919874
  N   -1.36018722229510     -1.43500742389921     -1.93463406977803
  N   1.26769819422992     -1.36145737219084      0.12588391025185
  H   2.05483658929160     -1.00147053654802      0.64485403654180
  H   1.52587998802223     -1.96626024199610     -0.63741811498366
  N   -1.02866462582142      1.57476524933337      0.41761127197531
  O   -0.94958478437458      2.63563036507726      1.04222169637258
  O   -1.95860112123558      1.24709721396198     -0.31692071699434
