11
Coordinates from ORCA-job run
  C   -0.04532757633462     -0.61122532381324     -0.06311716478715
  C   -0.63602285615835      0.49303212885890      0.48003954635994
  H   -1.58220345695643      0.45222853778159      0.99813127604345
  C   -0.76570845519866     -1.84793567474622      0.09811854753105
  N   -1.34574334334163     -2.86507357596918      0.20938844654378
  N   1.16237472720143     -0.71056128611761     -0.67299422937202
  H   1.34946005278479     -1.52877052912222     -1.22698421808482
  H   1.61937590838224      0.15633068303112     -0.91178664650181
  N   -0.06764654263080      1.80146307774544      0.38744687215070
  O   -0.70908443937062      2.72303374644615      0.89083401755910
  O   1.02252598162265      1.93747821590526     -0.18907644744223
