11
Coordinates from ORCA-job run
  C   -0.04843724213290     -0.61775651009364     -0.11965739513711
  C   -0.77150780809403      0.51770169364452      0.13940279005523
  H   -1.82189121096614      0.47186148748461      0.38564506032916
  C   -0.77723836345111     -1.85513747847881     -0.01735417135433
  N   -1.34181231527048     -2.87863265648936      0.10565957402788
  N   1.25509219126566     -0.70383715203283     -0.51569818886191
  H   1.74019553631523     -1.57341346034823     -0.41963197963215
  H   1.78126064810348      0.15824137975030     -0.44539624966039
  N   -0.16467988510684      1.81437811354511      0.25344487248781
  O   -0.88081036776673      2.72435290372827      0.67106028653641
  O   1.02982881710386      1.94324167929005     -0.03747459879059
