11
Coordinates from ORCA-job run
  C   0.01417917089395     -0.61545167193567     -0.03500534076450
  C   -0.65435294153804      0.44886647639971      0.49702876128114
  H   -1.56232217418468      0.33938950587200      1.07041910396110
  C   -0.56754563181354     -1.90842899151834      0.21805639748914
  N   -1.03484203173951     -2.97132589357097      0.40609846284345
  N   1.19271087494614     -0.62351516748511     -0.70805506056798
  H   1.42361158477284     -1.44056205701338     -1.24730891867073
  H   1.53970826170920      0.27328221302215     -1.01356937457146
  N   -0.22776868278263      1.80178090190988      0.31823866725355
  O   -0.93049729585456      2.67689466520879      0.82292854368380
  O   0.80811886559081      2.01907001911093     -0.32883124193752
