11
Coordinates from ORCA-job run
  C   0.22275694584090     -0.46903662383244     -0.15227470156598
  C   0.24631051623703      0.77600451183825      0.38211855416374
  H   1.16252969148266      1.27626397442201      0.66670828833506
  C   -0.98367401092506     -1.14316111216544     -0.55445040481485
  N   -1.86106771999726     -1.81872515310607     -0.95094709444884
  N   1.35339266215778     -1.24398843807819     -0.29342829131633
  H   2.23811426154352     -0.76430472002900     -0.23223907913875
  H   1.31551492105742     -1.95340644911145     -1.00781289140476
  N   -0.93236729674260      1.56366790397070      0.64187014244873
  O   -0.72043388707461      2.68556587424705      1.10708366742433
  O   -2.04007608357979      1.09212023184460      0.39337181031766
