14

C	0.0	0.0	0.0
C	-0.444165	0.046813	-1.504176
Br	1.935628	0.0	0.0
H	0.473263	0.131383	-2.091278
H	-0.366421	-0.877919	0.522309
N	-0.38015	1.173287	0.869563
O	-0.209526	2.300604	0.428617
O	-0.739028	0.880237	2.005411
N	-1.270737	1.166685	-1.892666
H	-2.166915	1.054142	-1.410114
H	-1.440749	1.09407	-2.88941
C	-0.964616	-1.300519	-1.848321
N	-1.247686	-2.362634	-2.264248
Cl	-3.339589	0.0	0.0
