14

C	0.0	0.0	0.0
C	-0.483814	0.166557	-1.469492
Br	1.924188	0.0	0.0
H	0.160213	0.941381	-1.898196
H	-0.379112	-0.887315	0.503747
N	-0.433319	1.183593	0.818897
O	-0.366774	2.283799	0.278345
O	-0.781195	0.95578	1.971007
N	-1.84246	0.539894	-1.706868
H	-1.989315	1.506287	-1.447797
H	-2.559699	0.003621	-1.205757
C	-0.161249	-1.096566	-2.159128
N	0.102942	-2.104908	-2.69921
Cl	-4.392145	0.0	0.0
