14

C	0.0	0.0	0.0
C	-0.625313	0.078015	-1.395736
Br	1.94504	0.0	0.0
H	-1.54932	0.655622	-1.262805
H	-0.354433	-0.878157	0.531467
N	-0.366875	1.19929	0.834644
O	-0.469599	1.015628	2.040936
O	-0.472625	2.269897	0.246511
N	-0.926634	-1.296866	-1.805363
H	-1.851807	-1.468386	-1.409156
H	-1.022765	-1.329495	-2.812698
C	0.203501	0.75723	-2.388304
N	0.801452	1.284106	-3.251759
Cl	-3.409653	0.0	0.0
