14

C	0.0	0.0	0.0
C	-0.642267	0.144665	-1.362689
Br	1.92591	0.0	0.0
H	-1.710184	0.311643	-1.115249
H	-0.341336	-0.929348	0.448346
N	-0.408211	1.104729	0.942287
O	-0.367114	0.836499	2.136905
O	-0.715113	2.181688	0.44437
N	-0.529563	-1.134469	-2.05555
H	0.223639	-1.115786	-2.730315
H	-1.401832	-1.319218	-2.534284
C	-0.124654	1.265736	-2.151905
N	0.300545	2.083678	-2.880954
Cl	-3.544916	0.0	0.0
