15

C	0.0	0.0	0.0
C	-0.460589	-0.009293	-1.492155
Br	1.9489	0.0	0.0
H	0.054813	-0.823065	-2.021771
H	-0.298294	0.92264	0.484658
C	-0.321677	-1.282634	0.811816
H	0.070927	-2.166805	0.289996
H	-1.385332	-1.381493	0.961659
H	0.188241	-1.224917	1.786255
N	0.087657	1.224804	-2.159236
O	-0.216853	2.30756	-1.669578
O	0.620087	1.089087	-3.265842
C	-1.964361	-0.076778	-1.854835
N	-2.989623	0.047179	-2.452903
F	-2.424664	0.0	0.0
