15

C	0.0	0.0	0.0
C	-0.572584	-0.198038	-1.405147
Br	1.947679	0.0	0.0
H	0.23814	-0.193969	-2.147832
H	-0.305334	0.985885	0.332284
C	-0.404183	-1.059617	1.020427
H	-0.03388	-2.045714	0.728854
H	0.024326	-0.802945	1.992708
H	-1.496209	-1.020207	1.036072
N	-1.418426	0.977995	-1.848182
O	-1.10072	2.081126	-1.424382
O	-2.222113	0.764034	-2.743405
C	-1.321809	-1.438394	-1.572132
N	-1.724328	-2.520552	-1.788729
F	-2.579571	0.0	0.0
