15

C	0.0	0.0	0.0
C	-0.570757	-0.243492	-1.398208
Br	1.956447	0.0	0.0
H	0.240714	-0.280159	-2.137846
H	-0.303274	0.995796	0.302501
C	-0.397471	-1.029672	1.052343
H	-1.489377	-0.994894	1.07428
H	-0.027706	-2.023383	0.787211
H	0.035623	-0.746082	2.014892
N	-1.39897	0.926198	-1.888025
O	-2.201915	0.688237	-2.777815
O	-1.074587	2.040607	-1.499661
C	-1.337334	-1.478933	-1.520122
N	-1.731704	-2.566358	-1.727291
F	-2.572582	0.0	0.0
