17

C	-0.475599	-0.011214	-1.446976
C	0.0	0.0	0.0
Br	0.300055	1.752935	-2.258584
H	1.091568	0.0	0.0
N	0.043527	-1.147424	-2.075597
H	-0.131233	-1.14271	-3.071557
H	1.035809	-1.252237	-1.871458
C	-1.973055	0.140476	-1.624081
H	-2.231128	0.165844	-2.686112
H	-2.47336	-0.707148	-1.147482
H	-2.319772	1.064756	-1.162258
N	-0.419709	-1.271981	0.654581
O	-1.457058	-1.27661	1.333132
O	0.31265	-2.245402	0.482986
C	-0.525738	1.116398	0.76132
N	-0.884467	2.039524	1.395737
H	2.541608	0.0	0.0
