17

C	-0.483169	0.024701	-1.47621
C	0.0	0.0	0.0
Br	-0.001064	-1.716378	-2.268162
H	1.091291	0.0	0.0
N	-1.899665	0.199256	-1.696553
H	-2.147704	1.134726	-1.38657
H	-2.41496	-0.45513	-1.116154
C	0.316082	1.105314	-2.180787
H	0.113337	1.06821	-3.251975
H	1.380654	0.960247	-1.969783
H	0.014218	2.086045	-1.796167
N	-0.54099	-1.183085	0.732046
O	0.230112	-2.095083	1.001578
O	-1.750543	-1.177543	0.99776
C	-0.49842	1.198519	0.651652
N	-0.890442	2.200708	1.127638
H	2.647091	0.0	0.0
