17

C	-0.442261	0.013526	-1.456428
C	0.0	0.0	0.0
Br	0.54363	-1.521746	-2.404009
H	1.090927	0.0	0.0
N	-1.84361	-0.107839	-1.620257
H	-2.155087	-0.976046	-1.199501
H	-2.081497	-0.109593	-2.605845
C	0.106415	1.263982	-2.120695
H	-0.408072	2.139241	-1.715098
H	1.178262	1.335924	-1.919877
H	-0.057017	1.21671	-3.199764
N	-0.44229	-1.127387	0.807174
O	-1.023053	-2.088633	0.267657
O	-0.109778	-1.095852	1.998462
C	-0.381272	1.222933	0.675076
N	-0.618266	2.243022	1.212396
H	2.402694	0.0	0.0
