15

C	-0.358444	0.146272	-1.500587
C	0.0	0.0	0.0
F	-1.661602	0.498862	-1.635453
H	1.095746	0.0	0.0
N	0.458246	1.050362	-2.215527
H	0.29035	1.986634	-1.863724
H	1.436781	0.813024	-2.047444
N	-0.202531	-1.235006	-2.144476
O	0.929287	-1.534521	-2.500246
O	-1.213051	-1.924063	-2.223158
C	-0.54995	-1.18293	0.648371
N	-0.989798	-2.135501	1.176886
C	-0.432181	1.218802	0.680196
N	-0.774284	2.219556	1.190729
Br	3.307775	0.0	0.0
