15

C	-0.331622	0.116109	-1.498406
C	0.0	0.0	0.0
F	-1.632122	0.46257	-1.717901
H	1.095669	0.0	0.0
N	0.538707	1.034969	-2.074886
H	0.488751	1.032353	-3.084215
H	1.498333	0.885218	-1.759004
N	-0.232997	-1.318043	-2.12389
O	0.851755	-1.610984	-2.617869
O	-1.228363	-2.031622	-2.059587
C	-0.524606	-1.190021	0.65799
N	-0.927524	-2.133425	1.22978
C	-0.465285	1.206428	0.680789
N	-0.846561	2.160006	1.249928
Br	3.312377	0.0	0.0
