15

C	-0.251666	0.00245	-1.508663
C	0.0	0.0	0.0
F	-0.076937	1.304534	-1.964151
H	1.098924	0.0	0.0
N	0.54848	-0.949767	-2.118179
H	0.463086	-0.924383	-3.124616
H	1.516864	-0.861649	-1.803851
N	-1.710166	-0.265835	-1.880081
O	-1.922264	-0.533978	-3.058447
O	-2.554939	-0.141916	-1.001367
C	-0.454382	-1.240122	0.618419
N	-0.801165	-2.238253	1.128744
C	-0.521074	1.176812	0.68145
N	-0.919204	2.127407	1.24301
Br	3.319798	0.0	0.0
