15

C	-0.359	0.114904	-1.503428
C	0.0	0.0	0.0
F	-1.652902	0.496257	-1.644939
H	1.095699	0.0	0.0
N	0.478405	0.979611	-2.244076
H	0.327599	1.92943	-1.920724
H	1.451519	0.730575	-2.061863
N	-0.23676	-1.284642	-2.110323
O	-1.267201	-1.938979	-2.211832
O	0.894121	-1.63372	-2.417612
C	-0.551462	-1.169912	0.670273
N	-0.993778	-2.114795	1.210354
C	-0.428794	1.232743	0.657266
N	-0.767222	2.243138	1.151
Br	3.309221	0.0	0.0
