15

C	-0.504861	-0.267301	-1.421075
C	0.0	0.0	0.0
F	-0.001432	-1.445208	-1.866098
H	1.094298	0.0	0.0
N	-1.90665	-0.30445	-1.522068
H	-2.181983	-0.373454	-2.494508
H	-2.337955	0.499915	-1.084014
N	0.093483	0.782707	-2.391563
O	-0.263992	0.642945	-3.560957
O	0.823308	1.65934	-1.946639
C	-0.454711	-1.095503	0.860348
N	-0.8099	-1.971931	1.556452
C	-0.522588	1.269903	0.497922
N	-0.986121	2.287415	0.859014
Br	3.328071	0.0	0.0
