15

C	-0.497018	0.035215	-1.447019
C	0.0	0.0	0.0
F	-0.041668	-1.056865	-2.103358
H	1.094272	0.0	0.0
N	-1.900724	0.078742	-1.556785
H	-2.171688	0.17673	-2.52792
H	-2.302489	0.81654	-0.993048
N	0.145078	1.229099	-2.194865
O	0.688203	2.107697	-1.538848
O	-0.032538	1.218612	-3.410775
C	-0.453382	-1.252987	0.609365
N	-0.805665	-2.25559	1.108473
C	-0.523352	1.129477	0.763984
N	-0.990496	2.03167	1.354001
Br	3.310626	0.0	0.0
