15

C	-0.015198	0.025421	-0.065085
C	-0.333477	-0.254867	-1.556744
Cl	1.795779	0.221157	0.12384
H	0.547216	-0.605389	-2.104619
H	-0.25692	-0.902345	0.44979
N	-0.72555	1.067072	0.574378
H	-1.704236	0.68908	0.647986
H	-0.6853	1.92102	0.0322
N	-0.581893	1.119215	-2.234853
O	-1.689062	1.346372	-2.716148
O	0.366584	1.903785	-2.26388
N	-1.428848	-1.133146	-1.631482
H	-2.134609	-0.896557	-0.886321
H	-1.84812	-1.111891	-2.551129
F	-2.862043	-0.394701	0.439928
