15

C	-0.047418	0.045509	-0.069187
C	-0.224651	0.259826	-1.577202
Cl	1.771652	-0.103156	0.226408
H	0.299783	-0.5289	-2.125501
H	-0.45258	-0.944792	0.131887
N	-0.671028	0.949076	0.811379
H	-0.641034	1.884787	0.43045
H	-1.647009	0.59218	0.860147
N	0.54764	1.502936	-2.036031
O	1.329142	1.36297	-2.978953
O	0.321324	2.57271	-1.476097
N	-1.599601	0.422444	-1.887267
H	-2.205887	0.115372	-1.079776
H	-1.835237	-0.097612	-2.720206
F	-2.837677	-0.426078	0.270746
