13

C	-0.354066	-0.023938	-1.467022
C	0.0	0.0	0.0
Cl	-2.159205	-0.285289	-1.681862
H	1.096058	0.0	0.0
H	-0.207853	0.977756	-1.879897
H	-0.334759	-0.943331	0.450912
N	0.357555	-1.083445	-2.120084
H	0.391679	-0.927379	-3.119038
H	1.30994	-1.0889	-1.760337
N	-0.501146	1.201321	0.656417
H	0.146875	1.458331	1.389244
H	-1.40198	1.019281	1.079761
Cl	3.489149	0.0	0.0
