13

C	-0.510736	-0.02117	-1.433348
C	0.0	0.0	0.0
Cl	0.101998	1.480658	-2.277276
H	1.091347	0.0	0.0
H	-0.065455	-0.850339	-1.98753
H	-0.354287	0.919119	0.483482
N	-1.942486	-0.124744	-1.48886
H	-2.347145	0.693109	-1.043689
H	-2.262421	-0.144814	-2.450251
N	-0.450148	-1.16996	0.749162
H	0.217084	-1.930911	0.596282
H	-1.367304	-1.462745	0.400526
Cl	3.63256	0.0	0.0
