13

C	-0.579685	-0.032533	-1.407831
C	0.0	0.0	0.0
Cl	-0.117949	1.462203	-2.274605
H	1.097621	0.0	0.0
H	-0.13038	-0.855171	-1.969087
H	-0.36674	0.901527	0.501778
N	-2.026487	-0.172149	-1.46334
H	-2.426562	0.674732	-1.068806
H	-2.224965	-0.916929	-0.797681
N	-0.513984	-1.195322	0.711099
H	0.191369	-1.919154	0.617857
H	-0.552004	-0.984126	1.700614
Cl	3.574438	0.0	0.0
