16

C	-0.545417	0.006724	-1.419292
C	0.0	0.0	0.0
Br	0.319621	1.418218	-2.502763
H	1.088181	0.0	0.0
C	-0.149332	-1.235178	-2.112283
N	0.078511	-2.220305	-2.713231
N	-1.961977	0.274449	-1.436918
H	-2.303757	0.249533	-2.39174
H	-2.411019	-0.462145	-0.900973
N	-0.42066	-1.171406	0.744496
O	-1.202192	-1.992439	0.225315
O	0.123997	-1.313911	1.845521
N	-0.421861	1.198623	0.750572
O	-1.291999	1.086451	1.618516
O	0.149555	2.244842	0.443901
H	2.391115	0.0	0.0
