16

C	-0.362289	0.042669	-1.4623
C	0.0	0.0	0.0
Br	0.425445	-1.707174	-2.314049
H	1.088391	0.0	0.0
C	-1.781878	-0.03376	-1.792434
N	-2.91411	0.008138	-2.108726
N	0.242772	1.182298	-2.011254
H	0.167534	1.1981	-3.020452
H	1.217591	1.226016	-1.705658
N	-0.541169	-1.119045	0.760573
O	-1.333397	-1.900025	0.224085
O	-0.099116	-1.218303	1.908757
N	-0.400981	1.250755	0.689804
O	0.352478	2.21385	0.558554
O	-1.450408	1.241064	1.341196
H	2.441362	0.0	0.0
