16

C	-0.451158	-0.033698	-1.446113
C	0.0	0.0	0.0
Br	0.418529	1.636448	-2.31348
H	1.087969	0.0	0.0
C	0.167625	-1.109274	-2.225824
N	0.538107	-1.934923	-2.977704
N	-1.849705	-0.072577	-1.613587
H	-2.264049	0.706563	-1.11543
H	-2.106561	-0.056288	-2.593601
N	-0.377363	-1.217074	0.713367
O	0.011568	-2.26383	0.182177
O	-0.989552	-1.145946	1.783653
N	-0.450082	1.163278	0.745062
O	-1.341813	1.901634	0.28852
O	0.165252	1.37675	1.79495
H	2.343129	0.0	0.0
