15

C	0.0	0.0	0.0
C	-0.563696	-0.068298	-1.41308
Cl	1.815014	0.0	0.0
H	-1.654363	0.10047	-1.318627
H	-0.315371	0.964256	0.394106
N	-0.538984	-1.051644	0.759665
H	-0.754018	-0.817985	1.713025
H	-0.060578	-1.929249	0.64244
N	-0.384823	-1.372915	-2.107666
O	0.388137	-2.201467	-1.629674
O	-1.04027	-1.512344	-3.134926
N	0.040692	0.994932	-2.271062
O	-0.169876	2.1381	-1.879147
O	0.719134	0.675257	-3.241277
Br	-3.746768	0.0	0.0
