15

C	0.0	0.0	0.0
C	-0.51745	0.230299	-1.401832
F	1.400096	0.0	0.0
H	-1.612603	0.246526	-1.248474
H	-0.238266	-0.655966	-1.996225
C	-0.38613	1.124326	0.879271
N	-0.578308	1.974016	1.664774
C	-0.52196	-1.298082	0.572548
H	-1.618309	-1.170366	0.538508
H	-0.18517	-2.127029	-0.057196
H	-0.149001	-1.444354	1.588605
N	-0.007062	1.486523	-1.944512
H	-0.629809	1.817368	-2.666549
H	0.909156	1.351605	-2.349529
F	-2.897646	0.0	0.0
