15

C	0.0	0.0	0.0
C	-0.54491	-0.034672	-1.420274
F	1.388322	0.0	0.0
H	0.109998	-0.710014	-1.983261
H	-1.566008	-0.418623	-1.311195
C	-0.403956	1.240418	0.696706
N	-0.567971	2.244181	1.282543
C	-0.493353	-1.203091	0.779848
H	-0.192321	-2.113785	0.249728
H	-0.05482	-1.212126	1.782165
H	-1.587417	-1.086792	0.792119
N	-0.512733	1.304499	-2.030633
H	-0.656664	1.194671	-3.028575
H	-1.346103	1.772417	-1.682393
F	-2.848712	0.0	0.0
