15

C	0.0	0.0	0.0
C	-0.274001	0.078302	-1.52769
F	1.39425	0.0	0.0
H	0.083609	-0.893534	-1.89417
H	0.460977	0.82091	-1.871429
C	-0.399591	1.249886	0.677654
N	-0.616664	2.249157	1.253659
C	-0.605086	-1.1957	0.683894
H	-1.700352	-1.05149	0.584858
H	-0.308848	-1.233482	1.735884
H	-0.275528	-2.107756	0.177051
N	-1.602813	0.418	-1.985145
H	-2.2979	0.344452	-1.187445
H	-1.904905	-0.274006	-2.654834
F	-3.138477	0.0	0.0
