15

C	0.0	0.0	0.0
C	-0.518336	0.047034	-1.419725
F	1.400348	0.0	0.0
H	-1.612596	0.096748	-1.264897
H	-0.254564	-0.914327	-1.891538
C	-0.385014	1.235156	0.719321
N	-0.556645	2.207139	1.354298
C	-0.517396	-1.214046	0.738091
H	-0.17467	-2.116966	0.222338
H	-0.141703	-1.2236	1.764515
H	-1.614972	-1.101004	0.688871
N	0.009075	1.212602	-2.126106
H	-0.597603	1.435894	-2.903796
H	0.931373	1.013157	-2.491027
F	-2.894421	0.0	0.0
