15

C	0.0	0.0	0.0
C	-0.524792	-0.063051	-1.416656
F	1.400488	0.0	0.0
H	-0.253134	-1.052782	-1.819389
H	-1.619658	-0.011705	-1.259229
C	-0.387525	1.286431	0.621553
N	-0.558764	2.312305	1.164818
C	-0.517402	-1.154171	0.828624
H	-0.150851	-1.079742	1.85554
H	-1.614932	-1.050314	0.76589
H	-0.166947	-2.094413	0.390225
N	-0.014792	1.05308	-2.21386
H	-0.664366	1.251246	-2.961773
H	0.87745	0.814117	-2.622952
F	-2.896398	0.0	0.0
