15

C	0.0	0.0	0.0
C	-0.168153	0.083817	-1.572332
F	1.396075	0.0	0.0
H	0.465497	0.932479	-1.839549
H	0.358988	-0.810497	-1.899137
C	-0.461792	1.184202	0.730155
N	-0.583707	2.180859	1.341326
C	-0.379799	-1.316819	0.649723
H	0.063206	-1.355166	1.648708
H	-1.464205	-1.388828	0.686286
H	0.072014	-2.1135	0.053525
N	-1.411014	0.179051	-2.297213
H	-2.044273	-0.515344	-1.892565
H	-1.876315	1.008197	-1.957213
F	-2.584908	0.0	0.0
