15

C	0.0	0.0	0.0
C	-0.480899	0.191848	-1.437683
F	1.398655	0.0	0.0
H	-1.574604	0.233837	-1.333227
H	-0.080389	1.145344	-1.800848
C	-0.403348	1.160455	0.819113
N	-0.571353	2.077131	1.53323
C	-0.495713	-1.280491	0.633404
H	-1.59406	-1.187591	0.58424
H	-0.128609	-1.355506	1.660623
H	-0.117663	-2.134163	0.064015
N	-0.061466	-0.872235	-2.34877
H	-0.630217	-1.690901	-2.171801
H	0.900734	-1.121856	-2.14545
F	-2.827659	0.0	0.0
