19

C	-0.542234	-0.003403	-1.430965
C	0.0	0.0	0.0
Cl	0.298787	1.22764	-2.413463
H	1.095048	0.0	0.0
N	-0.18788	-1.34142	-2.092944
O	0.779638	-1.951957	-1.657229
O	-0.881761	-1.697449	-3.045216
C	-2.035517	0.196049	-1.538394
H	-2.355875	0.100005	-2.573396
H	-2.292747	1.19163	-1.177187
H	-2.528186	-0.559416	-0.924353
N	-0.538632	-1.202905	0.659168
H	-0.687212	-0.994882	1.639771
H	0.180871	-1.91575	0.615116
C	-0.449811	1.242545	0.756306
H	-0.22766	2.154138	0.200175
H	0.10855	1.289326	1.6947
H	-1.520322	1.209713	0.984918
Cl	3.507246	0.0	0.0
