19

C	-0.367837	-0.074266	-1.501509
C	0.0	0.0	0.0
Cl	-2.115232	-0.441845	-1.733274
H	1.095127	0.0	0.0
N	-0.132071	1.296205	-2.133507
O	-1.022434	2.138928	-2.069325
O	0.9819	1.475123	-2.616615
C	0.463479	-1.104232	-2.23296
H	1.519226	-0.911312	-2.02898
H	0.198152	-2.09442	-1.86091
H	0.270519	-1.069622	-3.306561
N	-0.370547	-1.217052	0.715862
H	-1.27327	-1.569537	0.421845
H	0.336342	-1.926365	0.566971
C	-0.548935	1.221329	0.714617
H	-0.27209	1.12682	1.764867
H	-0.123008	2.147903	0.328021
H	-1.638985	1.277371	0.639085
Cl	3.428125	0.0	0.0
