19

C	-0.543395	-0.007404	-1.431371
C	0.0	0.0	0.0
Cl	0.303107	1.215785	-2.419003
H	1.095107	0.0	0.0
N	-0.195732	-1.349136	-2.088843
O	0.766998	-1.965242	-1.648891
O	-0.889423	-1.702808	-3.041783
C	-2.036005	0.19776	-1.538633
H	-2.288623	1.195683	-1.180901
H	-2.531423	-0.553028	-0.920836
H	-2.35774	0.099178	-2.572887
N	-0.541075	-1.197354	0.665258
H	0.175537	-1.913041	0.62422
H	-0.688388	-0.983693	1.644866
C	-0.446187	1.248085	0.750164
H	0.113442	1.300005	1.687889
H	-0.223179	2.155731	0.188011
H	-1.516728	1.218905	0.980331
Cl	3.519328	0.0	0.0
