19

C	-0.552219	-0.003412	-1.427078
C	0.0	0.0	0.0
Cl	0.286224	1.223351	-2.41682
H	1.095035	0.0	0.0
N	-0.209448	-1.342553	-2.09196
O	0.753466	-1.962799	-1.658429
O	-0.906596	-1.689365	-3.044915
C	-2.045858	0.201557	-1.521121
H	-2.296026	1.198204	-1.158246
H	-2.535201	-0.551116	-0.900976
H	-2.376623	0.105794	-2.552628
N	-0.538582	-1.198781	0.665552
H	0.177799	-1.914421	0.618909
H	-0.679896	-0.986836	1.646507
C	-0.441197	1.246396	0.756852
H	0.126134	1.296066	1.690063
H	-0.222352	2.155345	0.19511
H	-1.509873	1.217144	0.995451
Cl	3.515737	0.0	0.0
