19

C	-0.377326	0.084671	-1.481645
C	0.0	0.0	0.0
Cl	0.246291	-1.353334	-2.330465
H	1.101487	0.0	0.0
N	-1.900944	0.076711	-1.607894
O	-2.494901	-0.967009	-1.839398
O	-2.441413	1.165436	-1.402835
C	0.195338	1.309807	-2.1638
H	1.273962	1.305992	-1.988091
H	-0.246376	2.217103	-1.757328
H	-0.001137	1.269127	-3.237059
N	-0.585219	-1.207678	0.591703
H	-0.130473	-2.014786	0.177318
H	-0.311363	-1.213281	1.568524
C	-0.455841	1.199346	0.82007
H	-0.08161	2.139451	0.416094
H	-0.027745	1.094228	1.821268
H	-1.54334	1.241509	0.903467
Cl	3.452326	0.0	0.0
