19

C	-0.34049	0.012563	-1.516956
C	0.0	0.0	0.0
Cl	-0.160781	-1.61522	-2.22522
H	1.096693	0.0	0.0
N	-1.810647	0.378466	-1.661114
O	-2.083108	1.491076	-2.110049
O	-2.64001	-0.419179	-1.223918
C	0.536566	0.965979	-2.294854
H	1.572622	0.661251	-2.127387
H	0.294211	0.936527	-3.35826
H	0.411804	1.985402	-1.93499
N	-0.461375	-1.141127	0.763978
H	-1.423472	-1.357685	0.525348
H	0.112043	-1.945157	0.539592
C	-0.501434	1.276736	0.667199
H	-0.066819	1.308352	1.666079
H	-0.206771	2.182341	0.135106
H	-1.592341	1.266018	0.769725
Cl	3.4662	0.0	0.0
