19

C	-0.575339	0.0028	-1.423551
C	0.0	0.0	0.0
Cl	0.217161	1.255655	-2.405239
H	1.100045	0.0	0.0
N	-0.209258	-1.345039	-2.04988
O	0.963028	-1.542206	-2.333662
O	-1.119972	-2.16847	-2.161907
C	-2.07543	0.180312	-1.486916
H	-2.43433	0.017258	-2.503366
H	-2.326565	1.197852	-1.186537
H	-2.543794	-0.535915	-0.81446
N	-0.518917	-1.206968	0.670846
H	0.110964	-1.975147	0.453703
H	-0.419391	-1.058197	1.669313
C	-0.451989	1.229503	0.774715
H	-0.243603	2.146665	0.222779
H	-1.517962	1.180302	1.017249
H	0.118959	1.275806	1.705988
Cl	3.515524	0.0	0.0
