19

C	-0.427371	-0.079648	-1.472723
C	0.0	0.0	0.0
Cl	-2.200603	-0.347768	-1.603433
H	1.099868	0.0	0.0
N	-0.147236	1.259365	-2.150198
O	0.888212	1.334536	-2.803398
O	-0.934742	2.184153	-1.967243
C	0.304663	-1.180696	-2.201446
H	1.378987	-1.033133	-2.071225
H	0.012018	-2.123114	-1.741072
H	0.047816	-1.182889	-3.262335
N	-0.391829	-1.267399	0.622619
H	0.330623	-1.519043	1.288739
H	-1.267863	-1.152902	1.120819
C	-0.494504	1.226001	0.753692
H	-0.16172	1.13179	1.790521
H	-0.079009	2.152682	0.3576
H	-1.587054	1.297443	0.734578
Cl	3.407215	0.0	0.0
