19

C	-0.387286	0.093136	-1.489082
C	0.0	0.0	0.0
Cl	-0.311044	-1.48709	-2.296769
H	1.096062	0.0	0.0
N	-1.84805	0.530572	-1.562368
O	-2.099152	1.627594	-2.061482
O	-2.680902	-0.204916	-1.04062
C	0.500807	1.056757	-2.243348
H	1.527875	0.702782	-2.131798
H	0.22121	1.098678	-3.296052
H	0.433819	2.059176	-1.823198
N	-0.44893	-1.225329	0.632507
H	0.255615	-1.519298	1.295518
H	-1.329581	-1.090567	1.111769
C	-0.450371	1.257963	0.749912
H	0.012688	1.24059	1.738525
H	-1.538828	1.274076	0.878166
H	-0.143083	2.184463	0.260981
Cl	3.436664	0.0	0.0
