13
Coordinates from ORCA-job run
  C   0.67744331292881     -0.58998048738888      0.32374637782040
  C   -0.65801982848732      0.11627386231622      0.07572766331503
  Cl  0.59818926752042     -1.62384211817353      1.73844174468795
  H   -0.92645074290613      0.62325689202884      1.00570008854393
  H   0.99516574426269     -1.18225211441249     -0.53374376323987
  N   1.74677616782572      0.45068350392555      0.53439100306306
  O   2.76468224662564      0.33535195657518     -0.14002441779996
  O   1.49913226492486      1.32554767524307      1.35715681781623
  N   -1.67058863409090     -0.86936542152108     -0.24366697168346
  H   -2.59499181328256     -0.49263537642144     -0.08185115955313
  H   -1.60922522177908     -1.14763834207344     -1.21538280091579
  C   -0.46817683597083      1.14109395768871     -0.97072850055882
  N   -0.35293592757132      1.91350601221330     -1.84876608149555
