13
Coordinates from ORCA-job run
  C   0.75576097414403     -0.53951980752271      0.22130341967064
  C   -0.66921421401464     -0.00322968258867      0.06223322082158
  Cl  0.81190565836830     -1.87073469674375      1.36193284884935
  H   -1.03144876749465      0.23548126513045      1.06515744288817
  H   1.18291815669592     -0.86334283620616     -0.72693431328085
  N   1.64074932341878      0.57283322793856      0.72067361579318
  O   1.24161784380347      1.18542719934560      1.70493075549150
  O   2.67638815144473      0.77304804816966      0.09476975803876
  N   -1.50912401855265     -1.03004639229591     -0.51967597213256
  H   -2.48401659222092     -0.83747329316585     -0.33240725109646
  H   -1.38269426789040     -1.07375456476378     -1.52351261797596
  C   -0.62135311647874      1.24736300996583     -0.72251419526247
  N   -0.61148913122324      2.20394852273672     -1.40495671180489
