13
Coordinates from ORCA-job run
  C   0.52941138935109     -0.49771654087641      0.76650517930683
  C   -0.79393351178844     -0.13654719771728      0.10446602194067
  Cl  0.61915827376011      0.06583822479126      2.43089602892875
  H   -1.54866142341018     -0.69594972150223      0.66818224793983
  H   0.65912597952910     -1.57833745954895      0.74801575904552
  N   1.70472515383728      0.05655772778541     -0.00238601619045
  O   2.77635960053359     -0.50290819970574      0.18778209490844
  O   1.49779976761416      1.01354095460682     -0.74388647319246
  N   -0.77584348276294     -0.64607556983285     -1.25538252460023
  H   -1.71933750191805     -0.79859611874330     -1.58678955305174
  H   -0.32422181085091      0.01997981201885     -1.86970548181402
  C   -1.13592355995316      1.29162943212882      0.23983410841539
  N   -1.48765887394163      2.40958465659560      0.31246860836346
