13
Coordinates from ORCA-job run
  C   0.70332103888277     -0.47485215926160      0.11851110440102
  C   -0.72745741730657      0.09275484661434      0.05187152425504
  Cl  0.75342128888027     -1.91067728749042      1.13613794727876
  H   -1.01211342688940      0.34327566909684      1.07825251741912
  H   1.09829004232291     -0.72323182908977     -0.86555379415894
  N   1.62385920183849      0.57037263170483      0.69100449090889
  O   2.59609816823352      0.87512808053264      0.00766552805816
  O   1.30264492394334      1.04359595589724      1.77530135889737
  N   -1.72607310398444     -0.78775092913904     -0.50865251192703
  H   -1.48438865748813     -1.07366379774301     -1.44937242904917
  H   -1.84703230284248     -1.60780455649124      0.07085533829114
  C   -0.67706063071911      1.33791870046793     -0.72717144859411
  N   -0.60350912487119      2.31293467490127     -1.37684962578023
