13
Coordinates from ORCA-job run
  C   0.59433482633812      0.21012281165173      0.76173462116773
  C   -0.63020504303272     -0.26086520749757     -0.02438983604210
  Cl  0.77574163881642      1.95019261114526      0.72653198403351
  H   -0.65273833653353     -1.34936894868180      0.08019617002545
  H   0.55456243484474     -0.12286182047881      1.79881913750434
  N   1.79120057106805     -0.50107492546209      0.14828270207605
  O   1.73992492386327     -1.71895142294511      0.28736345360905
  O   2.66102569382040      0.14083564739913     -0.41155615763469
  N   -0.45018957201304      0.05287453377546     -1.42562661319482
  H   -0.56553728080733      1.04458952833758     -1.59467497153655
  H   -1.12040666411434     -0.45046623683325     -1.99200537073644
  C   -1.85176269733042      0.28320944546571      0.59884605546350
  N   -2.84495049491961      0.72176398412376      1.04747882526497
