13
Coordinates from ORCA-job run
  C   0.74055497993175     -0.55591760729859      0.22451921829841
  C   -0.67345797518824     -0.00372881907263      0.02582020127023
  Cl  0.73413397278538     -1.95926182824771      1.27657109675040
  H   -1.08730120061930      0.17189038038359      1.02177104973029
  H   1.21783542352144     -0.81799660472916     -0.71884884371132
  N   1.59893367644341      0.51689801153254      0.84312547802713
  O   1.14769240284180      1.06662012921148      1.84183879667841
  O   2.66781413587311      0.75137716920539      0.28910027061146
  N   -1.48346526040432     -0.98696792033427     -0.66413565284398
  H   -2.46638537940919     -0.80470323673580     -0.51198252402337
  H   -1.30792812676503     -0.96380207160588     -1.66121737566961
  C   -0.58047955150137      1.29387378844168     -0.67360339017832
  N   -0.51094709750945      2.29071860924935     -1.29195832493972
