13
Coordinates from ORCA-job run
  C   0.58852600390048      0.23769605464732      0.69664289178840
  C   -0.76216292941466     -0.07843790081838      0.00996237076097
  Cl  1.18573017032516      1.82610239256876      0.28117142274029
  H   -1.04250362962380     -1.08139330217429      0.35012872966562
  H   0.51604513073316      0.14805509234567      1.78019795976139
  N   1.53712845933041     -0.85761444696381      0.25640829017475
  O   1.29746259169403     -1.94332807993163      0.77861406394891
  O   2.38175954845203     -0.62374204261783     -0.59518181627061
  N   -0.76135194017505     -0.07099139764836     -1.43110685622000
  H   -0.22336486025170     -0.84095173304904     -1.80602365497849
  H   -0.40386367184039      0.80154183944186     -1.79875497348227
  C   -1.76343241576885      0.86329879142445      0.52634383321731
  N   -2.55097245736082      1.62176473277528      0.95259773889372
