13
Coordinates from ORCA-job run
  C   0.73355341213649     -0.54004680036491      0.15974063025049
  C   -0.65151179863886      0.07120887122612     -0.05249780672912
  Cl  0.61488803584657     -2.01846761898716      1.11032739419119
  H   -1.07145757938949      0.28561891527470      0.93914046464028
  H   1.21713871844489     -0.76263574979980     -0.78866231971026
  N   1.61046988562106      0.44110385762426      0.88805033272511
  O   2.69696379033535      0.68695365355714      0.37418375500835
  O   1.15596304157227      0.92151039362221      1.92089885717473
  N   -1.43404235940316     -0.84424374599848     -0.87438496168398
  H   -2.21996923512471     -0.35849217521070     -1.28724865693843
  H   -1.79442146857923     -1.59396855935511     -0.29713367984873
  C   -0.48931234575181      1.34645626631755     -0.75949610559639
  N   -0.36726209706936      2.36400269209418     -1.33191790348324
