13
Coordinates from ORCA-job run
  C   0.55434615021001      0.15562242947790      0.74663883385383
  C   -0.75616145585568     -0.11716810443029     -0.03017687744650
  Cl  1.07453159732055      1.81716975018697      0.60357832795275
  H   -0.99061754311906     -1.17359871942751      0.14092893531595
  H   0.45673795032660     -0.10607600690348      1.79992169366723
  N   1.57426300291567     -0.80881749161642      0.17736376056729
  O   2.42953755391323     -0.40277139831881     -0.59519231841688
  O   1.37946006392940     -1.97352831566190      0.51549582724905
  N   -0.71416216793251      0.11450975933497     -1.45175806207547
  H   -0.12385094964888     -0.55937550021242     -1.92117564473264
  H   -0.39619744280175      1.05074036522205     -1.66747712613704
  C   -1.82321812537039      0.68074898768505      0.58714803074047
  N   -2.66366863388719      1.32354424466389      1.09470461946197
