13
Coordinates from ORCA-job run
  C   0.50812749122957     -0.46112977405950      0.74482482793802
  C   -0.86078058603453     -0.08556133507265      0.12081335558239
  Cl  0.56875094199758     -0.04944615859355      2.44376127990640
  H   -1.61020211261419     -0.51039949554621      0.79705070266090
  H   0.69108328084653     -1.52781506250456      0.62113109518298
  N   1.60320495553567      0.22921232079793     -0.03621070418278
  O   1.84391680076441     -0.30884136749087     -1.11749911198168
  O   2.10403476674645      1.25354935044344      0.39953309080497
  N   -1.12195096114333     -0.57879370705671     -1.21050928454412
  H   -0.40002277434135     -0.29012063670806     -1.85882531878798
  H   -1.17243304612216     -1.58961082289093     -1.21288132609324
  C   -1.01912463450396      1.37559298242096      0.15288866486724
  N   -1.13560412236070      2.54336370626069      0.15392272864689
