13
Coordinates from ORCA-job run
  C   0.69453777748319     -0.46599165244057      0.18896923323457
  C   -0.72822894155773      0.09888554708203      0.01150772250051
  Cl  0.68909975301160     -1.81266499145996      1.32276423486418
  H   -1.05671055208519      0.43236520243712      1.00048672608869
  H   1.13051209729088     -0.79637673559151     -0.75276579669217
  N   1.59510892642082      0.62049009413741      0.71352976567671
  O   2.59846376561474      0.86541585169485      0.05172520141594
  O   1.22883617069214      1.18302374398793      1.73931543915578
  N   -1.70659770387327     -0.82117973180472     -0.52020581068334
  H   -1.42546371852253     -1.18365330964719     -1.42271598349328
  H   -1.85979171877478     -1.59053663806852      0.11815199365954
  C   -0.63458134942945      1.27623736271915     -0.86301000339443
  N   -0.52518450627043      2.19398525695399     -1.58675272233271
