13
Coordinates from ORCA-job run
  C   0.58351341781325      0.00958307183500      0.79830728927875
  C   -0.65600306948843     -0.17028762125746     -0.07966363841695
  Cl  0.98018504429360      1.69493004042113      1.04902816337603
  H   -0.81712869081127     -1.24972119089726     -0.15259716817025
  H   0.46029207099467     -0.47632711896203      1.76596796126924
  N   1.70794825699897     -0.74405713170497      0.10319875041549
  O   2.67229670313494     -0.13884592141751     -0.32774236923323
  O   1.50133736631486     -1.95184660715490      0.04326563805207
  N   -0.38024148449181      0.33402263884528     -1.40784108458664
  H   -0.36591132743941      1.34660024775701     -1.41669333174652
  H   -1.08444864624967      0.01700647133462     -2.06132511053167
  C   -1.82585427436997      0.42150941488928      0.59706821259518
  N   -2.77498536669974      0.90743370631181      1.09002668769851
