13
Coordinates from ORCA-job run
  C   0.79611642053131     -0.46898797426860     -0.00777664119700
  C   -0.65684422579769      0.00374792379999      0.04045176410399
  Cl  0.95428418108522     -2.05251872695136      0.74796895813943
  H   -0.95243950392279      0.05087573111472      1.09685385246754
  H   1.16021130983271     -0.52362104993583     -1.03119245497670
  N   1.66924324522866      0.51196623759472      0.72494830713128
  O   2.64886383773687      0.92998393417535      0.11640547877902
  O   1.31685332861331      0.81922532794908      1.85879298258767
  N   -1.45604481954196     -0.88864059033368     -0.79052215651481
  H   -2.34047940736315     -0.45293528857320     -1.01955317190269
  H   -1.64804342176700     -1.74305887222799     -0.28200454542761
  C   -0.71753820623703      1.36419212979458     -0.50554671115388
  N   -0.77418273839847      2.44977121786221     -0.94882566203623
