13
Coordinates from ORCA-job run
  C   0.54624073052947     -0.48506421731225      0.76174748597900
  C   -0.79066515528137     -0.14622201129169      0.11495800721955
  Cl  0.64991010166969      0.08924647759997      2.42172626164210
  H   -1.53048737806723     -0.71144132119542      0.69238666658452
  H   0.69045833971609     -1.56390921918123      0.74796518774473
  N   1.70340535538913      0.08072739348537     -0.02579553499642
  O   1.47301963334796      1.02851659545377     -0.77218695472740
  O   2.78540917897403     -0.46154169109858      0.15490881779568
  N   -0.78348116649634     -0.66575187972480     -1.24125107061742
  H   -1.72895371667348     -0.83618254648640     -1.55791989111475
  H   -0.35098388354697      0.00236706101327     -1.86693839280691
  C   -1.14921383423342      1.27822445870396      0.24553223915498
  N   -1.51565820532756      2.39103090003404      0.32386717814234
