13
Coordinates from ORCA-job run
  C   0.74962446455540     -0.40939769913720     -0.06521853007849
  C   -0.72247837359222     -0.00158322295524      0.13584132299671
  Cl  1.03334186761363     -2.03282396273484      0.55372400968214
  H   -0.91236441922430     -0.03660111556877      1.21284683071267
  H   1.05153839583108     -0.37021950589433     -1.11085603294011
  N   1.63698927045223      0.56184925182171      0.66720262709658
  O   1.39814832028324      0.72533757923550      1.85843816908637
  O   2.50037087983012      1.12299213471800      0.00046745977284
  N   -1.69897781357756     -0.82584033578323     -0.53776963764402
  H   -1.53715171901468     -0.85464555414062     -1.53685904742949
  H   -1.68929626390613     -1.76732321118657     -0.16836118065036
  C   -0.86339703615750      1.39163102914882     -0.31031372038420
  N   -0.94434757309332      2.49562461247675     -0.70114227022065
