13
Coordinates from ORCA-job run
  C   0.47995663644536     -0.43640066379307      0.77062538763457
  C   -0.86882268015860     -0.05088898702819      0.14183989361213
  Cl  0.69305135870633      0.22276209183038      2.38538511780238
  H   -1.62661792438731     -0.56609299461505      0.74433728340418
  H   0.57484009489364     -1.52041974086067      0.82170509724828
  N   1.60651212592221      0.01085444741478     -0.12102389744958
  O   1.61406482157967      1.18836441667645     -0.46050366164853
  O   2.40664181603158     -0.85749866133267     -0.45910565994159
  N   -1.02055075854858     -0.46901397576837     -1.23546932667122
  H   -0.88530521031236     -1.46584569383953     -1.34369127249644
  H   -0.39500454508013      0.03410335771109     -1.85138116029813
  C   -1.14812618648196      1.38603978664662      0.25752202666349
  N   -1.42963954860985      2.52103661695823      0.35176017214047
