13
Coordinates from ORCA-job run
  C   0.45093541323563     -0.14992294770539      0.81298991531830
  C   -0.74735434865760     -0.05221286889815     -0.16149947903682
  Cl  1.01160901814010      1.42166978317999      1.33140067685652
  H   -1.01944536929590     -1.08495347613740     -0.40595577583001
  H   0.20802869414708     -0.75519231059466      1.68594852876767
  N   1.52351317693517     -0.91654765750705      0.06763949622843
  O   2.47859694031309     -0.31928043774045     -0.40622872388044
  O   1.26916137272171     -2.11242918142076     -0.05109248131782
  N   -0.51157003936162      0.65885066356027     -1.39246362000495
  H   -0.15031181536239      1.58878872000760     -1.22209663619155
  H   0.12443088259321      0.15494217366057     -1.99627212553385
  C   -1.87371191724929      0.54464423892184      0.56773264915545
  N   -2.76188200815918      1.01964330067359      1.16989757546907
