13
Coordinates from ORCA-job run
  C   0.54936243746429     -0.48451216562126      0.76131912435022
  C   -0.79153455354257     -0.12645400810030      0.13379627952790
  Cl  0.69753684844229      0.11835499360587      2.40788706035424
  H   -1.53217603795348     -0.66553562143710      0.73475087016542
  H   0.66864438396547     -1.56647264600697      0.76563830317847
  N   1.70427917545514      0.03918729683420     -0.05779257587498
  O   1.48241950111988      0.97971148229420     -0.81579397443344
  O   2.77622401596411     -0.52614126271182      0.11187309346055
  N   -0.82177935861300     -0.66762970936696     -1.21351208290243
  H   -0.38561736034253     -0.02004406516005     -1.85800098044692
  H   -1.77667659194383     -0.82078256570362     -1.51024273354694
  C   -1.11631914527463      1.30772138190467      0.24520200246487
  N   -1.45336331474116      2.43159688946914      0.29187561370306
