13
Coordinates from ORCA-job run
  C   0.57664045574951      0.00458891262087      0.74585324355058
  C   -0.75787332307555     -0.09774640199679     -0.03216078757753
  Cl  1.13122297288191      1.65484669254854      0.89383084812486
  H   -1.00921980854027     -1.16411951212296     -0.05563132638092
  H   0.49704895989026     -0.44291483648165      1.73602059956240
  N   1.56019303788555     -0.85717268388784     -0.01648413909325
  O   2.37712104928217     -0.33143838478716     -0.75867550272729
  O   1.37319218929221     -2.06116029962163      0.13903621651918
  N   -0.74806029355617      0.39737997281513     -1.38532504439168
  H   -0.42357091463056      1.35520283186740     -1.42813956790355
  H   -0.17548129034317     -0.17897979042659     -1.98788100676666
  C   -1.79244261906034      0.58650687358969      0.75385141940785
  N   -2.60677041577554      1.13600662588299      1.39570504767602
