13
Coordinates from ORCA-job run
  C   0.55982105527405     -0.43575618075905      0.80969020769248
  C   -0.79604308603961     -0.18976112825194      0.13359492066707
  Cl  0.52597917383066      0.01405435564275      2.49885493857915
  H   -1.54798421656827     -0.54850105454481      0.84210034484499
  H   0.81744007480753     -1.48920269811610      0.70554705060488
  N   1.63616517438677      0.33116355024500      0.05655207957890
  O   1.79463795561621     -0.06564460809443     -1.09650010169905
  O   2.22224302098654      1.25323163518100      0.59681826641373
  N   -0.92027474858672     -0.98189778555106     -1.07449069284444
  H   -0.27382811549972     -0.65687915890053     -1.78224317356999
  H   -1.86387795820139     -0.91104317330899     -1.43508889529593
  C   -1.00370034305046      1.26460211547609     -0.03404083152251
  N   -1.14857798695559      2.41563413098207     -0.21979411344928
