13
Coordinates from ORCA-job run
  C   0.49874476244524     -0.43813762364317      0.76396378848522
  C   -0.86198257827969     -0.08861070340242      0.10756225977214
  Cl  0.52596339522372      0.01400379972278      2.45359403787516
  H   -1.61987383798464     -0.49939936235149      0.78293570383351
  H   0.69204049305103     -1.50592092440801      0.66897166070411
  N   1.60208874448970      0.24297054689615     -0.01380280241217
  O   2.08983060719528      1.27915060200561      0.40825772820023
  O   1.86182531837335     -0.31496321118331     -1.08042893917558
  N   -1.09869321315740     -0.61990846828364     -1.21369973452459
  H   -1.14617133010648     -1.63059242746011     -1.18719780248173
  H   -0.36532980254992     -0.34831145083259     -1.85658549778730
  C   -1.02892843356642      1.37189183273705      0.09811576937316
  N   -1.15051412513377      2.53882739020314      0.06831382813784
