17

C	-0.485273	0.053038	-1.453761
C	0.0	0.0	0.0
Cl	0.299893	-1.324781	-2.381551
H	1.090056	0.0	0.0
N	-1.906713	0.084123	-1.582944
H	-2.167188	0.183916	-2.556547
H	-2.279025	-0.783842	-1.215017
C	0.049575	1.275299	-2.073093
N	0.386282	2.272931	-2.592727
N	-0.436115	-1.249118	0.699998
O	-1.306342	-1.968248	0.195154
O	0.084277	-1.458127	1.788102
C	-0.490132	1.182969	0.822808
H	-0.045944	1.116533	1.816094
H	-0.144308	2.109493	0.362411
H	-1.579835	1.200838	0.890111
Br	3.42848	0.0	0.0
