17

C	-0.330943	0.038675	-1.502175
C	0.0	0.0	0.0
Cl	-2.102824	0.318762	-1.77957
H	1.093567	0.0	0.0
N	0.40157	1.15157	-2.046701
H	1.386308	1.045757	-1.783583
H	0.32691	1.156584	-3.058978
C	-0.04482	-1.227862	-2.2011
N	0.233817	-2.18824	-2.819986
N	-0.468759	-1.275556	0.613603
O	-1.53167	-1.262624	1.241877
O	0.246111	-2.262849	0.449265
C	-0.503401	1.198167	0.771738
H	-0.162269	2.100982	0.26635
H	-1.588198	1.204699	0.857449
H	-0.064363	1.170953	1.771215
Br	3.444166	0.0	0.0
