15
Coordinates from ORCA-job run
  C   -0.57816836535162      0.14368093449040     -0.33042457520594
  C   0.80757978001582     -0.21962872629011     -0.82325064782659
  F   -1.38881291884072      0.32257791590409     -1.42991456676805
  H   1.13211328746311      0.55709313049078     -1.52511620524539
  H   0.67981771296167     -1.14591101627852     -1.38997845619028
  N   -0.55302805511315      1.51788008367985      0.34018640564865
  O   -1.62186771997527      1.92352433219788      0.78189363827203
  O   0.51250809329634      2.13307357833670      0.36696326274132
  C   -1.20627477259367     -0.84187909350895      0.61288720063683
  H   -1.26353348603192     -1.81167906878437      0.11542269777538
  H   -2.20963340587892     -0.50904226840498      0.87370016767364
  H   -0.59290875363812     -0.94142877213682      1.50675858483480
  N   1.70759072287976     -0.45510228236699      0.29546443086351
  H   2.12852252682396      0.41912226405656      0.57850147569267
  H   2.44409535398276     -1.09228101138552      0.02690658709743
