15
Coordinates from ORCA-job run
  C   -0.58658943745984      0.14557811349564     -0.35847633705192
  C   0.82192764490119     -0.22686225136702     -0.78265872683467
  F   -1.33656083829114      0.37914065033780     -1.49003575459885
  H   1.13860123340500      0.51500284017980     -1.51791290804531
  H   0.76976837419771     -1.19695440569602     -1.28598294473339
  N   -0.48905556837527      1.50285166356486      0.33623984379724
  O   0.09867057156424      2.37936031484081     -0.29175139683458
  O   -0.99751659628426      1.63324682936576      1.44430498273571
  C   -1.27909418256013     -0.85258654728571      0.51927980269888
  H   -1.39984352571343     -1.77830302595529     -0.04703639481558
  H   -2.25883218263292     -0.48397627984749      0.81862130877004
  H   -0.68381762374992     -1.03852147887889      1.41138972905980
  N   1.68090335362903     -0.25687064799257      0.39458743748671
  H   2.11262967445464     -1.16045572923222      0.51610650825158
  H   2.40980910291510      0.43834995447054      0.33232485011433
