15
Coordinates from ORCA-job run
  C   -0.41951556408520      0.23230482516105     -0.22026856532202
  C   1.08640216052018      0.11692351339143     -0.05444048261283
  F   -0.70868751514388      0.14265843289021     -1.55552626493029
  H   1.54087759057793      0.97249179139813     -0.57599756986897
  H   1.32250277540109      0.20519369028043      1.00624381878576
  N   -0.81535447662696      1.63228108172286      0.22096514956443
  O   -0.55565608374254      1.89749586351866      1.39251132610780
  O   -1.34475837710681      2.37557128875452     -0.59344889952387
  C   -1.24445532495042     -0.76841143860675      0.54325203741506
  H   -1.09471853988424     -0.64177024853117      1.61475438893841
  H   -0.92875787949298     -1.76688836681755      0.24554512360148
  H   -2.29993612447826     -0.62660563259830      0.30326174314467
  N   1.50622315947431     -1.18655509296982     -0.54544925146343
  H   2.44114947791864     -1.39620061385574     -0.22347861840856
  H   1.51568472161914     -1.18648909373795     -1.55692393542763
