18

C	0.0	0.0	0.0
C	-0.303533	-0.376516	-1.479059
F	1.409638	0.0	0.0
H	0.43319	0.206818	-2.045366
N	-0.48694	1.315229	0.281893
H	-1.503204	1.278213	0.204028
H	-0.257667	1.561273	1.239676
N	-0.460354	-0.994051	0.928042
H	-0.797113	-0.590291	1.789033
H	0.248897	-1.691979	1.103088
N	-1.611182	-0.047951	-2.000103
H	-1.768259	0.951109	-1.975733
H	-2.357133	-0.454143	-1.436299
C	-0.045881	-1.862003	-1.698922
H	0.941704	-2.161305	-1.336318
H	-0.117474	-2.082076	-2.766651
H	-0.808254	-2.44258	-1.17298
Br	-4.373875	0.0	0.0
