18

C	0.0	0.0	0.0
C	-0.464865	-0.002757	-1.455013
F	1.401564	0.0	0.0
H	-1.561143	0.026194	-1.383928
N	-0.410119	1.233183	0.628406
H	0.35416	1.89123	0.641999
H	-0.772136	1.079523	1.55719
N	-0.481432	-1.181482	0.647872
H	-1.502001	-1.146587	0.583311
H	-0.224565	-1.160815	1.627345
N	0.035791	-1.212652	-2.130274
H	-0.615347	-1.430643	-2.879083
H	-0.030805	-1.972272	-1.461272
C	0.012001	1.231101	-2.203341
H	-0.304653	1.167179	-3.247941
H	-0.423789	2.132254	-1.771815
H	1.101425	1.2848	-2.18505
Br	-3.919214	0.0	0.0
