18

C	0.0	0.0	0.0
C	-0.392679	-0.235621	-1.465534
F	1.399804	0.0	0.0
H	-1.479593	-0.355123	-1.472498
N	-0.45018	1.284079	0.444577
H	-1.454945	1.322555	0.269492
H	-0.336049	1.292247	1.454136
N	-0.40736	-1.054757	0.888243
H	-1.422633	-0.985376	0.946556
H	-0.198864	-1.931189	0.418532
N	0.202224	-1.517778	-1.869248
H	-0.213033	-1.808615	-2.7466
H	1.193203	-1.371681	-2.029301
C	0.00478	0.927566	-2.36957
H	-0.247358	0.693567	-3.409434
H	1.082124	1.105322	-2.300145
H	-0.507157	1.846666	-2.084185
Br	-3.819547	0.0	0.0
