18

C	0.0	0.0	0.0
C	-0.417101	0.145179	-1.469387
F	1.414855	0.0	0.0
H	-1.500765	-0.000865	-1.487949
N	-0.449257	1.091362	0.795866
H	-0.01138	1.958383	0.516308
H	-0.280618	0.91736	1.778172
N	-0.426784	-1.276066	0.494153
H	-0.036981	-1.422607	1.419784
H	-1.446084	-1.22373	0.567234
N	0.217483	-0.875885	-2.30884
H	1.218737	-0.80925	-2.147122
H	-0.054359	-1.774984	-1.923656
C	-0.087634	1.523855	-2.024867
H	-0.265111	1.514446	-3.101515
H	0.966331	1.772993	-1.856159
H	-0.720281	2.291953	-1.577047
Br	-3.926926	0.0	0.0
