18

C	-0.480644	-0.021469	-1.445898
C	0.0	0.0	0.0
Br	-2.379975	-0.372146	-1.615365
H	1.093099	0.0	0.0
N	-0.143469	1.324726	-2.095367
O	-1.038663	2.096962	-2.38937
O	1.059968	1.487499	-2.231369
N	0.214821	-1.046901	-2.335618
O	0.103897	-0.866738	-3.542542
O	0.793719	-1.969864	-1.782113
C	-0.460189	-1.189201	0.8337
H	0.069868	-1.14015	1.787395
H	-1.536645	-1.14709	1.024656
H	-0.21557	-2.139259	0.361626
N	-0.416525	1.289624	0.543998
H	0.322709	1.639224	1.140357
H	-1.26753	1.198104	1.084793
Cl	3.372315	0.0	0.0
