18

C	-0.507998	0.000565	-1.436499
C	0.0	0.0	0.0
Br	-2.423993	0.184092	-1.572874
H	1.098529	0.0	0.0
N	0.080807	1.129265	-2.283446
O	-0.130322	1.05821	-3.487759
O	0.688791	2.012579	-1.697002
N	-0.048654	-1.27642	-2.136537
O	-0.824203	-2.22154	-2.190729
O	1.114551	-1.251661	-2.5162
C	-0.446855	-1.257831	0.733488
H	-1.535519	-1.310918	0.819577
H	-0.079485	-2.165026	0.254756
H	-0.006377	-1.226032	1.733206
N	-0.511597	1.193921	0.676764
H	-0.626041	0.975185	1.658593
H	0.201709	1.910009	0.608032
Cl	3.369042	0.0	0.0
