18

C	-0.335509	-0.005587	-1.476782
C	0.0	0.0	0.0
Br	0.482286	1.448619	-2.425871
H	1.096288	0.0	0.0
N	0.145862	-1.340664	-2.057566
O	-0.695815	-2.231024	-2.139639
O	1.340142	-1.438919	-2.294303
N	-1.824423	0.069429	-1.837978
O	-2.126348	-0.065468	-3.016488
O	-2.605918	0.225479	-0.904247
C	-0.482201	-1.258303	0.718369
H	-0.17484	-1.171989	1.764565
H	-1.57005	-1.367491	0.687434
H	-0.027078	-2.171	0.326549
N	-0.434434	1.253522	0.579266
H	-1.402022	1.199453	0.873508
H	0.147466	1.462854	1.382331
Cl	2.698596	0.0	0.0
