18

C	-0.359644	-0.002442	-1.493387
C	0.0	0.0	0.0
Br	0.063302	1.678175	-2.314322
H	1.101928	0.0	0.0
N	0.405499	-1.129871	-2.202251
O	-0.081453	-2.242652	-2.019714
O	1.413582	-0.864939	-2.828653
N	-1.818277	-0.29393	-1.848276
O	-2.64149	-0.261195	-0.942766
O	-2.051335	-0.507278	-3.033999
C	-0.447469	-1.235381	0.773794
H	-1.527481	-1.246608	0.923996
H	0.057074	-1.198652	1.742697
H	-0.141386	-2.156895	0.283686
N	-0.517596	1.225838	0.617278
H	-0.786049	1.006146	1.569085
H	0.248851	1.890108	0.669674
Cl	3.300122	0.0	0.0
