16

C	0.0	0.0	0.0
C	-0.470989	0.037217	-1.464572
F	1.399563	0.0	0.0
H	-0.190325	-0.868179	-1.999175
H	-1.561654	0.170656	-1.380608
N	-0.51119	1.054838	0.815189
H	-1.532263	0.865127	0.755291
H	-0.35367	1.934114	0.335539
C	-0.447095	-1.329999	0.579792
H	-1.535613	-1.357809	0.500871
H	-0.137291	-1.356674	1.627352
H	0.028257	-2.155349	0.042226
N	0.158226	1.146479	-2.210355
O	-0.103853	2.303717	-1.867823
O	0.930709	0.865167	-3.131948
F	-2.877489	0.0	0.0
