16

C	0.0	0.0	0.0
C	-0.57528	0.047807	-1.395734
F	1.42098	0.0	0.0
H	-0.436694	-0.90612	-1.900172
H	-1.66549	0.26091	-1.187703
N	-0.38809	1.148552	0.761408
H	0.145568	1.145039	1.621772
H	-0.181447	1.988349	0.236773
C	-0.494572	-1.255529	0.675524
H	-0.192776	-1.244188	1.72777
H	-0.067024	-2.142072	0.195883
H	-1.591147	-1.188229	0.582418
N	0.119869	1.040583	-2.241642
O	0.693742	0.639442	-3.258298
O	0.107694	2.225095	-1.893952
F	-2.939856	0.0	0.0
