16

C	0.0	0.0	0.0
C	-0.505022	-0.12743	-1.434657
F	1.386916	0.0	0.0
H	-0.228712	0.772211	-1.980522
H	-1.592932	-0.26628	-1.334774
N	-0.529644	1.260038	0.451247
H	-1.555712	1.074645	0.367046
H	-0.335076	1.324835	1.447357
C	-0.421861	-1.171384	0.875267
H	-1.513795	-1.173163	0.860374
H	-0.015283	-2.117601	0.515013
H	-0.044795	-0.988272	1.887732
N	0.122236	-1.256909	-2.153215
O	1.029882	-0.999535	-2.950452
O	-0.28758	-2.396608	-1.922049
F	-2.891758	0.0	0.0
