16

C	0.0	0.0	0.0
C	-0.216206	-0.161583	-1.518388
F	1.423992	0.0	0.0
H	0.434884	0.579276	-1.980845
H	0.088131	-1.166693	-1.808051
N	-0.520337	1.24431	0.448442
H	-1.552152	1.05579	0.319609
H	-0.365718	1.286265	1.452982
C	-0.416728	-1.209946	0.811923
H	-0.084121	-1.063906	1.845672
H	0.03741	-2.127209	0.426509
H	-1.508942	-1.227805	0.755274
N	-1.55077	0.059096	-2.143453
O	-1.871729	1.221797	-2.365204
O	-2.156385	-0.932525	-2.538453
F	-2.775985	0.0	0.0
