16

C	0.0	0.0	0.0
C	-0.439596	0.31034	-1.443781
F	1.405052	0.0	0.0
H	-0.95675	1.261265	-1.464174
H	0.461383	0.350911	-2.062731
N	-0.487417	1.094337	0.791181
H	-1.518969	0.928813	0.664859
H	-0.268648	0.884318	1.761774
C	-0.374406	-1.364785	0.558497
H	0.068292	-2.176526	-0.016853
H	-1.462622	-1.410135	0.556716
H	0.016732	-1.400631	1.582329
N	-1.337249	-0.632565	-2.167771
O	-1.103948	-1.837306	-2.106131
O	-2.17087	-0.127792	-2.911969
F	-2.725844	0.0	0.0
