16

C	0.0	0.0	0.0
C	-0.477205	0.147375	-1.448776
F	1.416082	0.0	0.0
H	-0.19747	-0.71153	-2.055841
H	-1.571756	0.256266	-1.337847
N	-0.498831	0.994084	0.895162
H	-1.520938	0.816371	0.834312
H	-0.33704	1.904544	0.477834
C	-0.443252	-1.367257	0.483548
H	-1.534565	-1.374151	0.421046
H	-0.113093	-1.476275	1.518501
H	0.010352	-2.153169	-0.126105
N	0.116079	1.315311	-2.13657
O	0.752392	1.114289	-3.174488
O	-0.052294	2.435198	-1.649087
F	-2.875522	0.0	0.0
