13
Coordinates from ORCA-job run
  C   -0.37638978852807     -0.67064907148272     -0.43273732033012
  C   1.04828229269132     -0.14953321621462     -0.30146290582496
  F   -0.48343183731297     -1.13810272966136     -1.74139900075637
  H   1.76414939667731     -0.95525817469986     -0.46265746345679
  H   -0.51306369897750     -1.52803922924600      0.23011423851016
  H   1.22603662452503      0.67622057800156     -0.98777834976694
  C   -1.42726950148654      0.38518615688781     -0.19286069372076
  H   -1.26606394118770      1.24061326329192     -0.85186497945567
  H   -2.41524715225062     -0.03088194566887     -0.39481309828245
  H   -1.40625209935458      0.73028691665899      0.84267886357965
  N   1.24772697804976      0.35735288768934      1.08068306021110
  O   1.21028901771643     -0.48338598186608      1.97793565922937
  O   1.39023370943813      1.56819054630987      1.23516199006379
