13
Coordinates from ORCA-job run
  C   -0.49018534364206     -0.75032562637789     -0.19628398962706
  C   0.72058919810572     -0.52428261876932      0.69538205645803
  F   -0.05551861797704     -1.26803536002733     -1.41062234588854
  H   1.38958723000984     -1.38207822397762      0.63999660956608
  H   -1.09692795117699     -1.52791709648209      0.28054079516400
  H   0.41219133746437     -0.32565945247921      1.72094824334217
  C   -1.31471094019100      0.48738140356993     -0.46262571656174
  H   -0.73345971447410      1.21391405419509     -1.03167729257229
  H   -1.63587574023752      0.95488197715096      0.46985525751612
  H   -2.19472426440167      0.21756460152762     -1.04741267815448
  N   1.48845018627823      0.66558963990075      0.23907698215894
  O   1.22192692029379      1.73959951842952      0.77831229924249
  O   2.28965769994844      0.49836718333960     -0.67649022064371
