13
Coordinates from ORCA-job run
  C   -0.42051228825464     -0.73004314125778     -0.26116943166304
  C   1.03032701666092     -0.26844905637247     -0.27869699043471
  F   -0.58884337770667     -1.47619708414613     -1.42613866988435
  H   1.22553198631420      0.37166706334718     -1.13697298648836
  H   -0.57694356561028     -1.40628786162541      0.58232041268879
  H   1.70186504058545     -1.12669575600254     -0.26805286593747
  C   -1.41275821856686      0.40663480340885     -0.24971524821909
  H   -2.42531935544313      0.00834901829704     -0.32763790910977
  H   -1.23389989350282      1.07594266391239     -1.09354547711746
  H   -1.34061048767512      0.98062659875160      0.67613366334215
  N   1.29581719725743      0.52486181544368      0.94910203700738
  O   1.49995958071691      1.73016885173872      0.82275522373221
  O   1.24638636522462     -0.08957791549512      2.01361824208372
