13
Coordinates from ORCA-job run
  C   -0.48193913989203     -0.75709590549907     -0.19510675015697
  C   0.69224667144079     -0.50624142593179      0.73811715801917
  F   -0.00044820706584     -1.31194925639132     -1.37478024787816
  H   1.36524765831540     -1.36268297325757      0.72830285297360
  H   -1.11017542213086     -1.51869673440025      0.27967409648994
  H   0.34400450205243     -0.28556880519318      1.74623036678032
  C   -1.29078733752369      0.47393977961748     -0.53130498394464
  H   -1.64932795082040      0.96856777277802      0.37316455403432
  H   -2.14633879861402      0.18900957075002     -1.14450218204368
  H   -0.68387224172954      1.18237685252879     -1.09646053353346
  N   1.47318007206850      0.67636398839775      0.28466322910555
  O   2.29819718184535      0.49404638160962     -0.60654799458499
  O   1.19201301205391      1.75893075499150      0.79855043473899
