15
Coordinates from ORCA-job run
  C   -0.47493630800599     -0.64086717648648     -0.37960970857887
  C   0.64748209894283     -0.07110310715181      0.50449689667757
  Cl  -0.00219769287809     -0.61048806921424     -2.10571005375437
  H   0.32957779954045     -0.19554724836571      1.54208096043537
  H   -0.53819227108690     -1.70070001061407     -0.11700324862548
  C   -1.82397145775327      0.02807039642154     -0.19961180307979
  H   -2.09532952224962      0.05079106762684      0.85865248328195
  H   -1.80785240953037      1.05327210323170     -0.56907784979548
  H   -2.58753666466463     -0.52434660415451     -0.74852392296006
  N   0.70632695734949      1.42111139392621      0.30344071864552
  O   -0.03204204676161      2.10267369567547      1.01336933613833
  O   1.45093966112487      1.83719717369491     -0.57662299761615
  N   1.96499324226458     -0.59651121678549      0.34356432324166
  H   2.03819600035423     -1.51325368363571      0.76261604415822
  H   2.22454261335402     -0.64129871416866     -0.63306117816841
