15
Coordinates from ORCA-job run
  C   -0.72624392513029     -0.57124590416556      0.34414491419899
  C   0.74405593866364     -0.17022643739266      0.57263253320247
  Cl  -0.75942467059153     -2.35579725921621      0.18222979490659
  H   1.09502903116311     -0.65945968932308      1.48215876925674
  H   -1.28170131481404     -0.34424164133216      1.25605291180564
  C   -1.37337784280679      0.07384545820941     -0.86297670604088
  H   -2.40188084069575     -0.27394782241470     -0.96420426501883
  H   -1.38686929575706      1.16080365759240     -0.75699392601145
  H   -0.84149320395461     -0.18513466156169     -1.77986561337340
  N   0.69729794938649      1.30130725796579      0.90567956335095
  O   0.32255372822041      1.58800325644742      2.04009197035740
  O   0.96358477210927      2.09609603237717      0.00943668569374
  N   1.69333988963598     -0.37208486773260     -0.47230394854195
  H   1.40905641760313      0.07113202347708     -1.33488982506936
  H   1.84607336696802     -1.36004940293060     -0.62119285871664
