15
Coordinates from ORCA-job run
  C   -0.52477563420929     -0.59285826503184     -0.51001238800616
  C   0.57736371680512     -0.23185043623031      0.48471837187363
  Cl  0.01518353617578     -0.22710813702675     -2.18053116609991
  H   0.19779677428789     -0.43135901501858      1.49002767705094
  H   -0.59777615328564     -1.68089703684024     -0.45931233905769
  C   -1.87337105369740      0.04911443071358     -0.25343487364699
  H   -2.18788225490513     -0.14034150828402      0.77579086352873
  H   -2.61309785510355     -0.37923553544084     -0.93102289859562
  H   -1.84218869398743      1.12637227031628     -0.40846456536392
  N   0.77836585248702      1.29040380253748      0.47951006119681
  O   -0.05250956993246      1.95387193040479      1.09672127872008
  O   1.74345812829527      1.73350899388536     -0.13509708859076
  N   1.76530728310863     -0.96242906897331      0.24822660807617
  H   2.45974053373168     -0.77616166469745      0.95923576266639
  H   2.15538539022947     -0.73103076031414     -0.65635530375170
