15
Coordinates from ORCA-job run
  C   -0.63285533281515      0.28824254855905     -0.56524838643140
  C   0.42043774095813      0.13869415063324      0.52288787103736
  Cl  -1.36158981078473      1.91659029224193     -0.43982737918942
  H   -0.01748598800866      0.28831928534985      1.51070664196395
  H   -0.13237939005824      0.25623141013128     -1.53601679799743
  C   -1.70852665066823     -0.77360554709320     -0.45671085968385
  H   -1.26400955662634     -1.76335542515445     -0.55774262515356
  H   -2.20801519010536     -0.71021757825311      0.51236888353929
  H   -2.45601796286847     -0.62990414091451     -1.23788298236783
  N   1.42535712254009      1.27593116362415      0.37674744895804
  O   1.56719333322713      2.04338378308757      1.32353703397455
  O   2.05035916887713      1.30452126482662     -0.68191396212961
  N   1.05589304804876     -1.13491693951613      0.43078671785336
  H   1.59659222165959     -1.19689303418646     -0.42407915396670
  H   1.66504724662433     -1.30202123333581      1.22138754959326
