15
Coordinates from ORCA-job run
  C   -0.68489963486837      0.29957370960816     -0.55620364143064
  C   0.45782811467914      0.27420014705334      0.43917827103537
  Cl  -1.63297903215433      1.78901597761871     -0.26024902263822
  H   0.09298279602598      0.52075520955751      1.44381325052660
  H   -0.26677077664721      0.39068162416662     -1.55765237893626
  C   -1.58444111344920     -0.91578812453451     -0.43702517231061
  H   -1.04653447858870     -1.81253019865671     -0.75156962473272
  H   -2.45173983228542     -0.80136637849833     -1.08756829874416
  H   -1.94582613001810     -1.04150482234290      0.58686962826397
  N   1.45647645727768      1.37040565555952      0.13988435632986
  O   2.17433902965245      1.68432505781042      1.08794605065855
  O   1.53233364919277      1.81300310659547     -0.99910165759052
  N   1.22037386911777     -0.95295479741287      0.33663843539001
  H   2.02226423127231     -0.89004589383107      0.95552513590829
  H   0.65559285079329     -1.72877027269330      0.65951466827044
