15
Coordinates from ORCA-job run
  C   -0.79394903001271     -0.67820204338005      0.08082647514388
  C   0.63422409570584     -0.36512201303335      0.53224532396638
  Cl  -0.87169479665483     -2.40358322694000     -0.37381017841623
  H   0.93826921331840     -1.08170235815318      1.29616374476317
  H   -1.44825729741329     -0.56961341977968      0.94645070758368
  C   -1.26277753389747      0.18784727089733     -1.07117287846649
  H   -2.30448927429038     -0.03412545821956     -1.30442747303670
  H   -0.66926126226157     -0.01019469591203     -1.96470135480230
  H   -1.18759909804012      1.24769804705065     -0.81281509092031
  N   0.52047333272054      0.96694941855247      1.30802711929675
  O   -0.02314238575898      0.91111441856698      2.40699834463776
  O   0.94811673683908      1.98269678940815      0.76477102380189
  N   1.56865739099030     -0.32406739422804     -0.52375785949390
  H   1.43425112959580      0.49108532018935     -1.10665731347181
  H   2.51817877915936     -0.32078065501900     -0.17814059058575
