15
Coordinates from ORCA-job run
  C   -0.77082647734460     -0.50253554506525      0.35491318340008
  C   0.70547619950059     -0.15260774017289      0.62483967597033
  Cl  -0.88897500664017     -2.29091481148572      0.35202153011912
  H   0.98705162276877     -0.57519321892689      1.59018791782566
  H   -1.35802486045910     -0.16686210593896      1.21174116320777
  C   -1.32299748343716      0.05752367035084     -0.93872806781858
  H   -2.36474961465354     -0.24131782528651     -1.05895971633822
  H   -1.27623294870335      1.14871287426401     -0.93673934970025
  H   -0.76618470248903     -0.31838928558733     -1.79850357093198
  N   0.72031661152775      1.34304664219160      0.82695273711588
  O   0.30934709631548      1.74672817281793      1.91206473525416
  O   1.06796647259132      2.04178676357546     -0.12011907478517
  N   1.69157373296109     -0.49143249626885     -0.34881779737625
  H   1.47599077235137     -0.10307499866900     -1.25667383526402
  H   1.78926858571057     -1.49547009579845     -0.41317953067856
