15
Coordinates from ORCA-job run
  C   -0.45743943600057     -0.58477759638212     -0.47796886075303
  C   0.62207253492431     -0.13715591229289      0.52254414056217
  Cl  0.09613931753974     -0.34013056808798     -2.16214291500062
  H   0.25411524756528     -0.38592400388117      1.52047386528728
  H   -0.53217156190587     -1.66887206007765     -0.35373117896534
  C   -1.81384686657566      0.06336561863524     -0.27806060582822
  H   -1.78089019920321      1.12675541247214     -0.51439163413396
  H   -2.13400530763720     -0.04578871323423      0.76100159908723
  H   -2.55093624247415     -0.41149428466002     -0.92667970062053
  N   0.69546132018254      1.36730705513824      0.50991668175388
  O   -0.07741555931122      1.96339245590814      1.25896601730147
  O   1.48894633444265      1.88163857608125     -0.26994616734541
  N   1.94518322572775     -0.65002458250530      0.36121763822522
  H   1.98870070531873     -1.61862915218477      0.64702511734952
  H   2.25608648740685     -0.55966224492888     -0.59722399691965
