15

C	0.0	0.0	0.0
C	-0.282576	-0.032366	-1.546154
Cl	1.757632	0.0	0.0
H	0.438479	0.684738	-1.949431
H	-0.311631	-0.87619	0.553082
N	-0.650948	1.157113	0.622369
O	-0.668841	1.168148	1.877157
O	-0.62532	2.213005	-0.073236
C	-1.631187	0.346357	-2.173825
H	-1.977362	1.275016	-1.726403
H	-2.383122	-0.427879	-2.050488
H	-1.448684	0.505345	-3.247799
C	0.108161	-1.356543	-2.040563
N	0.363554	-2.428404	-2.448459
H	-2.050742	0.0	0.0
