16

C	-0.139824	-0.001214	-1.522073
C	0.0	0.0	0.0
Br	-2.062569	0.299602	-2.067962
H	1.100075	0.0	0.0
N	0.69678	1.006039	-2.130244
H	0.424371	1.862349	-1.65181
H	1.623114	0.779399	-1.730484
C	0.1903	-1.323889	-2.064935
N	0.444118	-2.394882	-2.47644
N	-0.551608	-1.136898	0.705479
H	0.063384	-1.931759	0.585918
H	-1.466465	-1.380012	0.337185
N	-0.434019	1.292009	0.501952
H	-1.377478	1.211552	0.86657
H	0.176593	1.514324	1.279336
F	2.644432	0.0	0.0
