16

C	-0.192616	-0.065901	-1.537091
C	0.0	0.0	0.0
Br	0.009586	1.730432	-2.332013
H	1.094873	0.0	0.0
N	0.831477	-0.915116	-2.114201
H	1.693448	-0.63534	-1.609288
H	0.619588	-1.846882	-1.763474
C	-1.543379	-0.510735	-1.896094
N	-2.645013	-0.87734	-2.084815
N	-0.3865	-1.331055	0.479782
H	-1.356048	-1.346345	0.780787
H	0.205884	-1.5641	1.267416
N	-0.581162	1.142422	0.660345
H	-1.494315	0.923662	1.042531
H	0.030456	1.423229	1.415007
F	2.675132	0.0	0.0
