16

C	-0.179195	-0.042466	-1.536931
C	0.0	0.0	0.0
Br	0.009075	1.795912	-2.306679
H	1.102138	0.0	0.0
N	0.872267	-0.8465	-2.116446
H	0.64713	-1.805768	-1.865432
H	1.721139	-0.600903	-1.567645
C	-1.513485	-0.492808	-1.944775
N	-2.601373	-0.866756	-2.18726
N	-0.417324	-1.312573	0.469392
H	-1.350577	-1.242676	0.859347
H	0.23132	-1.619755	1.181774
N	-0.725406	1.061417	0.690187
H	-0.517941	1.940576	0.2298
H	-0.305663	1.129388	1.613016
F	2.705234	0.0	0.0
