16

C	-0.562393	0.175126	-1.418702
C	0.0	0.0	0.0
Br	0.303844	-1.230447	-2.623509
H	1.096903	0.0	0.0
N	-1.974111	0.04852	-1.399343
H	-2.369686	-0.0027	-2.328911
H	-2.161142	-0.800116	-0.866435
C	-0.169523	1.449791	-2.019315
N	0.045004	2.50181	-2.497449
N	-0.563171	-1.262756	0.517344
H	-0.767034	-1.072497	1.492001
H	0.194507	-1.939915	0.498971
N	-0.437701	1.111793	0.833981
H	0.327157	1.774973	0.872574
H	-1.266631	1.565277	0.468165
F	2.634446	0.0	0.0
