16

C	-0.417429	0.068588	-1.470489
C	0.0	0.0	0.0
Cl	-0.061912	-1.499977	-2.298455
H	1.094662	0.0	0.0
H	-0.312825	0.956587	0.439119
C	-1.862797	0.283692	-1.601531
N	-3.01657	0.4949	-1.681597
C	0.371296	1.159627	-2.186178
H	0.133204	2.128068	-1.73759
H	0.129676	1.186722	-3.250273
H	1.435114	0.957904	-2.039674
C	-0.582826	-1.15313	0.798568
H	-1.677372	-1.164066	0.766737
H	-0.212662	-2.10923	0.428172
H	-0.271501	-1.061139	1.841375
Cl	3.506684	0.0	0.0
