16

C	-0.547516	-0.014003	-1.427225
C	0.0	0.0	0.0
Cl	0.15376	1.380535	-2.32671
H	1.093571	0.0	0.0
H	-0.320175	0.947582	0.448703
C	-0.167898	-1.238483	-2.137911
N	0.035946	-2.249275	-2.702058
C	-2.067683	0.126243	-1.482964
H	-2.410551	0.190287	-2.51674
H	-2.544336	-0.732332	-1.00594
H	-2.357635	1.037685	-0.956611
C	-0.486122	-1.180396	0.837603
H	-0.211059	-2.129828	0.371507
H	0.014481	-1.144616	1.807356
H	-1.565931	-1.175244	1.012565
Cl	3.507641	0.0	0.0
