16

C	-0.391199	-0.043048	-1.473767
C	0.0	0.0	0.0
Cl	-2.156927	-0.483613	-1.640175
H	1.096229	0.0	0.0
H	-0.317108	-0.955429	0.432288
C	-0.256018	1.271309	-2.107425
N	-0.155056	2.326633	-2.614178
C	0.440034	-1.078311	-2.218775
H	0.265606	-2.059446	-1.772472
H	1.496316	-0.823733	-2.090503
H	0.174746	-1.111651	-3.277079
C	-0.564762	1.168789	0.788255
H	-1.657986	1.19138	0.759215
H	-0.248142	1.090461	1.830593
H	-0.185071	2.117085	0.40208
Cl	3.485846	0.0	0.0
