16

C	-0.539588	-0.022195	-1.430878
C	0.0	0.0	0.0
Cl	0.156509	1.34297	-2.383679
H	1.093445	0.0	0.0
H	-0.318528	-0.941778	0.465258
C	-0.146413	-1.266586	-2.100985
N	0.05957	-2.29577	-2.628524
C	-2.061215	0.095446	-1.505073
H	-2.517124	-0.700435	-0.909042
H	-2.402496	0.008701	-2.537827
H	-2.37675	1.062133	-1.112523
C	-0.490963	1.181495	0.829338
H	0.056612	1.191417	1.773788
H	-0.278383	2.126102	0.324442
H	-1.560088	1.135753	1.056478
Cl	3.502504	0.0	0.0
