18

C	0.0	0.0	0.0
C	-0.399215	0.075698	-1.502167
Cl	1.781282	0.0	0.0
H	0.385816	0.662294	-1.990658
N	-0.329794	1.397985	0.606115
O	0.166039	2.359769	0.035824
O	-1.041061	1.433761	1.599229
N	-0.597019	-0.968805	0.830389
H	-0.454613	-1.882419	0.416364
H	-1.614655	-0.766488	0.826674
N	-1.652281	0.784986	-1.653443
H	-2.004007	0.623006	-2.592568
H	-2.396841	0.428926	-0.993821
C	-0.384945	-1.339848	-2.092085
H	0.55327	-1.873954	-1.900113
H	-1.227903	-1.91286	-1.700007
H	-0.510855	-1.269631	-3.17747
H	-3.456368	0.0	0.0
