18

C	0.0	0.0	0.0
C	-0.540387	0.192918	-1.437297
Cl	1.769208	0.0	0.0
H	-1.55473	0.569031	-1.254986
N	-0.285407	1.311473	0.844773
O	-0.281869	1.166942	2.064319
O	-0.44749	2.379068	0.266041
N	-0.599413	-1.09667	0.610284
H	-0.376962	-1.087737	1.601182
H	-1.640264	-0.882676	0.491888
N	-0.704622	-1.082884	-2.124215
H	0.133746	-1.638782	-1.97995
H	-1.46177	-1.573568	-1.656784
C	0.260868	1.120591	-2.335094
H	1.17763	0.635488	-2.670987
H	-0.345973	1.324607	-3.219485
H	0.513863	2.057498	-1.848482
H	-2.996144	0.0	0.0
