18

C	0.0	0.0	0.0
C	-0.563617	0.186091	-1.448633
Cl	1.771145	0.0	0.0
H	-1.478927	0.759046	-1.261754
N	-0.316329	1.308458	0.792442
O	-0.284976	2.355242	0.151521
O	-0.499568	1.224356	1.995699
N	-0.557004	-1.045742	0.762956
H	-0.40289	-1.912164	0.259432
H	-1.589013	-0.833271	0.705636
N	-1.045637	-1.051954	-2.039186
H	-0.37298	-1.804614	-1.93913
H	-1.904906	-1.281058	-1.5386
C	0.340338	0.907309	-2.435665
H	1.172419	0.270661	-2.751042
H	0.741191	1.830155	-2.020019
H	-0.256916	1.138205	-3.320574
H	-2.992418	0.0	0.0
