18

C	0.0	0.0	0.0
C	-0.580905	0.293406	-1.405319
Cl	1.825423	0.0	0.0
H	-1.47335	0.884939	-1.167468
N	-0.226602	1.288901	0.904954
O	-0.26076	2.38931	0.367553
O	-0.304102	1.092177	2.113777
N	-0.577065	-1.112936	0.584867
H	-1.618585	-0.908592	0.48198
H	-0.339776	-1.133053	1.572037
N	-1.092472	-0.898914	-2.064464
H	-1.995552	-1.073948	-1.616178
H	-0.499107	-1.689709	-1.837325
C	0.33568	1.061261	-2.345001
H	0.760886	1.946503	-1.873818
H	1.145901	0.424153	-2.707379
H	-0.262698	1.364259	-3.206379
H	-2.971388	0.0	0.0
