15

C	0.0	0.0	0.0
C	-0.373953	-0.015334	-1.487428
Cl	1.794083	0.0	0.0
H	-1.390505	0.364087	-1.51411
H	0.319315	0.64717	-2.009365
N	-0.407287	1.309355	0.659067
O	-0.433208	2.29435	-0.065868
O	-0.563326	1.30298	1.870999
C	-0.495061	-1.120981	0.783496
N	-0.579572	-2.120533	1.399788
C	-0.323995	-1.424656	-2.053287
H	-1.100566	-2.026364	-1.579593
H	0.647797	-1.905869	-1.90078
H	-0.521602	-1.398147	-3.129859
F	-2.364054	0.0	0.0
