15

C	0.0	0.0	0.0
C	-0.205907	0.066943	-1.554201
Cl	1.787134	0.0	0.0
H	0.244193	-0.871533	-1.899971
H	0.479297	0.855104	-1.87545
N	-0.420213	1.257284	0.717866
O	-0.545681	1.184079	1.932015
O	-0.466405	2.281979	0.049204
C	-0.520123	-1.182677	0.66299
N	-0.619691	-2.237964	1.176637
C	-1.522164	0.285306	-2.27995
H	-2.233781	-0.505514	-2.076686
H	-1.983234	1.219539	-1.974959
H	-1.277364	0.326779	-3.353145
F	-2.2824	0.0	0.0
