15
Coordinates from ORCA-job run
  C   -0.62834040782835     -0.04474071456142      0.24081470370706
  C   0.80062433180193     -0.33702838339855     -0.22910663238852
  Br  -0.73430588887074     -0.26343424625583      2.19877229965141
  H   1.03301906412864     -1.36566751007512      0.06447642401743
  H   0.77150186647868     -0.31242241312254     -1.32561518623854
  C   -0.98742862090358      1.34176465009602     -0.05107725994073
  N   -1.26794688911906      2.44592707369393     -0.34086628900009
  C   -1.63891040304571     -0.99675293326085     -0.39197516727887
  H   -2.64730889056935     -0.79528617861051     -0.02947201081735
  H   -1.62119098107511     -0.87077972159095     -1.47824281962769
  H   -1.37377791000639     -2.02680202091091     -0.14683649660614
  C   1.86551622356054      0.62502179445286      0.27937206541196
  H   2.84018800531660      0.34838510133733     -0.12833957014691
  H   1.65179032809312      1.65062709617956     -0.02937223890852
  H   1.93557017203879      0.60018840602697      1.36746817816550
