15
Coordinates from ORCA-job run
  C   -0.71016236165326     -0.00932777828742      0.49998480508811
  C   0.80409487981915     -0.12794762524950      0.71289154551237
  Br  -1.59945435115017     -0.58356649050742      2.16452816630248
  H   1.07146452602573      0.45861863288007      1.59594652680803
  H   1.01822447698362     -1.17550575530377      0.94695407964953
  C   -1.08249438911950      1.38755889834917      0.28309271150828
  N   -1.34494972267010      2.51214271980536      0.06291298239230
  C   -1.23193418628426     -0.87861447711902     -0.63971696368685
  H   -0.81717308504562     -0.53494805118032     -1.58987311850683
  H   -0.93663590347041     -1.91638684123692     -0.47206934980348
  H   -2.31935642074633     -0.82608888652430     -0.69779082402904
  C   1.62067291408763      0.33466103182989     -0.49169099897243
  H   1.46905297285299     -0.30747085311232     -1.36094508197225
  H   2.68398192774218      0.30527436654260     -0.24414049274294
  H   1.37366872262833      1.36160110911389     -0.77108398754727
