15
Coordinates from ORCA-job run
  C   -0.67854114666445      0.13929940464759      0.41485946309048
  C   0.71578357197885      0.71075955891442      0.11939057875669
  Br  -0.65869777548304     -0.78180614645593      2.16146584367647
  H   0.60550003543156      1.34662150397117     -0.76786150771221
  H   0.99460960241501      1.36846583242783      0.94717316955946
  C   -1.62571459140748      1.24516290895070      0.54759666315827
  N   -2.37193248466523      2.15174921586617      0.60257930459784
  C   -1.17185569708010     -0.84447886309393     -0.64090149969482
  H   -1.15611664360368     -0.35714673600797     -1.62042591754142
  H   -2.19129400436089     -1.16340321139262     -0.42252001438177
  H   -0.53074988639213     -1.72505934351013     -0.66857514916848
  C   1.80128094073280     -0.33105017080769     -0.12185875479136
  H   1.88787634796863     -1.01866723115247      0.72099369313632
  H   2.76386134382731      0.16973382824323     -0.24537435476764
  H   1.61599038730284     -0.91118055060037     -1.02754151791783
