15
Coordinates from ORCA-job run
  C   -0.65624561876158      0.01175903276762      0.15641509501971
  C   0.82741695931624     -0.34817644349946      0.02454852334896
  Br  -1.03795373061465      0.55251938106064      2.01513711459736
  H   1.02340387832675     -1.16950554226613      0.72129683602325
  H   0.95494347218339     -0.74713628916249     -0.98957826726926
  C   -0.98041376815480      1.15558143913253     -0.69381736049810
  N   -1.22182454941736      2.04592188152951     -1.42255187239600
  C   -1.55863573333483     -1.17094798398749     -0.18220987039025
  H   -2.60994482793675     -0.91091512757846     -0.05588921631823
  H   -1.32091886231579     -2.01151287662594      0.47207577292188
  H   -1.38935410692556     -1.46622440416351     -1.22146627292293
  C   1.80178764341018      0.79918858794400      0.25307411547353
  H   2.82618109768873      0.44922142605801      0.10884486557627
  H   1.71929348241529      1.19363028424934      1.26654503666037
  H   1.62426466412073      1.61559663454184     -0.45042449982657
