13
Coordinates from ORCA-job run
  C   1.00456212094886     -0.54217244405719     -0.32986845146139
  C   -0.50189939013878     -0.23420206208324     -0.35794210764391
  Br  1.71523458760670     -0.74377809630961     -2.13276218965589
  H   -0.97772863041101     -1.03342481859505     -0.93664031740245
  H   1.15777240449847     -1.50769574740111      0.15824928753016
  C   1.75291160611746      0.48121668859717      0.38754767169240
  N   2.33357311960397      1.30128041313491      0.99670251723873
  C   -0.75664011773913      1.03271201197686     -1.04611466351001
  N   -0.98040771151052      2.06192970944553     -1.56506380214332
  C   -1.07658135525731     -0.20757843389261      1.06303895333322
  H   -0.88483969544902     -1.15907635866430      1.56479575933466
  H   -0.63050759482015      0.59829823446187      1.64828426223231
  H   -2.15544934344955     -0.04950909661323      1.02577308045550
