13
Coordinates from ORCA-job run
  C   1.08747399926011     -0.18929755331202      0.16617776182098
  C   -0.37516528468332      0.01317020745327     -0.28146020395314
  Br  1.57612407855189     -2.07931189063912      0.11783366588669
  H   -0.46694694160762     -0.36453903002765     -1.30587114342418
  H   1.20483822300054      0.12540819444829      1.20621593545678
  C   2.01647224890921      0.55185977074501     -0.67664083438097
  N   2.75135216297639      1.15721703646950     -1.36535280501450
  C   -0.64015219524834      1.45556360860180     -0.30026773612775
  N   -0.86378823842305      2.60845128545105     -0.27909901061596
  C   -1.38215240787537     -0.69164598857565      0.63082077436454
  H   -1.27055111793942     -0.34768026614609      1.66157476370371
  H   -2.39803014090109     -0.46627824111790      0.30324343710433
  H   -1.23847438601995     -1.77091713335050      0.59882539517948
