13
Coordinates from ORCA-job run
  C   1.13266645216191      0.05764940102876     -0.33747000010990
  C   -0.40632356259542     -0.00782247648648     -0.41578922039064
  Br  1.75217540341222      1.58600186657748      0.70317059411575
  H   -0.63306278518722     -0.87746350629594     -1.04708061245407
  H   1.55056916636087      0.19892360723026     -1.33660339851214
  C   1.66353595670657     -1.17108133636755      0.23871606495598
  N   2.05379842645717     -2.18170295994767      0.69377548748434
  C   -0.91114026921879      1.17698733466425     -1.11286753443461
  N   -1.32973983579004      2.12206921949391     -1.66980051890712
  C   -1.08821444734734     -0.18955068470669      0.94121543969688
  H   -0.91016395655314      0.67270604298527      1.58337511633317
  H   -0.70982599909582     -1.08677526806525      1.43480885316615
  H   -2.16427454931097     -0.29994124011034      0.79954972905622
