13
Coordinates from ORCA-job run
  C   1.09947195219805      0.15224575158177     -0.40287400867386
  C   -0.41072742600170     -0.16121646700076     -0.38074545110035
  Br  1.49240159660949      1.93394569611508      0.28517744616623
  H   -0.50899844232414     -1.16606478692874     -0.81288947721556
  H   1.46373746827126      0.15273376962040     -1.43256855293216
  C   1.83476798219512     -0.84173197124166      0.36843124429998
  N   2.39535474901620     -1.67137784282148      0.98337907502314
  C   -1.11476893687494      0.76492400203299     -1.26987366511463
  N   -1.69335080166568      1.50285376468134     -1.97645583926380
  C   -1.02258089956578     -0.16279911920105      1.02097903263052
  H   -0.97290597546996      0.83020475856879      1.46695595192163
  H   -0.49127720629834     -0.86911843208922      1.66180065910709
  H   -2.06912406008960     -0.46559912331746      0.96468358515177
