13
Coordinates from ORCA-job run
  C   1.06125151922125      0.03621629651801     -0.50681711031590
  C   -0.45386028047464     -0.18649172508077     -0.32162663994655
  Br  1.59545933935075      1.86156825510727     -0.07654147307735
  H   -0.63650897490298     -1.22878260376091     -0.61565834786384
  H   1.33229399994412     -0.10522719880683     -1.55535695518088
  C   1.81567864684425     -0.89976344086139      0.31678129749269
  N   2.39125085151714     -1.68102066445218      0.97944983888069
  C   -1.18964638072449      0.66456742088341     -1.25893491047930
  N   -1.78957993895257      1.34446131910960     -2.00478747822894
  C   -0.93847488317111      0.01514916009936      1.11493605969016
  H   -0.81151143512331      1.05164924531983      1.42577949108799
  H   -1.99645405677074     -0.24053138258637      1.18498551850219
  H   -0.37989840675767     -0.63179468148905      1.79379070943905
