13
Coordinates from ORCA-job run
  C   1.09573155734192     -0.03878723269724     -0.43759239296750
  C   -0.44556873475970     -0.02960398499679     -0.37461251251705
  Br  1.87641698891313      1.54599685979582      0.38702527384291
  H   -0.76661691586706     -0.94437913676928     -0.89071480158122
  H   1.42512712060733     -0.01573327850015     -1.47865375782691
  C   1.62081773872206     -1.23454182774184      0.20900696356107
  N   2.00469536941971     -2.21780637180955      0.72514666856662
  C   -0.95994108122867      1.10536540388363     -1.14367443986771
  N   -1.38941822682835      2.01075354873161     -1.75565378468684
  C   -1.00737862449072     -0.04029816989950      1.04788211650413
  H   -0.73374773109158      0.87052418609436      1.57994107605170
  H   -0.62443049005339     -0.90307009494653      1.59641463272058
  H   -2.09568697068468     -0.10741990114455      1.01248495820022
