13
Coordinates from ORCA-job run
  C   1.09037804060845     -0.18456959516985      0.14485691750439
  C   -0.38369918857047      0.00017829354303     -0.27129108268937
  Br  1.57697037500402     -2.07527031064185      0.16663364021958
  H   -0.50335113096081     -0.42058674473342     -1.27585922366858
  H   1.23570390086491      0.17559994470604      1.16648478686774
  C   1.99679425752129      0.51804992158200     -0.75382900761257
  N   2.71594638074254      1.09164566037423     -1.48506649489504
  C   -0.64980060989660      1.44066389678266     -0.34572848346646
  N   -0.87604646418700      2.59285803263809     -0.37260694959476
  C   -1.36531269557945     -0.66445487951397      0.69709199601206
  H   -2.38983032110201     -0.44363021012215      0.39446380404385
  H   -1.22911349907880     -1.74508317496593      0.69887652221604
  H   -1.21863904536606     -0.28540083447887      1.71097357506311
