13
Coordinates from ORCA-job run
  C   1.08311018923243     -0.24562054529258      0.08367822580485
  C   -0.38987813433973      0.06076593487833     -0.25787440504497
  Br  1.48557962851933     -2.13477251463814     -0.20260124290329
  H   -0.55071604682108     -0.20051066547282     -1.30968082560735
  H   1.26584622485313     -0.05625936435676      1.14457795464129
  C   2.00107114136452      0.55231752183318     -0.71874249847878
  N   2.72751336476996      1.20770711105827     -1.36951774507985
  C   -0.59330332734876      1.50580920884493     -0.11023407835522
  N   -0.77111728025029      2.65698641458971      0.04040455344720
  C   -1.37840307048792     -0.69920309352801      0.62988499080908
  H   -2.39914070236920     -0.40368862683458      0.38332230109851
  H   -1.20079695497748     -0.46996266970887      1.68297164085270
  H   -1.28176503214494     -1.77356871137267      0.47881112881584
