13
Coordinates from ORCA-job run
  C   1.01794241733163     -0.55014376099106     -0.28336406577946
  C   -0.48644823424758     -0.24297984032956     -0.37068520763699
  Br  1.79233311449058     -0.78647163897894     -2.05523316867719
  H   -0.94266775338031     -1.05432153736521     -0.94835400991315
  H   1.15319207701727     -1.50593813073122      0.22854701456441
  C   1.73889340142772      0.48776593500878      0.44103763529054
  N   2.28875693824523      1.32436120039244      1.05630601407953
  C   -0.71746111670278      1.00854631612586     -1.09452010457598
  N   -0.92562723616033      2.02455690777108     -1.64484981917384
  C   -1.11039999426095     -0.18505588592591      1.02848182127728
  H   -2.18769645444739     -0.03160630022710      0.94971908090653
  H   -0.68706821004190      0.63592448837925      1.60963285716175
  H   -0.93374894927120     -1.12363775312840      1.55928195247657
