13
Coordinates from ORCA-job run
  C   1.03038420743570     -0.54732183109153     -0.23989428579614
  C   -0.46918729496374     -0.24265855256429     -0.39089767352693
  Br  1.87795861756164     -0.78695899492204     -1.97796255750223
  H   -0.89954469752987     -1.05499235212865     -0.98669579340797
  H   1.14605655589927     -1.50167511610718      0.27951563451187
  C   1.72078177607853      0.49254951001588      0.51099643910825
  N   2.25761575875650      1.31844772154995      1.15167686162400
  C   -0.67212509141060      1.00827648747796     -1.12399029707434
  N   -0.86348141649409      2.02381417713186     -1.68138584836931
  C   -1.15190697932691     -0.18586118327999      0.98070806300987
  H   -0.74957332955213      0.63096887125076      1.58226697235247
  H   -1.00290961580387     -1.12727139439350      1.51492638137620
  H   -2.22406849065042     -0.02631734293919      0.85673610369429
