13
Coordinates from ORCA-job run
  C   1.03248042566470     -0.55232550786690     -0.22748329877295
  C   -0.46813692323850     -0.25451227499055     -0.38384385656091
  Br  1.87825953710458     -0.83136594960813     -1.96038696373202
  H   -0.89662310901462     -1.08032758580558     -0.96220481321856
  H   1.15081388886698     -1.49357373048027      0.31471221923786
  C   1.72020658403105      0.50840047743311      0.49610988556519
  N   2.24355478790677      1.36565517989868      1.10600751690529
  C   -0.67398530444017      0.98015170668350     -1.14332815123731
  N   -0.86584073240175      1.98440756761412     -1.72056796623119
  C   -1.15030233032433     -0.16998750932000      0.98648748570601
  H   -0.74808453510039      0.65923965109949      1.57101858508054
  H   -1.00073508622815     -1.10030794017613      1.53974615055739
  H   -2.22260720282618     -0.01345408448131      0.85973320670065
