16
Coordinates from ORCA-job run
  C   0.48718116291266     -0.08207340105458      0.06731220186750
  C   -0.84147552140662      0.16442227885914      0.01978373130241
  C   0.91419878650391     -1.39177511967278      0.67301761023915
  H   0.21088371428257     -1.72542952599297      1.43952127650630
  H   1.90116832095877     -1.29037649854965      1.13032993786972
  H   0.99235353175976     -2.18178450911749     -0.08518564731682
  C   1.57952101933242      0.80310420180603     -0.46328945880435
  H   2.43105757029856      0.18309160643446     -0.75555443257117
  H   1.92244936789367      1.50371370389308      0.30456235676556
  H   1.27120329784238      1.40007241315417     -1.31985656852343
  N   -1.37586599506895      1.45277061095177     -0.45555198807011
  O   -2.55690577512586      1.46857699044103     -0.81620650542706
  O   -0.63860266957972      2.43594424081002     -0.44274200584505
  N   -1.83933190129384     -0.71514270527710      0.42974091827413
  H   -1.70398832934301     -1.65451414101833      0.08668296917157
  H   -2.75684657996669     -0.36960014566680      0.18643560456166
