16
Coordinates from ORCA-job run
  C   0.46549676470188     -0.10381854196416      0.14572777426367
  C   -0.81456498284926      0.04370684229543     -0.26410702704800
  C   0.98859549752038      0.11388561694229      1.53760370461611
  H   0.93892976269130     -0.80990939599050      2.12255586012888
  H   0.43344272030333      0.86836155662384      2.09233373731862
  H   2.03667079950999      0.41926889893166      1.48157349399595
  C   1.47538074070340     -0.48557485970682     -0.90260092546326
  H   1.02157598059149     -1.08450573195847     -1.69553252115234
  H   2.28414314542186     -1.06543440082570     -0.45180551248006
  H   1.93389893755287      0.39920049819856     -1.36297758933173
  N   -1.90810160448599      0.31475087149605      0.68596858978724
  O   -1.74331890006469      0.02809689670520      1.86961805813157
  O   -2.94621413595672      0.79504383974991      0.22038774969087
  N   -1.25794474911905     -0.07069768000820     -1.57882852643562
  H   -2.22672530037675      0.20247591264219     -1.66451696272538
  H   -0.68126467614402      0.43414967686870     -2.23539990329653
