16
Coordinates from ORCA-job run
  C   0.49055066187233     -0.08601536807804      0.02650142361737
  C   -0.83928146141774      0.07301554769822     -0.15919377484821
  C   0.95612575066837     -1.44242307176420      0.48267459935901
  H   0.29748863585290     -2.23458749260464      0.11928537239649
  H   1.96590640645850     -1.63691144675250      0.11381785469825
  H   0.99723911761481     -1.50771976489902      1.57770026099517
  C   1.54829432379390      0.96867361011717     -0.13900850715689
  H   2.38686178224119      0.74051970744268      0.52400411469813
  H   1.19154871762862      1.97340852747952      0.08119347811227
  H   1.92683636943029      0.98500316795027     -1.16586098050686
  N   -1.40413099748763      1.32157664128585     -0.70139893532764
  O   -0.66935293404473      2.06965518840986     -1.34232089940673
  O   -2.60461374933428      1.52661921670236     -0.49695099442481
  N   -1.80923207949539     -0.89332211233846      0.09294233219008
  H   -2.74004974973980     -0.51176304793590      0.00067224625696
  H   -1.69219079404137     -1.34672930271318      0.98694240934739
