16
Coordinates from ORCA-job run
  C   0.48684932892918     -0.01626056702281      0.10652254756239
  C   -0.81356757725382      0.15327639773475     -0.22277920360770
  C   1.46599959249801     -0.14138170212947     -1.02936622873368
  H   1.61314170596438     -1.18890208509190     -1.32260746076442
  H   2.44228950775911      0.24484540110967     -0.72725597009553
  H   1.13183588129525      0.41409559951299     -1.90863905446518
  C   1.04870893487735     -0.12930134002203      1.49573525122676
  H   0.35433857277635     -0.57581183817115      2.20540476214698
  H   1.95793981236339     -0.73526197144602      1.46501823255742
  H   1.31519525643574      0.85618156690005      1.89052606729480
  N   -1.84890305484143      0.39106760443666      0.79887627275098
  O   -1.50364175274005      0.81992074373849      1.89756813999397
  O   -3.01825908317340      0.16603628038279      0.47161747171305
  N   -1.32274162163107      0.16129603966051     -1.51841586165757
  H   -0.97542306024375     -0.59861301561328     -2.08436044773037
  H   -2.33276244301524      0.17781288602076     -1.51584451819189
