16
Coordinates from ORCA-job run
  C   0.47578042891127     -0.09664559959772      0.11413765755209
  C   -0.83116790924290      0.03230365951691     -0.20757227791342
  C   1.41735657357711     -0.45781195672340     -1.00298707539237
  H   2.26874837544357     -1.01875857508510     -0.61071893481714
  H   0.92119612229251     -1.06763293271086     -1.76158477610566
  H   1.82233292277486      0.43586965030491     -1.49538383845173
  C   1.08934355076834      0.12390008687017      1.46803588765256
  H   2.12404511007746      0.45312003847193      1.34197291027318
  H   1.10124447068688     -0.80484833937989      2.04721967833124
  H   0.55723750092141      0.86152498188436      2.06618023839456
  N   -1.86277233485523      0.28094143437750      0.81501111558423
  O   -2.93739479505659      0.74598045034009      0.42253400176856
  O   -1.61434261369040     -0.00765015161500      1.98345277066762
  N   -1.36012525270767     -0.08480490042324     -1.49002362277646
  H   -2.33616201294713      0.17491715316010     -1.50951608934853
  H   -0.83532013695349      0.42959500060923     -2.18175764541873
