16
Coordinates from ORCA-job run
  C   0.50534556565267     -0.00977894662689      0.07121320995178
  C   -0.79320945856100      0.01908243971696     -0.28177797328195
  C   1.55911672818742     -0.15263234167542     -0.98829214688859
  H   1.12615838429048     -0.18906954394597     -1.98491199332226
  H   2.25921339838520      0.68706528988405     -0.92286280490228
  H   2.14182261203107     -1.06275293060850     -0.81237951006113
  C   1.02370320389664      0.11096064170977      1.47740207882432
  H   0.34446238200653     -0.29290973760927      2.22622116198367
  H   1.18810863653666      1.16231555836686      1.73039085919396
  H   1.98328967382509     -0.40539149902184      1.55293974394461
  N   -1.84499055861825      0.14353863174082      0.76072315717936
  O   -2.87703648799625     -0.50127758929257      0.56395803262528
  O   -1.64608148412427      0.87639359568093      1.72835506072203
  N   -1.27153356891291     -0.13990101026645     -1.59804553495439
  H   -1.91090035019962     -0.92555226953302     -1.63486923671941
  H   -1.78746867639944      0.68290971148053     -1.89006410429499
