16
Coordinates from ORCA-job run
  C   0.47548502481823     -0.05242981368819      0.14400295975571
  C   -0.84389656710648      0.09124095980114     -0.11488649482602
  C   0.92945409694579     -1.40819181547417      0.61388099936517
  H   1.81511915654727     -1.31104118845690      1.24587322950960
  H   1.20564579272048     -2.05700480930229     -0.22750787548507
  H   0.14918334772547     -1.91270948660529      1.18873533948765
  C   1.53899471220463      0.99490416475845     -0.03093959636812
  H   1.65931287143063      1.58640691829349      0.88212707309815
  H   2.49285121884842      0.50434134513067     -0.24132274275191
  H   1.32198541569603      1.69661123329356     -0.83448531311661
  N   -1.42682118935316      1.39346414192054     -0.48277733283411
  O   -2.52347194653463      1.37409266172088     -1.05050647800868
  O   -0.81374018384054      2.41695740624871     -0.18792524434334
  N   -1.79618014188423     -0.92095468629546     -0.03317407278332
  H   -1.49817338849107     -1.77920911209612     -0.47270528305512
  H   -2.68674821972684     -0.61647791924904     -0.40038916764398
