16
Coordinates from ORCA-job run
  C   0.50284233571182     -0.00674427509764      0.09061195984656
  C   -0.78172322882665      0.01052799823675     -0.31168376010263
  C   1.59974878373760      0.10722241577492     -0.92769221392733
  H   2.26136493862043     -0.76233881224768     -0.85193777591426
  H   1.20535894449732      0.17739784069650     -1.93840076193348
  H   2.21296582011618      0.98884163499452     -0.71455997845211
  C   0.96230660973221     -0.15538564855857      1.51465464008129
  H   0.27815109131938      0.28482619110346      2.23826204356813
  H   1.05878295253254     -1.21397058475073      1.77212694467731
  H   1.94468816323481      0.30843924995690      1.62695201622880
  N   -1.87616745912986     -0.07959771479453      0.68977021277368
  O   -2.87944050040174      0.59635153854489      0.45277038670284
  O   -1.73738334304011     -0.81500476463776      1.66580127095035
  N   -1.20358615639579      0.19161250829800     -1.64421623697523
  H   -1.71922375662074     -0.61979649465939     -1.96698007702124
  H   -1.82868519508739      0.98761891714035     -1.69747867050267
