16
Coordinates from ORCA-job run
  C   0.50437359399831     -0.04369741050526      0.06809479118875
  C   -0.79198740581028      0.06860034338464     -0.27659009562405
  C   1.53623834916887     -0.28423763583878     -0.99517194764355
  H   2.29266242754530      0.50682525031459     -0.95654366541791
  H   2.05669270351947     -1.22746995481977     -0.79948666549091
  H   1.09275297643422     -0.31666480752765     -1.98725873168630
  C   1.04132250606792      0.07185009341461      1.46782244981792
  H   1.26486167039018      1.11662456726824      1.70182787534943
  H   1.97125627628783     -0.49571191346743      1.54519490574041
  H   0.34695011464979     -0.28065305492721      2.22875731829889
  N   -1.82423296054104      0.28550317207030      0.77048108359004
  O   -1.56580902229341      1.01577227132645      1.72576348044901
  O   -2.90185182033709     -0.28535210195056      0.58992909618715
  N   -1.29065189409880     -0.08440703634900     -1.58599390346877
  H   -1.73967502618915      0.77009427257561     -1.89688845737345
  H   -1.99190248879211     -0.81607605496876     -1.59893753391665
