16
Coordinates from ORCA-job run
  C   0.46100932199104     -0.12997343039439      0.13893832627895
  C   -0.73672840964508      0.34409151424900     -0.27196706281237
  C   0.87646433438410     -0.39730366952520      1.55826714973713
  H   0.04609961922784     -0.68055990790649      2.20284579376933
  H   1.61849440616541     -1.19988048633390      1.56816420247812
  H   1.33555328301397      0.49020363177785      2.00497442207460
  C   1.46454337202718     -0.46298734549477     -0.93191600395422
  H   1.38377395856879     -1.51048888321361     -1.25008986428450
  H   2.47917778107079     -0.32295936671273     -0.55180277525610
  H   1.33510456681344      0.17057505344883     -1.81239242288244
  N   -1.76093174415246      0.80109590157308      0.68416802451157
  O   -1.40743604928791      1.11831396682444      1.81764097760017
  O   -2.92288424463157      0.86332315915827      0.27050918693302
  N   -1.13301613819304      0.49198214367583     -1.59816638287504
  H   -0.93032993807550     -0.31879129127733     -2.16387289697838
  H   -2.10889411927698      0.74435901015112     -1.66430067433984
