16
Coordinates from ORCA-job run
  C   0.48508186589716     -0.01575998076679      0.11777099813312
  C   -0.80729011569960      0.15461040740264     -0.24167953968755
  C   1.48520839468890     -0.16630158223050     -0.99668243229018
  H   1.17404417568199      0.38251537395004     -1.88858874733729
  H   2.46044998951940      0.21099565128077     -0.68070232146714
  H   1.62427476507804     -1.21888780609879     -1.27586220999333
  C   1.01702965813660     -0.11090569011938      1.52016359142581
  H   0.30564568335885     -0.54417314723895      2.22117803194790
  H   1.92410216808944     -0.72078249993206      1.51763020106756
  H   1.27914799018112      0.87910050857733      1.90646351645965
  N   -1.86281786410780      0.41553339291571      0.75306726898693
  O   -1.53810129809222      0.85650850452728      1.85330817569542
  O   -3.02675722903615      0.19680691451937      0.40288112221384
  N   -1.28763620390025      0.14365319922381     -1.54837134890792
  H   -0.93397903906978     -0.62922822334564     -2.09262412056255
  H   -2.29740294072569      0.16731497733516     -1.56795218568426
