16
Coordinates from ORCA-job run
  C   0.48502465695915     -0.11343369018949     -0.02206606827230
  C   -0.84352978725640      0.13046440790681     -0.08197322057398
  C   0.90441593757921     -1.52818692406258      0.27293977520896
  H   0.17388695254875     -2.24849971161376     -0.10235861902642
  H   1.02796474156685     -1.69702918033267      1.35051526459448
  H   1.86882785181063     -1.73901434405597     -0.19514877063459
  C   1.58654213357418      0.89637013110925     -0.18113035802042
  H   2.45807274020977      0.56709399569216      0.39065838369154
  H   1.30644629048485      1.89415654712798      0.15223703842245
  H   1.88716697426708      0.98520010981266     -1.22979816087475
  N   -1.37430956157489      1.45144247587317     -0.46381525265920
  O   -2.53981186285645      1.69967559180922     -0.13979242603496
  O   -0.65012488837684      2.21515567970909     -1.09825955471901
  N   -1.84648091468772     -0.80337856102705      0.16344711059358
  H   -1.68687961845761     -1.34329654625023      1.00101578232041
  H   -2.75721164579056     -0.36671998150860      0.18352907598422
