16
Coordinates from ORCA-job run
  C   0.49008784829726     -0.07404776109224      0.05335823926113
  C   -0.82652903988491      0.07429538109183     -0.21625013164600
  C   0.97902360083021     -1.47470409156273      0.30581007519658
  H   0.38822749490317     -2.20967843216933     -0.24573342640206
  H   0.93558936805148     -1.73243591032789      1.37191988206984
  H   2.02274375822470     -1.56947013214465     -0.00286503708407
  C   1.50862995967422      1.02507782282153      0.16625738853422
  H   1.08973295127326      1.96460580941851      0.52255393473616
  H   2.29936449736873      0.71036921786073      0.85222959529778
  H   1.96939848107821      1.23150954169331     -0.80489927585734
  N   -1.40240748474038      1.38116521279539     -0.58044110391332
  O   -0.65370166678622      2.25235786217763     -1.01716054023189
  O   -2.62319671389821      1.51041966979479     -0.44617492890867
  N   -1.76868819952055     -0.95077344154301     -0.22136627307970
  H   -2.70546950947431     -0.58710319215706     -0.32511476743418
  H   -1.70280534539666     -1.55158755665682      0.58687636946152
