16
Coordinates from ORCA-job run
  C   0.47659951291969     -0.09029341440962      0.11730629036322
  C   -0.83068528771310      0.01882498868860     -0.21046574988528
  C   1.42376109159467     -0.47444462629800     -0.98711203822150
  H   0.93360569603363     -1.10600254925268     -1.73167648885926
  H   1.82584326194350      0.40853234522547     -1.50072379323539
  H   2.27683013159690     -1.02103466956447     -0.57843997031317
  C   1.08393358011068      0.17300745144182      1.46643667846031
  H   1.09460285599095     -0.73713795494526      2.07441488119890
  H   0.54758859666089      0.92737261461025      2.03954583052922
  H   2.11841661237918      0.50056917961043      1.33492625079278
  N   -1.86581354714161      0.28917304466044      0.80307154710715
  O   -2.94223161560043      0.73734962948571      0.39624371281799
  O   -1.61803975693911      0.03323344610059      1.97927661029086
  N   -1.35614468079326     -0.13750196751061     -1.49024326517364
  H   -0.83500724537109      0.36363981838016     -2.19443803090133
  H   -2.33425920567150      0.11371266377717     -1.51812246497084
