14

C	0.0	0.0	0.0
C	-0.556173	0.004576	-1.40379
F	1.366376	0.0	0.0
H	-1.66567	0.050168	-1.239759
H	-0.218955	0.891439	-1.939245
N	-0.252665	1.443402	0.610239
O	-0.285277	2.411621	-0.142612
O	-0.302936	1.499784	1.835378
N	-0.570234	-0.99241	0.769822
H	-0.331905	-0.851384	1.745495
H	-1.610616	-0.842803	0.641204
C	-0.173006	-1.197151	-2.123689
N	0.101061	-2.15559	-2.744912
H	-2.954988	0.0	0.0
