14

C	0.0	0.0	0.0
C	-0.500746	0.068971	-1.451923
F	1.35013	0.0	0.0
H	-1.606351	0.136089	-1.352431
H	-0.115153	0.983221	-1.908619
N	-0.592463	1.206778	0.616103
O	-1.755534	0.942135	1.137625
O	-0.261691	2.303247	0.093377
N	-0.419894	-1.147487	0.735189
H	-1.437236	-1.093276	0.803382
H	-0.158984	-1.973433	0.207676
C	-0.147695	-1.11033	-2.218712
N	0.140948	-2.078428	-2.820905
H	-2.893482	0.0	0.0
