14

C	0.0	0.0	0.0
C	-0.564761	0.130634	-1.393131
F	1.381542	0.0	0.0
H	-0.493542	-0.857178	-1.853637
H	-1.65358	0.327346	-1.217829
N	-0.25387	1.339124	0.784661
O	-0.547178	2.353523	0.164526
O	-0.087001	1.270124	2.000649
N	-0.569267	-1.082247	0.650109
H	-0.351476	-1.01434	1.639981
H	-1.609819	-0.917896	0.531146
C	0.091273	1.10532	-2.248076
N	0.625252	1.83752	-2.995322
H	-2.962069	0.0	0.0
