14

C	0.0	0.0	0.0
C	-0.53918	0.093405	-1.421338
F	1.349005	0.0	0.0
H	-0.381205	-0.874672	-1.90104
H	-1.639661	0.229492	-1.295179
N	-0.548558	1.190346	0.720084
O	-0.220723	2.317046	0.271283
O	-1.684906	0.908926	1.274262
N	-0.4573	-1.225349	0.561254
H	-0.248238	-1.192264	1.555759
H	-1.483893	-1.168252	0.492605
C	0.043576	1.139138	-2.245719
N	0.44458	1.938298	-3.008081
H	-2.862179	0.0	0.0
