14
Coordinates from ORCA-job run
  C   -0.64780027464052      0.62541990331054     -0.64174663976050
  C   0.41915845487745     -0.46786951854897     -0.46550597185449
  Cl  0.12745611588865      2.11151056387647     -1.26761813453300
  H   0.89647166483765     -0.61566376372204     -1.44007505193902
  H   -1.33277206479752      0.31755520623011     -1.44135782652121
  N   -1.27729346622540      0.92541551274825      0.61991765326589
  H   -1.95324246602202      1.67045050215240      0.50293591736784
  H   -1.76867782725926      0.10195934828813      0.95381466232419
  C   -0.28234903672133     -1.70789118836814     -0.11881710884840
  N   -0.87955143444466     -2.67197638523970      0.18684086050976
  C   1.47835893749226     -0.13495547894346      0.58730863248551
  H   1.01214653660891      0.03048801853577      1.55684668851799
  H   2.19467383900746     -0.95430196451354      0.66691124839472
  H   2.01342102139834      0.76985924419417      0.30054507059074
