14
Coordinates from ORCA-job run
  C   -0.52914078090860      0.80376852252284     -0.28550369181542
  C   0.31632786272904     -0.47078214989571     -0.21213588401912
  Cl  -0.46038792369142      1.65886931373750      1.33684336969803
  H   0.27751090405985     -0.88704144383609     -1.22570240825552
  H   -0.04883181288074      1.50079052379536     -0.97380546109648
  N   -1.84049512035843      0.51726205758897     -0.73413618846672
  H   -2.37687040234111      1.36265437324832     -0.87793847284706
  H   -2.33616182336956     -0.07641620919564     -0.07905398434586
  C   -0.32841615142169     -1.44119514912530      0.67539975578833
  N   -0.86067718483595     -2.21115394365077      1.38410157520358
  C   1.77419280240689     -0.23344578306831      0.18154031479295
  H   2.34551632740358     -1.15685167934703      0.07413884957359
  H   1.85290915653147      0.10889115481042      1.21223694674650
  H   2.21452414667667      0.52265041241545     -0.47298472095679
