14
Coordinates from ORCA-job run
  C   -0.74870990480120      0.45363604861547     -0.68582713671190
  C   0.42680393159583     -0.50150043514926     -0.43853470299357
  Cl  -0.06325757036756      1.94872938406558     -1.51991001541328
  H   0.98274171403404     -0.58837005183568     -1.37726589316365
  H   -1.41733234786931      0.02599679992151     -1.43250448589514
  N   -1.47109407296552      0.72432438243993      0.49596874501369
  H   -2.33974359063826      1.20467545018850      0.30504052805943
  H   -0.93325689397442      1.26680970845236      1.15870954754271
  C   -0.11705704855986     -1.82575972153770     -0.12273518406414
  N   -0.53985964146458     -2.89196234599183      0.12708492257197
  C   1.37433200595646     -0.03476586673007      0.66868100969921
  H   0.87498076437793     -0.04933734898709      1.63869763927273
  H   2.23388125251118     -0.70369496802030      0.72866189429190
  H   1.73657140216525      0.97221896456858      0.45693313179003
