13

C	-0.319627	-0.048951	-1.499594
C	0.0	0.0	0.0
F	-0.297429	-1.382607	-1.893833
H	1.094101	0.0	0.0
H	-0.29518	0.97809	0.392973
C	-1.68126	0.457538	-1.807331
N	-2.743655	0.901777	-2.037776
N	0.649335	0.665351	-2.269469
H	1.556968	0.577841	-1.793624
H	0.40582	1.643239	-2.351001
C	-0.602657	-1.0548	0.786535
N	-1.082263	-1.902466	1.44438
H	2.758296	0.0	0.0
