13

C	-0.265313	0.035323	-1.505365
C	0.0	0.0	0.0
F	-0.09815	-1.302456	-1.957263
H	1.094754	0.0	0.0
H	-0.391433	-0.922057	0.431136
C	-1.658178	0.368573	-1.894722
N	-2.762303	0.620892	-2.205546
N	0.646673	0.93255	-2.082846
H	0.658006	0.864794	-3.092029
H	1.578313	0.771137	-1.675856
C	-0.513923	1.165806	0.691151
N	-0.921213	2.098032	1.279292
H	2.764666	0.0	0.0
