13

C	-0.36312	-0.049991	-1.485635
C	0.0	0.0	0.0
F	-1.49294	-0.86952	-1.675348
H	1.092023	0.0	0.0
H	-0.277055	-0.976559	0.410395
C	-0.77074	1.27474	-2.024046
N	-1.111727	2.302139	-2.478389
N	0.721919	-0.580487	-2.262254
H	0.479001	-1.498262	-2.600215
H	1.583513	-0.596363	-1.700689
C	-0.610365	1.05447	0.779486
N	-1.087686	1.907786	1.432967
H	2.724382	0.0	0.0
