13

C	-0.536662	0.009253	-1.425184
C	0.0	0.0	0.0
F	-0.064443	1.140397	-2.055317
H	1.092865	0.0	0.0
H	-0.309665	-0.929438	0.491383
C	-0.04266	-1.179709	-2.162934
N	0.343504	-2.116662	-2.754585
N	-1.981264	0.037036	-1.593133
H	-2.345983	0.775343	-0.995335
H	-2.369935	-0.846402	-1.273531
C	-0.546946	1.130218	0.728452
N	-1.017737	2.043667	1.30006
H	2.717889	0.0	0.0
