13

C	-0.5179	-0.186068	-1.416105
C	0.0	0.0	0.0
F	-0.087802	0.886914	-2.176878
H	1.091865	0.0	0.0
H	-0.338569	0.985363	0.335004
C	0.048367	-1.404371	-2.059262
N	0.347725	-2.396353	-2.612981
N	-1.957338	-0.186793	-1.467964
H	-2.328623	-0.775442	-0.733192
H	-2.279932	-0.538409	-2.361657
C	-0.52406	-1.027623	0.879102
N	-0.968572	-1.861979	1.579265
H	2.720483	0.0	0.0
