13

C	-0.329774	-0.15778	-1.488267
C	0.0	0.0	0.0
F	-0.111262	-1.504035	-1.779771
H	1.092985	0.0	0.0
H	-0.38895	-0.837482	0.583009
C	-1.756181	0.100491	-1.805126
N	-2.883315	0.304751	-2.06214
N	0.511202	0.626439	-2.329641
H	0.133049	1.546866	-2.506747
H	1.43608	0.682407	-1.894904
C	-0.480436	1.269744	0.509565
N	-0.843875	2.316312	0.902183
H	2.751273	0.0	0.0
