13

C	-0.537555	0.020377	-1.430015
C	0.0	0.0	0.0
F	-0.070632	1.162636	-2.042781
H	1.092873	0.0	0.0
H	-0.310336	-0.934459	0.481982
C	-0.024777	-1.158857	-2.169556
N	0.288248	-2.129319	-2.750522
N	-1.977254	0.03709	-1.598696
H	-2.357885	-0.848419	-1.285614
H	-2.346699	0.769719	-0.999273
C	-0.550959	1.126217	0.738605
N	-1.01286	2.043723	1.312482
H	2.716351	0.0	0.0
