18

C	0.0	0.0	0.0
C	-0.550603	0.013295	-1.429826
Cl	1.805646	0.0	0.0
H	-1.642366	0.093562	-1.240891
C	-0.507773	1.192042	0.788219
H	-0.117786	1.17456	1.808656
H	-0.197796	2.102603	0.276459
H	-1.60558	1.09901	0.784835
C	-0.360769	-1.253221	0.679454
N	-0.526596	-2.275003	1.236196
C	-0.267824	-1.271665	-2.198195
H	0.807308	-1.471412	-2.266833
H	-0.756975	-2.127179	-1.727613
H	-0.664479	-1.174377	-3.213588
N	-0.082074	1.225476	-2.101133
H	0.818513	1.04528	-2.534294
H	-0.739342	1.458032	-2.83576
H	-3.265013	0.0	0.0
