18

C	0.0	0.0	0.0
C	-0.40286	-0.101982	-1.535522
Cl	1.802797	0.0	0.0
H	0.465925	0.296784	-2.070337
C	-0.531951	1.231226	0.70952
H	-0.152174	1.272127	1.732075
H	-0.21818	2.133507	0.18008
H	-1.626956	1.150755	0.719463
C	-0.390616	-1.207707	0.728972
N	-0.609605	-2.195169	1.327386
C	-1.622613	0.721665	-1.909958
H	-1.832722	0.52224	-2.963518
H	-2.502051	0.4457	-1.297312
H	-1.439129	1.79131	-1.790157
N	-0.595408	-1.470051	-1.997655
H	0.162279	-2.065486	-1.678054
H	-1.462043	-1.817723	-1.59283
H	-3.743706	0.0	0.0
