18

C	0.0	0.0	0.0
C	-0.352119	0.039799	-1.512354
Cl	1.809405	0.0	0.0
H	0.266705	0.864944	-1.904179
C	-0.562357	1.175964	0.771602
H	-0.287846	2.110708	0.276076
H	-0.175977	1.184753	1.792755
H	-1.655577	1.070709	0.793267
C	-0.398739	-1.26828	0.614375
N	-0.655785	-2.262372	1.184398
C	-1.81127	0.355199	-1.786865
H	-2.550224	-0.171548	-1.160995
H	-2.016224	1.41277	-1.609165
H	-2.023357	0.158825	-2.845391
N	0.021863	-1.244664	-2.099391
H	1.01884	-1.284449	-2.268371
H	-0.459183	-1.361832	-2.980716
H	-4.134454	0.0	0.0
