18

C	0.0	0.0	0.0
C	-0.521208	-0.055819	-1.458734
Cl	1.789436	0.0	0.0
H	-1.617516	-0.089203	-1.296892
C	-0.511335	1.232455	0.719839
H	-0.171297	1.24646	1.757728
H	-0.134057	2.124743	0.218968
H	-1.610621	1.168575	0.664166
C	-0.386698	-1.214164	0.730915
N	-0.566414	-2.196209	1.351588
C	-0.048914	-1.289918	-2.211381
H	1.033429	-1.261899	-2.374766
H	-0.53663	-1.301205	-3.187819
H	-0.298456	-2.211551	-1.68007
N	-0.196636	1.131419	-2.238204
H	-0.767831	1.910028	-1.933533
H	0.779704	1.381091	-2.112539
H	-3.23053	0.0	0.0
