18

C	0.0	0.0	0.0
C	-0.479284	-0.040191	-1.481746
Cl	1.787537	0.0	0.0
H	0.319986	-0.552743	-2.031946
C	-0.573026	1.134915	0.82885
H	-0.252334	2.099535	0.433349
H	-0.238921	1.045368	1.865069
H	-1.668839	1.04456	0.782745
C	-0.334715	-1.280395	0.654048
N	-0.473531	-2.268819	1.274371
C	-0.626456	1.372202	-2.057904
H	-1.485488	1.870596	-1.60451
H	-0.818439	1.290869	-3.132684
H	0.274501	1.983048	-1.924023
N	-1.665623	-0.870006	-1.559708
H	-2.448018	-0.503154	-0.953935
H	-2.010807	-0.85785	-2.515452
H	-3.641855	0.0	0.0
