18

C	0.0	0.0	0.0
C	-0.375545	-0.061519	-1.512463
Cl	1.803055	0.0	0.0
H	0.391171	-0.708556	-1.960565
C	-0.570398	1.176088	0.764155
H	-0.217796	2.11572	0.33523
H	-1.666442	1.099838	0.693728
H	-0.263839	1.128088	1.811664
C	-0.369436	-1.259821	0.660018
N	-0.58007	-2.253427	1.250659
C	-0.235716	1.322865	-2.159252
H	-0.282574	1.204535	-3.247051
H	-1.063708	1.964876	-1.853254
H	0.715762	1.810646	-1.920211
N	-1.667454	-0.694407	-1.704572
H	-2.396343	-0.382521	-1.003639
H	-2.02655	-0.397667	-2.606613
H	-3.549709	0.0	0.0
