18

C	0.0	0.0	0.0
C	-0.460446	0.03605	-1.510878
Cl	1.802538	0.0	0.0
H	0.317774	-0.522502	-2.044935
C	-0.592572	1.080365	0.879534
H	-0.274816	2.066947	0.539382
H	-1.687242	0.979809	0.805065
H	-0.279994	0.942841	1.91753
C	-0.338608	-1.324582	0.541232
N	-0.533709	-2.403308	0.963771
C	-0.475512	1.46937	-2.025436
H	0.450914	2.006117	-1.799358
H	-0.615452	1.438568	-3.107505
H	-1.323818	2.005363	-1.595575
N	-1.728873	-0.585914	-1.785783
H	-2.491718	-0.253183	-1.13979
H	-1.659541	-1.584921	-1.622702
H	-3.61426	0.0	0.0
