18

C	0.0	0.0	0.0
C	-0.605023	0.018206	-1.404538
Cl	1.800684	0.0	0.0
H	-1.693025	0.015954	-1.155978
C	-0.508043	1.176993	0.812964
H	-0.204668	2.097518	0.315074
H	-0.111831	1.142428	1.830664
H	-1.606091	1.082261	0.815171
C	-0.354235	-1.259588	0.674274
N	-0.531713	-2.285221	1.220298
C	-0.269684	-1.215585	-2.230487
H	0.806954	-1.286273	-2.424867
H	-0.596893	-2.130593	-1.731382
H	-0.791419	-1.152003	-3.190797
N	-0.272901	1.279282	-2.061397
H	-1.061397	1.556512	-2.635139
H	0.535178	1.155959	-2.663177
H	-3.280145	0.0	0.0
