18

C	0.0	0.0	0.0
C	-0.458886	-0.007743	-1.511007
Cl	1.799216	0.0	0.0
H	0.311471	-0.597723	-2.024594
C	-0.590753	1.108526	0.845692
H	-0.277886	1.001615	1.886788
H	-1.685334	1.010262	0.77577
H	-0.270248	2.082866	0.475616
C	-0.342969	-1.306745	0.579512
N	-0.536705	-2.371144	1.038586
C	-0.45255	1.407943	-2.075521
H	-0.589594	1.342329	-3.156111
H	0.480874	1.939405	-1.864356
H	-1.295593	1.971039	-1.668745
N	-1.736935	-0.620668	-1.76653
H	-2.497967	-0.264646	-1.130372
H	-1.682739	-1.616244	-1.571987
H	-3.629251	0.0	0.0
