18

C	0.0	0.0	0.0
C	-0.656046	-0.054384	-1.383154
Cl	1.798474	0.0	0.0
H	-1.70139	-0.318133	-1.104279
C	-0.518632	1.181444	0.798281
H	-1.617194	1.090861	0.789247
H	-0.138156	1.15346	1.821738
H	-0.198464	2.101144	0.307401
C	-0.332574	-1.254472	0.701993
N	-0.507889	-2.27365	1.260169
C	-0.048983	-1.097366	-2.299439
H	0.947961	-0.792866	-2.633587
H	-0.690367	-1.227124	-3.177614
H	0.032005	-2.065313	-1.798869
N	-0.63747	1.277503	-1.995038
H	-0.661206	1.165146	-3.002396
H	-1.519405	1.716206	-1.735079
H	-3.308944	0.0	0.0
