18

C	0.0	0.0	0.0
C	-0.281282	-0.053272	-1.565159
Cl	1.805745	0.0	0.0
H	0.589257	0.446351	-1.99424
C	-0.295036	1.369301	0.637169
H	0.163729	1.416052	1.629534
H	0.149645	2.155116	0.016376
H	-1.372676	1.490394	0.705784
C	-0.614993	-1.111598	0.713231
N	-0.62324	-2.121325	1.342873
C	-1.467875	0.682803	-2.1774
H	-1.635917	1.649412	-1.701298
H	-1.220423	0.844863	-3.238095
H	-2.392749	0.116257	-2.087388
N	-0.26805	-1.421662	-2.078449
H	0.547333	-1.899621	-1.708139
H	-1.073929	-1.888345	-1.670602
H	-2.3595	0.0	0.0
