12
Coordinates from ORCA-job run
  C   1.09683989368175      0.23090132315538     -0.66355641732606
  C   -0.32047354885493      0.20299026297133     -0.13205092166698
  Br  2.35740272139367     -0.61751847388921      0.53389090237867
  H   -0.96424551059898      0.63911435713926     -0.91473424959295
  H   1.14611867909543     -0.29271454222471     -1.61420163937821
  H   1.41611211962373      1.26555514854707     -0.79686339372330
  N   -0.43818671556695      0.77745729305621      1.16864253050438
  H   -1.40085468379333      0.83242533866525      1.46860794189161
  H   -0.01090322197599      1.69275915592844      1.19781918469475
  N   -0.81906407246788     -1.23467389508053     -0.07811532631624
  O   -1.52227699753488     -1.55340373230720      0.87199082012574
  O   -0.54046866300163     -1.94089223596129     -1.04142943159143
