12
Coordinates from ORCA-job run
  C   1.13819721883384      0.03450099804419     -0.59964963070951
  C   -0.28262826223724      0.17355938085867     -0.10009510200111
  Br  1.96521258140170      1.79198895748146     -0.69928222202501
  H   -0.86528556260203      0.81835437125126     -0.77216079438554
  H   1.72391742030383     -0.57254443907686      0.08719956906828
  H   1.16732841817057     -0.38969552611544     -1.59933384718071
  N   -0.33000792722095      0.52877212945577      1.29320196595195
  H   -1.28008803389151      0.75083205896679      1.56216978592699
  H   0.25445074496490      1.33794729676046      1.45944292133404
  N   -0.98202439501203     -1.16844504848328     -0.19459202265726
  O   -0.35034939859663     -2.14457173553576     -0.58778390393697
  O   -2.15872280411444     -1.16169844360726      0.15188328061484
