17

C	-0.564803	0.006406	-1.417553
C	0.0	0.0	0.0
F	0.142517	0.879898	-2.180118
H	1.086162	0.0	0.0
N	-0.236771	-1.36444	-2.08031
O	0.64863	-2.048411	-1.59161
O	-0.878742	-1.609104	-3.098808
N	-1.921417	0.34016	-1.494647
H	-2.231168	0.266419	-2.456106
H	-2.462162	-0.279566	-0.905558
N	-0.494963	-1.149701	0.804845
O	0.09222	-1.358471	1.856296
O	-1.466914	-1.781593	0.382858
N	-0.482983	1.249223	0.680142
O	-1.392795	1.141589	1.496834
O	0.060319	2.28212	0.322224
Br	3.347773	0.0	0.0
