17

C	-0.624777	0.017912	-1.416861
C	0.0	0.0	0.0
F	0.236084	0.682623	-2.221122
H	1.088584	0.0	0.0
N	-0.6091	-1.447807	-1.90372
O	0.46205	-2.021047	-1.738732
O	-1.61659	-1.905407	-2.426361
N	-1.917557	0.539226	-1.614519
H	-1.922443	1.519165	-1.362216
H	-2.593692	0.016433	-1.076981
N	-0.529344	-1.145137	0.790601
O	0.226371	-1.706532	1.569337
O	-1.723001	-1.416762	0.614254
N	-0.38912	1.241049	0.740828
O	-0.333157	2.286032	0.096961
O	-0.675479	1.141343	1.928013
Br	3.32167	0.0	0.0
