17

C	-0.481114	0.001531	-1.434145
C	0.0	0.0	0.0
F	-0.065649	-1.167367	-2.037733
H	1.090106	0.0	0.0
N	-2.007781	-0.091857	-1.559562
O	-2.573538	0.645037	-2.360042
O	-2.529006	-0.940717	-0.851614
N	-0.045164	1.16396	-2.077229
H	0.933945	1.097816	-2.326302
H	-0.629009	1.40559	-2.866453
N	-0.423225	-1.182401	0.809809
O	0.111563	-2.238778	0.49094
O	-1.168262	-0.995405	1.769522
N	-0.46284	1.22071	0.708579
O	-1.591148	1.64296	0.458349
O	0.34813	1.731724	1.476366
Br	2.74883	0.0	0.0
