14

C	-0.397504	0.013195	-1.467547
C	0.0	0.0	0.0
F	-0.428738	-1.307534	-1.939897
H	1.096137	0.0	0.0
H	-1.414395	0.399663	-1.631928
H	-0.298812	0.972768	0.415071
N	0.520588	0.752615	-2.293966
H	1.459208	0.626783	-1.906465
H	0.300705	1.738519	-2.235311
C	-0.584887	-1.136654	0.8215
H	-1.681341	-1.153776	0.790656
H	-0.273644	-1.047238	1.866036
H	-0.221269	-2.093356	0.4464
H	3.115271	0.0	0.0
