14

C	-0.502105	0.052119	-1.418714
C	0.0	0.0	0.0
F	-1.880735	0.496658	-1.400205
H	1.093479	0.0	0.0
H	0.021692	0.825742	-1.986409
H	-0.318474	0.93272	0.478028
N	-0.407165	-1.180749	-2.115621
H	-0.795913	-1.086862	-3.044469
H	-0.916522	-1.903152	-1.622524
C	-0.520271	-1.196295	0.789523
H	-0.063226	-2.122325	0.43118
H	-1.611123	-1.28777	0.739993
H	-0.23539	-1.095103	1.839546
H	3.175092	0.0	0.0
