14

C	-0.391646	0.069194	-1.467923
C	0.0	0.0	0.0
F	-0.478567	-1.240538	-1.96613
H	1.09613	0.0	0.0
H	-1.392035	0.503059	-1.616368
H	-0.388031	-0.91518	0.456374
N	0.549955	0.791015	-2.278335
H	0.337307	1.779649	-2.257375
H	1.484276	0.656354	-1.886669
C	-0.468868	1.238091	0.755886
H	-0.063147	2.142418	0.291869
H	-0.099717	1.219991	1.784549
H	-1.562335	1.327829	0.783816
H	3.107117	0.0	0.0
