15
Coordinates from ORCA-job run
  C   -0.61020414678147      0.09235263821918      0.29798761805183
  C   0.39444055241790      1.04434105666193     -0.33709271107077
  Cl  -1.98436435823130      1.03830897527604      0.92892484998505
  H   0.59160470552446      1.86515214926698      0.35711559376990
  H   -0.09210886669857      1.46376718393776     -1.22134260661567
  N   0.04740882128028     -0.54255029546068      1.52378851811084
  O   0.93515186104470      0.10264107912144      2.07576263336450
  O   -0.37543073700502     -1.63181473615154      1.89039664048517
  C   -1.09939290654755     -0.99068804520414     -0.62884509213674
  H   -1.80186017655060     -1.64731647631658     -0.12088282179963
  H   -1.59652458179964     -0.52435392903700     -1.48128953958196
  H   -0.24147076908520     -1.56423247403289     -0.97962650743506
  N   1.57880324396582      0.29146627408722     -0.72419339902285
  H   2.27982909445737      0.35159422410112      0.00152858673297
  H   1.97211826400881      0.65033237553115     -1.58223176283757
