15
Coordinates from ORCA-job run
  C   -0.42944744091564      0.05152702366800      0.35799673189253
  C   0.96353626842829      0.49790901835381     -0.08756846471292
  Cl  -1.47943447076005      1.47109359952437      0.48895344785210
  H   1.36027628698085      1.17830378892158      0.67937535681920
  H   1.59252690756924     -0.39332561359810     -0.10695410377573
  N   -0.26288205761898     -0.58087966468980      1.74319910161915
  O   0.51894991901764     -1.52975377875989      1.76043740333841
  O   -0.88366392709303     -0.14619981040695      2.70168074583195
  C   -1.05986715418021     -0.98142762881391     -0.54947821648688
  H   -2.04426805645496     -1.26558071189950     -0.17359191521928
  H   -1.15513295799071     -0.55474043719530     -1.54584181945410
  H   -0.41890939942557     -1.86294472565780     -0.59379997052937
  N   0.89429356654822      1.06077445764532     -1.42546161360365
  H   1.80583232379350      1.02874661662694     -1.86118463063206
  H   0.59919019210141      2.02749786628122     -1.38676205293935
