15
Coordinates from ORCA-job run
  C   -0.38455371500989      0.03976755741270      0.38729786191965
  C   0.97947530226146      0.48848166014640     -0.13161062487458
  Cl  -1.39695303817648      1.47267117710950      0.65496656057854
  H   1.59275964357057     -0.40398734169293     -0.25513011319057
  H   1.44953260380844      1.11270262522750      0.64034324222196
  N   -0.18974207064401     -0.66908585145300      1.72909465675931
  O   0.83442949678026     -1.34401726694979      1.81542694753947
  O   -1.07144484958342     -0.59382707845774      2.57202634015024
  C   -1.09279532670728     -0.93919126447174     -0.52325728443627
  H   -0.48693942756223     -1.84415449257455     -0.61573590152581
  H   -1.20526208158316     -0.48158472329272     -1.50419533514013
  H   -2.07109116159335     -1.19634480598551     -0.11474570181644
  N   0.81662900696617      1.13313923026674     -1.42567978504395
  H   1.69718086966052      1.12954506895054     -1.92227436384504
  H   0.52977474781241      2.09588550576459     -1.30652649929638
