11
Coordinates from ORCA-job run
  C   0.41823522350199      0.57834852272186     -0.11680490847516
  C   -0.87114454969036      0.17880946263834     -0.03611894457034
  H   0.59680277629745      1.63172243751299     -0.32551323877625
  C   1.60173621831378     -0.30808566537488      0.06110993846098
  H   2.21953911935082      0.05494458329590      0.88772329134647
  H   1.31725530338913     -1.34093856821315      0.26419363472896
  H   2.22696509854479     -0.28441743582037     -0.83640234656902
  C   -1.22758188962017     -1.18581947539708      0.23426567389937
  N   -1.50279577424120     -2.30754387348996      0.45490849308932
  C   -1.95030761989244      1.10757933181601     -0.21890053770268
  N   -2.82870390595379      1.87440068031034     -0.36746105543166
