11
Coordinates from ORCA-job run
  C   0.39656113196344      0.59227657548232      0.11902227957176
  C   -0.86361131457196      0.17014049165843     -0.13104549167978
  H   0.54330131485765      1.66410168741842      0.23845910052501
  C   1.58804602661769     -0.29280537714931      0.24206339004689
  H   1.33743859111677     -1.34523265804349      0.10682346225112
  H   2.34141237300750     -0.01136594307884     -0.49970397533711
  H   2.04894045666276     -0.16392838766121      1.22601231290056
  C   -1.17849014993615     -1.21982100967346     -0.30706685179272
  N   -1.42156008057720     -2.36138243635259     -0.44915780829644
  C   -1.95296468382050      1.09946942982599     -0.23223746993208
  N   -2.84007366532001      1.86654762757375     -0.31316894825722
