11
Coordinates from ORCA-job run
  C   0.37464295255693      0.61750851917088      0.00840357279981
  C   -0.87616744345056      0.11619606440356     -0.10354634281643
  H   0.47856647115298      1.70006186856569     -0.03929094790448
  C   1.61023003547518     -0.19412055460593      0.19080938804266
  H   1.40131097858567     -1.26364911889294      0.22459144515643
  H   2.31136982918255      0.00257602478394     -0.62579984313249
  H   2.11410673169575      0.09619426555272      1.11778607601823
  C   -1.13605696902316     -1.29517015736875     -0.05583500229834
  N   -1.33586705195478     -2.45311721108816     -0.01553875151839
  C   -2.00957598279312      0.97946992993396     -0.27803630569263
  N   -2.93155955142745      1.69405036954502     -0.42354328865437
