11
Coordinates from ORCA-job run
  C   0.43104345607276      0.57255015525301     -0.09495180141675
  C   -0.86625871962737      0.19205364680572     -0.06699722780849
  H   0.63298769902717      1.62380120856752     -0.29200736157993
  C   1.59437444412929     -0.33219437602292      0.12018571838284
  H   2.19021710074698      0.02007550003332      0.96766374797279
  H   1.28896285556455     -1.36160126892307      0.30893656852154
  H   2.24873589979693     -0.31364664979021     -0.75641594987905
  C   -1.25368084280995     -1.16793402352874      0.18268236361578
  N   -1.55630718235611     -2.28541967221428      0.38810779641314
  C   -1.92387535747373      1.13718940312282     -0.28756224692617
  N   -2.78519935307053      1.91612607669684     -0.46964160729570
