11
Coordinates from ORCA-job run
  C   0.49312984948112      0.00622077168769     -0.52882313989357
  C   -0.80300090748811     -0.27609567640543     -0.26630469725222
  H   0.83349159964577     -0.14320850200777     -1.55183120619554
  C   1.48095291432732      0.50299258626752      0.46903519391672
  H   1.88593997043588      1.46669547141634      0.14619204499490
  H   2.32575119590085     -0.18914293679441      0.53535341288073
  H   1.04394503177082      0.61971678477146      1.46106056360719
  C   -1.68431830666246     -0.75078299830789     -1.29510472323732
  N   -2.40090110138596     -1.13884246465787     -2.14230711649260
  C   -1.36457343594844     -0.11681196837050      1.04576958429485
  N   -1.81141681007678      0.01825893240085      2.12496008337686
