11
Coordinates from ORCA-job run
  C   0.52047577601844      0.00882993828555     -0.50087206528149
  C   -0.79550827097051     -0.24292964519494     -0.31782840094399
  H   0.91048924748542     -0.11209446929213     -1.50969131386172
  C   1.46766280826377      0.43640692847388      0.56597130818946
  H   1.91594275297603      1.39949188618149      0.30374514348150
  H   0.98193552862036      0.52829630408790      1.53778023280982
  H   2.28794825789618     -0.28290957613977      0.64851553829612
  C   -1.63401732049659     -0.64558170785519     -1.41102017158465
  N   -2.31559486095581     -0.96935491012204     -2.31257893382217
  C   -1.42113399547595     -0.11627650462916      0.96841763035077
  N   -1.91919992336133     -0.00387824379559      2.02756103236635
