11
Coordinates from ORCA-job run
  C   0.37880213980603      0.61548778825292      0.00325559574461
  C   -0.87502695330470      0.12124380594370     -0.10754834985164
  H   0.48980238047790      1.69690203560506     -0.05281608322903
  C   1.60851183151433     -0.20267468868235      0.19540251386390
  H   1.39209868778687     -1.27032776025712      0.24101132683405
  H   2.11415696763922      0.09416019881330      1.11918029152501
  H   2.31097844999278     -0.02013183423458     -0.62329128560751
  C   -1.14372814860066     -1.28818131663210     -0.04803546026302
  N   -1.34882895705651     -2.44473018246961      0.00434035783635
  C   -2.00335062695840      0.98941910895225     -0.29035748744549
  N   -2.92241577129687      1.70683284470853     -0.44014141940724
