11
Coordinates from ORCA-job run
  C   0.53242898230363     -0.21164584094535     -0.44087987146357
  C   -0.81128964303440     -0.22325011610846     -0.28991370919395
  H   0.93309790172119     -0.69042403928597     -1.33254735172757
  C   1.49676492216647      0.40146716402029      0.51439620013389
  H   2.08915927507545      1.16887887178925      0.00728661765600
  H   2.19997472769907     -0.35622453177079      0.87303550271821
  H   0.99853503578422      0.85247422482010      1.37297349209399
  C   -1.66421804879472     -0.84085602142119     -1.26527481653714
  N   -2.35629852449146     -1.34850242556140     -2.06843785753469
  C   -1.45314101572769      0.37662343925300      0.84604664200709
  N   -1.96501361270175      0.87045927521052      1.78231515184773
