11
Coordinates from ORCA-job run
  C   0.36730528331081      0.62148310783101      0.04545375434370
  C   -0.87356015886536      0.11161513395869     -0.12503584926099
  H   0.45958308153326      1.70599794559938      0.04583086524976
  C   1.60635614264157     -0.18417976294041      0.22953925370714
  H   2.08196063859924      0.07323267416779      1.18066006941409
  H   2.32692606668987      0.05283565927270     -0.55884373855338
  H   1.40894117037964     -1.25627144278840      0.21415437005222
  C   -1.11772333630324     -1.30333028103188     -0.14401444857604
  N   -1.30412379744523     -2.46424150395677     -0.15821109780727
  C   -2.01310532007031      0.96779707336609     -0.29499879969574
  N   -2.94255977047024      1.67406139652180     -0.43353437887350
