11
Coordinates from ORCA-job run
  C   0.53210151403512     -0.27811181454042     -0.40341651165294
  C   -0.81380361389517     -0.20305980599862     -0.29573841233654
  H   0.92941647757575     -0.85262896493880     -1.23821338919492
  C   1.50291349433251      0.36192840859230      0.52725295760035
  H   2.15124413342923     -0.39873736524037      0.97222440995927
  H   1.00757635401317      0.91329532723701      1.32670539991817
  H   2.15210137748316      1.04853580567390     -0.02419696871133
  C   -1.45202582799175      0.52718734956759      0.76331353911501
  N   -1.96238221394900      1.12891615948827      1.63505701081040
  C   -1.67383975331053     -0.85474252300167     -1.24250558331977
  N   -2.37330194172250     -1.39058257683920     -2.02048245218769
