11
Coordinates from ORCA-job run
  C   0.53124454153300     -0.00901298003430     -0.49028052445535
  C   -0.79470458554146     -0.22219606190319     -0.33208097986757
  H   0.93804314309025     -0.14990621082060     -1.48995054339720
  C   1.46853693798417      0.40115142981697      0.59199895577204
  H   2.26838447976399     -0.33836780948651      0.69437937470707
  H   0.96723318030633      0.51202890258587      1.55379189228761
  H   1.94638610995989      1.35051910040857      0.33225278149898
  C   -1.62234415763451     -0.61298447942029     -1.43780284668225
  N   -2.29498695652454     -0.92959049419610     -2.34846438168333
  C   -1.44326473230900     -0.06686633826170      0.93971987614218
  N   -1.96452796062811      0.06422494131129      1.98543639567782
