11
Coordinates from ORCA-job run
  C   0.42988157386588      0.55248670867294     -0.18064175126924
  C   -0.86583446801968      0.17168823479265     -0.11061796244895
  H   0.62969785822943      1.55831658618024     -0.54537307433580
  C   1.59400864242967     -0.29471054603567      0.20041151918957
  H   1.29038174476993     -1.27964914975696      0.55576717949212
  H   2.17554127239030      0.19928757789818      0.98450771079837
  H   2.26140835199999     -0.41999029100967     -0.65748967733916
  C   -1.25135006489875     -1.13128917880289      0.35398695911310
  N   -1.55562151531955     -2.20114884103678      0.73524700748453
  C   -1.92384692013907      1.05810744594444     -0.50464873417722
  N   -2.78526647530816      1.78790145315352     -0.83214917650731
