11
Coordinates from ORCA-job run
  C   0.37207299392762      0.61541896727847      0.07746009270731
  C   -0.87488449094058      0.12413314559463     -0.10253101817603
  H   0.47148971439578      1.69716842898145      0.14557454042256
  C   1.60880011451708     -0.20713856084395      0.18930237806542
  H   2.10063799246454     -0.01485771553626      1.14745197693415
  H   2.31797329788423      0.07632112117101     -0.59399404194970
  H   1.40366941406794     -1.27478198275228      0.10732765052368
  C   -2.01149546143997      0.99549596403142     -0.19828698356310
  N   -2.93803875996365      1.71491398514412     -0.27371180375025
  C   -1.12839961100679     -1.28549089406139     -0.20702405817086
  N   -1.32182520390620     -2.44218245900722     -0.29156873304319
