11
Coordinates from ORCA-job run
  C   0.36866296849191      0.61887303895243      0.05964834612635
  C   -0.87436151979512      0.11607842721373     -0.11572891961439
  H   0.46257869593347      1.70277676541326      0.09108529865552
  C   1.60794660626039     -0.19291314896094      0.21214945703308
  H   1.40877458341819     -1.26395656841409      0.16666937045539
  H   2.32371097867843      0.06613560186404     -0.57380290402075
  H   2.08971305199573      0.03590393283528      1.16745105866914
  C   -2.01313611859142      0.97924581247355     -0.25231004704435
  N   -2.94188408063045      1.69152264089137     -0.36181647036425
  C   -1.12166376944350     -1.29709927568667     -0.17402892220176
  N   -1.31134139631764     -2.45656722658195     -0.21931626769399
