11
Coordinates from ORCA-job run
  C   0.52063669756733     -0.02609856966607     -0.50030685191517
  C   -0.80497453421918     -0.21611928797335     -0.31171550010707
  H   0.90479651901735     -0.19503570554297     -1.50454251623933
  C   1.48488696068167      0.39540249251957      0.55362419254939
  H   2.27578192419928     -0.35357833272905      0.65739550364164
  H   1.97150957865051      1.33065610994492      0.26174600100641
  H   1.00464402246355      0.53481609009091      1.52249337236471
  C   -1.65876753702515     -0.62378496738146     -1.39136295954324
  N   -2.35281214731756     -0.95610270081176     -2.28005729026951
  C   -1.42595997066902     -0.02471150340258      0.96883863076373
  N   -1.92174151334878      0.13555637495184      2.02288741774844
