11
Coordinates from ORCA-job run
  C   0.54796218599779     -0.28475932224581     -0.37718928415150
  C   -0.80113704716391     -0.20824814173265     -0.32480051506780
  H   0.97761138923228     -0.87407067176484     -1.18510634911456
  C   1.48064429308048      0.37261664277668      0.57991850760947
  H   2.15033141297851      1.05131681087266      0.04324399110032
  H   2.11168443284235     -0.37873606575995      1.06380019818548
  H   0.95315913196423      0.93598404871859      1.35000687089899
  C   -1.48110134000908      0.53921678653350      0.69559449420051
  N   -2.02601758519104      1.15389543717678      1.53685629146499
  C   -1.62273046254755     -0.87735579919582     -1.29318657760650
  N   -2.29040641118407     -1.42885972537911     -2.08813762751939
