11
Coordinates from ORCA-job run
  C   0.53610063406758     -0.23422824968204     -0.42477773319599
  C   -0.81016916578774     -0.21364658565032     -0.29934152771468
  H   0.94262008396770     -0.74377320843700     -1.29642769705378
  C   1.49537981850039      0.38350136983865      0.53241128749960
  H   2.17559183209163     -0.37833843096887      0.92475329676858
  H   0.99101026525317      0.86799615489026      1.36889571158823
  H   2.11316278093213      1.12449939287815      0.01630792256076
  C   -1.46035587138976      0.42762305760322      0.80887034109189
  N   -1.97972251910306      0.95567817454938      1.72210801984687
  C   -1.65751125927227     -0.83808129131085     -1.27546614386090
  N   -2.34510659925976     -1.35223038371059     -2.07833347753059
