11
Coordinates from ORCA-job run
  C   0.56220878580833     -0.27417067707605     -0.36235285133483
  C   -0.78856051568654     -0.21119592968347     -0.35355806598484
  H   1.02415983489737     -0.84719249022715     -1.16418304975079
  C   1.45688585660602      0.37654062411921      0.63475559750588
  H   2.07711021385775     -0.37729585039647      1.12887583360160
  H   2.13933603336017      1.06709666867061      0.13034310536086
  H   0.89976741957056      0.92551483330803      1.39434389457094
  C   -1.50873894291954      0.51511966130630      0.65437050336745
  N   -2.08599999928741      1.11324772427947      1.48598271851410
  C   -1.57045788749821     -0.87215414614508     -1.35966064134110
  N   -2.20471079870849     -1.41551041815539     -2.18691704450927
