14

C	-0.57818	0.006024	-1.39812
C	0.0	0.0	0.0
Cl	0.128934	1.386361	-2.263714
H	1.087665	0.0	0.0
H	-0.32278	0.903639	0.52113
N	-0.182679	-1.252912	-2.189618
O	-0.866475	-1.485477	-3.178555
O	0.791646	-1.864509	-1.793657
C	-2.033753	0.122336	-1.432628
N	-3.195422	0.299879	-1.424599
N	-0.514455	-1.147446	0.789803
O	-1.224026	-1.976014	0.21528
O	-0.195986	-1.179445	1.970315
Br	3.400552	0.0	0.0
