14

C	-0.502389	0.101218	-1.420191
C	0.0	0.0	0.0
Cl	-0.134281	-1.438445	-2.231618
H	1.089905	0.0	0.0
H	-0.37058	-0.902674	0.479471
N	-2.042894	0.224808	-1.443971
O	-2.544829	0.809107	-2.392079
O	-2.633844	-0.331619	-0.529054
C	0.055258	1.195731	-2.203498
N	0.462686	2.025288	-2.928981
N	-0.474266	1.146487	0.809221
O	-0.90256	2.135607	0.209529
O	-0.388502	1.031918	2.024907
Br	3.355973	0.0	0.0
