14

C	-0.521629	-0.000492	-1.418005
C	0.0	0.0	0.0
Cl	-2.282757	-0.111062	-1.486257
H	1.090114	0.0	0.0
H	-0.39944	0.863574	0.530988
N	-0.066698	1.3839	-1.993488
O	1.144209	1.474819	-2.13302
O	-0.908989	2.240532	-2.200047
C	0.068348	-1.006621	-2.297594
N	0.521521	-1.787987	-3.050514
N	-0.474129	-1.195251	0.716482
O	-0.909618	-1.030956	1.859961
O	-0.263395	-2.286947	0.183935
Br	2.747712	0.0	0.0
