19

C	-0.43643	0.031636	-1.474096
C	0.0	0.0	0.0
Br	-2.356136	0.367458	-1.644084
H	1.091766	0.0	0.0
C	0.334329	1.009567	-2.337917
H	1.399553	0.888287	-2.12944
H	0.037597	2.025854	-2.091294
H	0.120648	0.815999	-3.39154
N	-0.149153	-1.383387	-2.000628
O	-1.062147	-2.193361	-2.115577
O	1.036936	-1.598217	-2.225232
C	-0.515285	-1.176414	0.798
H	-0.198603	-1.060618	1.834528
H	-0.06034	-2.091557	0.417208
H	-1.601633	-1.259174	0.76608
N	-0.414237	1.292855	0.637448
O	0.146568	2.315384	0.248902
O	-1.285172	1.261159	1.50838
Cl	3.319511	0.0	0.0
