19

C	-0.417704	-0.01195	-1.470903
C	0.0	0.0	0.0
Br	0.26355	1.596285	-2.316915
H	1.091716	0.0	0.0
C	0.176385	-1.219066	-2.176604
H	-0.039289	-1.168528	-3.245645
H	-0.25619	-2.133228	-1.770462
H	1.256542	-1.210502	-2.014436
N	-1.941793	-0.066063	-1.653602
O	-2.450557	-1.115903	-1.261304
O	-2.54671	0.859943	-2.170118
C	-0.48228	-1.150396	0.872429
H	-0.011083	-1.028763	1.850884
H	-1.565977	-1.160938	0.979112
H	-0.146127	-2.103168	0.464822
N	-0.475208	1.258685	0.656696
O	-1.679641	1.509049	0.549541
O	0.331157	1.925325	1.294095
Cl	3.325769	0.0	0.0
