19

C	-0.422699	-0.00321	-1.465126
C	0.0	0.0	0.0
Br	-2.359927	0.143224	-1.700408
H	1.091647	0.0	0.0
C	0.246447	1.04667	-2.339362
H	-0.00555	0.871077	-3.388837
H	-0.094096	2.041434	-2.057818
H	1.326227	0.989591	-2.197347
N	0.022702	-1.375951	-2.012982
O	1.235732	-1.547406	-1.977804
O	-0.801377	-2.179826	-2.428873
C	-0.55495	-1.139235	0.819512
H	-1.64512	-1.17521	0.811966
H	-0.218344	-1.031785	1.853032
H	-0.155706	-2.084603	0.443397
N	-0.394923	1.318849	0.57598
O	0.35478	2.269277	0.339118
O	-1.366673	1.365077	1.339286
Cl	2.694738	0.0	0.0
