19

C	-0.418528	-0.0111	-1.470532
C	0.0	0.0	0.0
Br	0.265354	1.595857	-2.316723
H	1.091688	0.0	0.0
C	0.172682	-1.219451	-2.176633
H	-0.043696	-1.168517	-3.245509
H	1.252965	-1.213126	-2.015288
H	-0.261562	-2.132652	-1.770099
N	-1.942771	-0.062283	-1.652647
O	-2.453588	-1.110742	-1.25938
O	-2.545914	0.864422	-2.169976
C	-0.482233	-1.150569	0.872339
H	-0.010742	-1.029119	1.850669
H	-1.565902	-1.160865	0.979305
H	-0.146379	-2.103381	0.464579
N	-0.474592	1.258371	0.657971
O	0.331873	1.922886	1.297443
O	-1.67863	1.510219	0.550157
Cl	3.325365	0.0	0.0
