19

C	-0.402164	-0.017308	-1.474715
C	0.0	0.0	0.0
Br	0.222975	1.622431	-2.304389
H	1.091664	0.0	0.0
C	0.252695	-1.193454	-2.180654
H	-0.144217	-2.128716	-1.785715
H	0.049608	-1.145026	-3.252188
H	1.329388	-1.139256	-2.002274
N	-1.920142	-0.133913	-1.675911
O	-2.388849	-1.207163	-1.29648
O	-2.558143	0.769586	-2.192841
C	-0.469433	-1.162651	0.864384
H	-1.553158	-1.191676	0.966548
H	-0.003714	-1.039588	1.845293
H	-0.116542	-2.107219	0.452073
N	-0.496999	1.24591	0.658741
O	0.29209	1.915104	1.315366
O	-1.702474	1.482741	0.534829
Cl	3.328913	0.0	0.0
