19

C	-0.472158	-0.015326	-1.464909
C	0.0	0.0	0.0
Br	0.525641	-1.424772	-2.393161
H	1.096814	0.0	0.0
C	-1.961883	-0.290706	-1.644768
H	-2.540532	0.390966	-1.013088
H	-2.177761	-1.319331	-1.352464
H	-2.26037	-0.159217	-2.690072
N	-0.286698	1.277467	-2.242787
O	-0.91507	2.284134	-1.789203
O	-0.013315	1.216204	-3.490081
C	-0.46575	-1.263893	0.722517
H	-1.532095	-1.233712	0.961196
H	0.088681	-1.368154	1.658555
H	-0.257586	-2.150552	0.118605
N	-0.322199	1.209333	0.800191
O	0.230931	2.308648	0.440747
O	-0.640557	1.045534	2.037049
Cl	2.638247	0.0	0.0
