19

C	-0.417637	-0.011858	-1.470753
C	0.0	0.0	0.0
Br	0.263977	1.596371	-2.316416
H	1.091702	0.0	0.0
C	0.176517	-1.219156	-2.176286
H	-0.038622	-1.168482	-3.24542
H	-0.256617	-2.133154	-1.770333
H	1.25659	-1.210962	-2.01357
N	-1.94156	-0.06605	-1.654109
O	-2.450761	-1.114996	-1.260022
O	-2.545983	0.858781	-2.173301
C	-0.480918	-1.15117	0.872345
H	-1.56459	-1.163248	0.979051
H	-0.00976	-1.028924	1.850738
H	-0.143374	-2.103449	0.46472
N	-0.476018	1.257739	0.657821
O	0.328841	1.921275	1.300323
O	-1.679712	1.509862	0.547047
Cl	3.325284	0.0	0.0
