12
Coordinates from ORCA-job run
  C   0.14272195377273     -0.16034785327216     -0.25937162248308
  C   -0.74652997897199      1.01365499990834      0.11232839727758
  F   0.17964279891261     -0.16791162629507     -1.67238640487182
  H   -0.31851355078275      1.95204353358478     -0.24846520129093
  H   -0.85938306867493      1.06767782011379      1.19565065216149
  H   -1.72698057368170      0.88897320999714     -0.34983843705650
  N   1.43622550096653     -0.01951679374843      0.30461262352914
  H   1.85883766425107      0.85635880571273      0.02788755241714
  H   2.01385451189162     -0.79061925295414     -0.00652603250317
  N   -0.33463810183906     -1.46927816182925      0.09929236492934
  H   -0.39757801482464     -1.54037691216692      1.10612083678743
  H   -1.24765914101947     -1.62865776905083     -0.30630472889662
