17

C	0.0	0.0	0.0
C	-0.4816	-0.023199	-1.452477
Cl	1.864364	0.0	0.0
H	-1.58015	0.003161	-1.351298
C	-0.441329	1.255686	0.71907
H	-0.013541	2.146623	0.257166
H	-1.534771	1.280336	0.682773
H	-0.114673	1.216785	1.761438
N	-0.49835	-1.146929	0.617835
H	-0.263646	-1.231412	1.59367
H	-0.330356	-1.984745	0.08122
N	-0.095449	-1.273594	-2.097042
H	-0.689739	-1.436026	-2.900487
H	0.867328	-1.214053	-2.408909
C	-0.03742	1.169422	-2.192607
N	0.298064	2.089107	-2.842663
Br	-3.964827	0.0	0.0
