17

C	0.0	0.0	0.0
C	-0.466251	-0.156661	-1.461365
Cl	1.819777	0.0	0.0
H	-1.563899	-0.115231	-1.382805
C	-0.442222	1.330811	0.57601
H	-0.102352	1.392791	1.61064
H	-1.534711	1.376194	0.545492
H	-0.020385	2.162855	0.010079
N	-0.470766	-1.076031	0.818178
H	-1.470598	-0.910689	0.96197
H	-0.386798	-1.930782	0.274396
N	-0.090552	-1.465959	-1.983692
H	-0.686244	-1.700718	-2.768098
H	0.871241	-1.448219	-2.301627
C	-0.018697	0.9513	-2.320985
N	0.325205	1.802717	-3.055394
Br	-3.827957	0.0	0.0
