17

C	0.0	0.0	0.0
C	-0.337762	-0.156739	-1.514142
Cl	1.862542	0.0	0.0
H	0.269474	0.580584	-2.050268
C	-0.504123	1.316233	0.543524
H	-1.597602	1.280764	0.547645
H	-0.143259	1.465386	1.564182
H	-0.152559	2.148759	-0.069004
N	-0.537263	-1.076806	0.720742
H	-0.567436	-0.934272	1.718527
H	-0.136115	-1.973194	0.483016
N	-1.716531	0.011241	-1.890685
H	-2.362913	-0.452748	-1.249923
H	-1.976598	0.988483	-1.865192
C	0.126062	-1.486854	-1.957488
N	0.496761	-2.548645	-2.2944
Br	-4.485282	0.0	0.0
