17

C	0.0	0.0	0.0
C	-0.326497	0.01223	-1.527669
Cl	1.845306	0.0	0.0
H	0.253945	0.8307	-1.968478
C	-0.528563	1.239109	0.6827
H	-0.174042	1.279961	1.715888
H	-0.188129	2.139743	0.167899
H	-1.622158	1.189825	0.677443
N	-0.540867	-1.161796	0.581636
H	-0.071706	-2.014457	0.31133
H	-0.666666	-1.10347	1.580701
N	-1.708271	0.165648	-1.894245
H	-2.324534	-0.420776	-1.331121
H	-2.023716	1.111129	-1.719643
C	0.185329	-1.240178	-2.120464
N	0.546869	-2.257129	-2.582717
Br	-4.46857	0.0	0.0
