17

C	0.0	0.0	0.0
C	-0.169667	-0.049759	-1.558339
Cl	1.862652	0.0	0.0
H	0.40376	-0.942043	-1.862106
C	-0.556977	1.250382	0.620735
H	-1.649302	1.187879	0.530097
H	-0.186146	2.127799	0.096309
H	-0.276314	1.302622	1.676246
N	-0.537089	-1.148914	0.566607
H	-0.091315	-2.026737	0.363381
H	-0.925604	-1.063736	1.490149
N	0.34024	1.176362	-2.186529
H	1.350294	1.13651	-2.218927
H	-0.011273	1.233219	-3.133478
C	-1.503665	-0.294787	-2.128336
N	-2.357751	-0.497747	-2.910428
Br	-4.172519	0.0	0.0
