16

C	-0.348922	0.049504	-1.512629
C	0.0	0.0	0.0
Cl	-2.133811	0.299456	-1.726411
H	1.097428	0.0	0.0
C	0.395815	1.191891	-2.186091
H	0.072425	2.139623	-1.753536
H	0.189147	1.204299	-3.257205
H	1.46545	1.054425	-2.002489
C	-0.025667	-1.221416	-2.159527
N	0.230879	-2.244623	-2.67856
C	-0.541463	-1.217601	0.608391
N	-1.010044	-2.176195	1.099384
N	-0.402772	1.160136	0.765637
H	0.292706	1.888332	0.670395
H	-1.318922	1.497573	0.495501
Cl	3.267547	0.0	0.0
