16

C	-0.430508	-0.007838	-1.484573
C	0.0	0.0	0.0
Cl	0.227616	1.46099	-2.269219
H	1.094945	0.0	0.0
C	0.12875	-1.233908	-2.197174
H	1.210471	-1.247609	-2.039973
H	-0.313012	-2.143572	-1.78226
H	-0.09066	-1.183682	-3.264349
C	-1.89165	0.063072	-1.578945
N	-3.065929	0.099386	-1.624423
C	-0.461739	-1.24853	0.62714
N	-0.856605	-2.210854	1.175787
N	-0.472708	1.180899	0.695306
H	-1.360908	1.016831	1.15187
H	0.21574	1.452413	1.38579
Cl	3.281082	0.0	0.0
