16

C	-0.406937	0.065071	-1.483789
C	0.0	0.0	0.0
Cl	-2.195861	0.336597	-1.606446
H	1.096436	0.0	0.0
C	0.326904	1.205409	-2.169287
H	0.052788	1.257064	-3.224269
H	1.40072	1.030482	-2.059093
H	0.063941	2.13418	-1.664845
C	-0.133321	-1.207872	-2.151602
N	0.088375	-2.229753	-2.687961
C	-0.510899	-1.214668	0.645527
N	-0.931726	-2.145592	1.227076
N	-0.393475	1.224735	0.681437
H	-1.305226	1.129561	1.111689
H	0.296505	1.422647	1.396652
Cl	3.260443	0.0	0.0
