16

C	-0.428541	-0.007239	-1.485364
C	0.0	0.0	0.0
Cl	0.20936	1.473275	-2.262958
H	1.094987	0.0	0.0
C	0.148642	-1.220528	-2.204965
H	-0.071206	-1.171419	-3.272192
H	1.229922	-1.216517	-2.047318
H	-0.276787	-2.13936	-1.794227
C	-1.889584	0.043056	-1.581358
N	-3.064238	0.060048	-1.62651
C	-0.458725	-1.251489	0.624963
N	-0.853853	-2.215424	1.17056
N	-0.474739	1.177327	0.69943
H	0.208753	1.443826	1.39813
H	-1.366528	1.010792	1.147559
Cl	3.281805	0.0	0.0
