16

C	-0.474624	0.02034	-1.479384
C	0.0	0.0	0.0
Cl	0.313117	-1.325155	-2.364214
H	1.095363	0.0	0.0
C	-1.986069	-0.137844	-1.632969
H	-2.511843	0.665466	-1.1097
H	-2.26123	-0.098952	-2.688006
H	-2.293904	-1.09844	-1.218272
C	-0.058191	1.288008	-2.086014
N	0.222423	2.324953	-2.563374
C	-0.514181	-1.21591	0.639756
N	-0.971059	-2.171729	1.148087
N	-0.394943	1.171067	0.767516
H	0.31448	1.882999	0.654442
H	-1.297448	1.539885	0.503371
Cl	3.257578	0.0	0.0
