16

C	-0.419234	-0.015445	-1.484024
C	0.0	0.0	0.0
Cl	0.10215	1.543945	-2.218438
H	1.101945	0.0	0.0
C	0.286839	-1.14738	-2.219404
H	1.360787	-1.048405	-2.043425
H	-0.056983	-2.109376	-1.832137
H	0.07303	-1.094917	-3.288041
C	-1.874846	-0.095157	-1.625357
N	-3.034658	-0.21357	-1.771448
C	-0.468357	-1.241346	0.618232
N	-0.846813	-2.237239	1.113468
N	-0.587453	1.145103	0.702385
H	0.007613	1.942772	0.50096
H	-0.501561	0.976959	1.698993
Cl	3.312656	0.0	0.0
