16

C	-0.403846	0.038721	-1.484356
C	0.0	0.0	0.0
Cl	-2.205751	0.230207	-1.616698
H	1.096376	0.0	0.0
C	0.278816	1.204551	-2.179973
H	0.007174	1.229545	-3.236763
H	-0.029583	2.125346	-1.688084
H	1.359481	1.07992	-2.064678
C	-0.072687	-1.225676	-2.141321
N	0.196798	-2.24034	-2.669168
C	-0.501323	-1.213222	0.657637
N	-0.914584	-2.141954	1.247884
N	-0.410122	1.227399	0.664526
H	0.253218	1.423132	1.404885
H	-1.336954	1.134995	1.062191
Cl	3.269966	0.0	0.0
