13

C	-0.412325	-0.053859	-1.459023
C	0.0	0.0	0.0
Cl	-2.212247	-0.173028	-1.664198
H	1.095197	0.0	0.0
H	-0.007088	-0.95098	-1.9298
H	-0.350807	0.936547	0.442568
C	0.026802	1.115594	-2.21779
N	0.352923	2.055535	-2.840361
C	-0.474284	-1.206702	0.798244
H	-0.039262	-1.166521	1.798642
H	-0.125369	-2.132556	0.332028
H	-1.561642	-1.251851	0.89065
Br	3.613338	0.0	0.0
