13

C	-0.417189	-0.023219	-1.461131
C	0.0	0.0	0.0
Cl	-2.159046	-0.493038	-1.65943
H	1.095727	0.0	0.0
H	0.154504	-0.784174	-1.994881
H	-0.312629	-0.954515	0.43546
C	-0.232017	1.259514	-2.136928
N	-0.09984	2.288735	-2.686461
C	-0.558285	1.170828	0.791054
H	-0.188467	2.118133	0.392512
H	-1.651973	1.190328	0.781403
H	-0.223592	1.101185	1.827987
Br	3.603653	0.0	0.0
