12

C	0.0	0.0	0.0
C	-0.50376	-0.097704	-1.421736
F	1.377815	0.0	0.0
H	-1.59183	0.060389	-1.416322
H	-0.368844	-0.872201	0.544159
H	-0.264035	-1.07146	-1.84508
C	-0.409599	1.210492	0.736604
N	-0.563657	2.155941	1.414267
N	0.135469	0.90337	-2.314362
O	0.327394	2.033182	-1.873775
O	0.396731	0.537157	-3.460546
Br	-3.546878	0.0	0.0
