12

C	0.0	0.0	0.0
C	-0.34954	0.060244	-1.474596
F	1.377852	0.0	0.0
H	-1.425806	0.080409	-1.677929
H	-0.399798	-0.940698	0.38898
H	0.12694	-0.798278	-1.939031
C	-0.409232	1.093412	0.885659
N	-0.646951	2.016708	1.57096
N	0.302691	1.204052	-2.204542
O	0.564424	2.235678	-1.594197
O	0.436758	1.0502	-3.419909
Br	-3.220276	0.0	0.0
