12

C	0.0	0.0	0.0
C	-0.348884	0.144407	-1.468936
F	1.377842	0.0	0.0
H	-0.019029	-0.756866	-1.983613
H	-0.39133	-0.952612	0.364982
H	-1.40578	0.279103	-1.618865
C	-0.394629	1.080426	0.93227
N	-0.629194	1.934065	1.701418
N	0.335162	1.277331	-2.153768
O	0.542117	1.111146	-3.357326
O	0.583449	2.301237	-1.526939
Br	-3.337322	0.0	0.0
