12

C	0.0	0.0	0.0
C	-0.428203	0.108644	-1.450538
F	1.377812	0.0	0.0
H	-1.515761	0.219591	-1.5192
H	-0.378718	-0.943106	0.397708
H	-0.096693	-0.777313	-1.991516
C	-0.434684	1.093581	0.884823
N	-0.601633	1.944606	1.675902
N	0.223649	1.255318	-2.145812
O	0.409687	1.121152	-3.355473
O	0.498539	2.260542	-1.497577
Br	-3.457023	0.0	0.0
