18

C	-0.230429	0.010812	-1.512207
C	0.0	0.0	0.0
Br	-2.176676	0.080809	-1.941849
H	1.094866	0.0	0.0
C	0.469557	1.183578	-2.181814
H	0.459853	1.03748	-3.265375
H	1.493622	1.174262	-1.794029
H	0.002823	2.136572	-1.945836
C	0.347274	-1.295686	-2.042522
H	1.384886	-1.32066	-1.695465
H	0.307557	-1.30701	-3.133026
H	-0.187744	-2.165543	-1.660889
C	-0.524241	-1.188953	0.643655
N	-0.876062	-2.193486	1.142878
N	-0.498737	1.20551	0.708159
O	-0.013096	2.287206	0.380912
O	-1.343046	1.062607	1.596049
F	2.525264	0.0	0.0
