18

C	-0.499123	-0.001822	-1.454282
C	0.0	0.0	0.0
Br	0.188536	1.624811	-2.336416
H	1.092105	0.0	0.0
C	0.166755	-1.195429	-2.125704
H	-0.256651	-2.119495	-1.717804
H	1.235583	-1.159186	-1.902344
H	-0.009446	-1.177564	-3.203551
C	-2.011902	0.009178	-1.612783
H	-2.275781	-0.035279	-2.672327
H	-2.453157	0.906376	-1.179108
H	-2.43792	-0.859971	-1.101579
C	-0.51638	-1.171592	0.688523
N	-0.920434	-2.145352	1.210592
N	-0.488554	1.20925	0.745694
O	-1.661203	1.214288	1.141649
O	0.304706	2.130705	0.907132
F	2.51244	0.0	0.0
