18

C	-0.344098	0.091518	-1.515086
C	0.0	0.0	0.0
Br	-0.148682	-1.749829	-2.225154
H	1.091345	0.0	0.0
C	-1.776995	0.521944	-1.776621
H	-1.9964	0.496427	-2.847069
H	-1.908177	1.549153	-1.425882
H	-2.487996	-0.125518	-1.260197
C	0.697559	0.931646	-2.246171
H	0.530121	1.988193	-2.024157
H	0.62115	0.772747	-3.32389
H	1.68336	0.651707	-1.863339
C	-0.594591	-1.126534	0.689038
N	-1.03305	-2.056861	1.260018
N	-0.426735	1.253651	0.688205
O	-1.159237	1.174904	1.678258
O	0.001657	2.315151	0.231877
F	2.512036	0.0	0.0
