18

C	-0.373965	-0.033905	-1.500007
C	0.0	0.0	0.0
Br	0.165285	1.686887	-2.30259
H	1.092103	0.0	0.0
C	0.507969	-1.110647	-2.119983
H	0.435171	-1.084344	-3.20859
H	1.533267	-0.938874	-1.782224
H	0.176717	-2.093446	-1.767891
C	-1.853799	-0.218773	-1.78512
H	-2.443483	0.588479	-1.35127
H	-2.189427	-1.164244	-1.34836
H	-2.027651	-0.2439	-2.863473
C	-0.49554	-1.209823	0.634602
N	-0.860182	-2.221916	1.110014
N	-0.589382	1.169513	0.714765
O	0.125565	2.152373	0.882824
O	-1.769972	1.085583	1.079305
F	2.532357	0.0	0.0
