18

C	-0.180698	0.024734	-1.523499
C	0.0	0.0	0.0
Br	-2.108519	0.093442	-2.021543
H	1.094857	0.0	0.0
C	0.547259	1.198083	-2.161566
H	0.077741	2.152075	-1.938557
H	1.557596	1.182014	-1.736853
H	0.575109	1.048708	-3.245985
C	0.410624	-1.279324	-2.046034
H	-0.13362	-2.15407	-1.687341
H	1.438387	-1.30186	-1.672732
H	0.400708	-1.281618	-3.136816
C	-0.53663	-1.198306	0.616216
N	-0.897646	-2.208673	1.097823
N	-0.506086	1.197298	0.715271
O	-0.064918	2.288532	0.363824
O	-1.30811	1.036433	1.637218
F	2.531648	0.0	0.0
