18

C	-0.497395	-0.002027	-1.455056
C	0.0	0.0	0.0
Br	0.189785	1.624984	-2.336894
H	1.092081	0.0	0.0
C	0.170348	-1.194995	-2.125874
H	1.23875	-1.157822	-1.900527
H	-0.003963	-1.176828	-3.204034
H	-0.252981	-2.11953	-1.719029
C	-2.010122	0.00796	-1.614441
H	-2.452085	0.904603	-1.180183
H	-2.435756	-0.861873	-1.104142
H	-2.273615	-0.035616	-2.674129
C	-0.516169	-1.172321	0.687172
N	-0.918692	-2.147483	1.207759
N	-0.490344	1.208651	0.745239
O	0.299767	2.133879	0.900725
O	-1.661299	1.209772	1.146128
F	2.512538	0.0	0.0
