16

C	-0.339049	0.08019	-1.484405
C	0.0	0.0	0.0
Br	-2.15468	0.787095	-1.764345
H	1.09572	0.0	0.0
H	-0.297959	0.962656	0.428972
N	0.568119	0.860541	-2.271734
H	0.47419	1.828302	-1.983816
H	1.515354	0.565451	-2.019408
N	-0.311069	-1.346656	-2.053293
O	0.775047	-1.708715	-2.489168
O	-1.312866	-2.047099	-1.950346
C	-0.594628	-1.150967	0.790994
H	-0.325189	-1.034711	1.843203
H	-1.683785	-1.187005	0.708224
H	-0.190912	-2.108322	0.457005
Cl	3.435479	0.0	0.0
