16

C	-0.272535	-0.308607	-1.459957
C	0.0	0.0	0.0
Br	-0.479096	1.448813	-2.552719
H	1.096155	0.0	0.0
H	-0.315231	-0.895866	0.545029
N	0.688574	-1.158761	-1.960103
H	1.631521	-0.912098	-1.653882
H	0.60827	-1.360624	-2.944988
N	-1.646036	-0.928514	-1.729629
O	-1.782633	-1.546321	-2.779762
O	-2.516039	-0.772287	-0.879472
C	-0.585687	1.250016	0.627265
H	-1.664482	1.310778	0.48079
H	-0.119165	2.145981	0.219864
H	-0.380686	1.227375	1.700257
Cl	3.439173	0.0	0.0
