15
Coordinates from ORCA-job run
  C   -0.32932205743032     -0.01168915763665     -0.36364166189609
  C   1.06111884107791      0.00267829046953      0.23109953329372
  F   -0.40291847481910      0.91648729251527     -1.35462189043055
  H   1.78242717347592     -0.38240105993135     -0.48766280517376
  H   1.08851342665250     -0.57467975985597      1.15457718891482
  N   -1.35390988879039      0.36757879756284      0.70110599326082
  O   -1.27355448446316     -0.27839390668681      1.74052634368917
  O   -2.18894172843782      1.20764901010905      0.41364171826833
  C   -0.72600663792099     -1.36659458394922     -0.89888231605928
  H   -0.05322899853674     -1.64463222340925     -1.71137322038454
  H   -1.74237708626791     -1.30603639691768     -1.29220154496964
  H   -0.68781192591407     -2.11986545188788     -0.11252815118461
  N   1.49820571300368      1.39127123844994      0.56725198724503
  O   0.66862574537187      2.11537665894910      1.10821608386793
  O   2.66018038299862      1.68225125221908      0.30549274155866
