15
Coordinates from ORCA-job run
  C   -0.44336741225537      0.11601897117842     -0.28468157978031
  C   0.62242444117389      0.72290041894685      0.61514664242662
  F   -0.45570647328996      0.79345846707619     -1.46268702312118
  H   0.64462194268029      0.22374419043233      1.58039005631418
  H   0.45185553908047      1.79431267356954      0.71499780898493
  N   -1.77173255189210      0.40323908860451      0.41578388079778
  O   -1.85761350964457     -0.03185027640943      1.56065100567151
  O   -2.62866737351244      1.00777561997137     -0.21024638004130
  C   -0.36783204426114     -1.36623333470082     -0.54179777992295
  H   -1.23180170999953     -1.65744241346041     -1.14221839921308
  H   -0.36864493347785     -1.91975006846881      0.39591600817312
  H   0.54242265662616     -1.59619386890791     -1.09345363196009
  N   1.95827871039679      0.55083423190647     -0.02177553124185
  O   2.42102244431875      1.51203902565589     -0.62856978383211
  O   2.48374027405661     -0.55485272539419      0.10054470674471
