15
Coordinates from ORCA-job run
  C   -0.30431226874497     -0.00451720036764     -0.38376665633246
  C   1.04343898749909     -0.01239048295732      0.30272186618753
  F   -0.30209372438704      0.93701955297007     -1.36497095876809
  H   1.00157833464380     -0.59726047306449      1.22091806903791
  H   1.80698466261043     -0.40014476765106     -0.36944446270311
  N   -1.39353954696525      0.37300008120721      0.61544517324845
  O   -1.39217704979013     -0.28994626613289      1.64723195808467
  O   -2.19559810344664      1.22987637338130      0.28657859997849
  C   -0.67803737606750     -1.34798369289738     -0.96238704735591
  H   -0.69956972728255     -2.11146592425396     -0.18530442111200
  H   0.04447393308845     -1.62278383088426     -1.73214180389673
  H   -1.66538527359594     -1.27149995835014     -1.42137578080824
  N   1.47106942876377      1.36866289560477      0.67904986085979
  O   2.64606701199992      1.65719425040897      0.48033888066414
  O   0.61810071167457      2.09023944298681      1.18610672291558
