15
Coordinates from ORCA-job run
  C   -0.42835508027543      0.04557569592464     -0.32375555867258
  C   0.58066970872973      0.84460045244515      0.48730015250252
  F   -0.38357830137712      0.47007507028786     -1.61402430137594
  H   0.39065181890367      1.91010098906515      0.36230348342470
  H   0.55842672056177      0.54846328058281      1.53285618179589
  N   -1.79535403509626      0.44087062167771      0.23509612320062
  O   -1.93936983120486      0.24224714462615      1.43807358287952
  O   -2.62175871406212      0.89208431725501     -0.54281299012648
  C   -0.32320878743898     -1.45603208824975     -0.27008008644403
  H   0.61802849510991     -1.77348770709369     -0.71622936833010
  H   -0.36909996085508     -1.80819336871872      0.75927579031910
  H   -1.15017630062309     -1.88119476667137     -0.84204668934177
  N   1.95010360974749      0.58017887838352     -0.03628842729878
  O   2.48191879368859     -0.46721924179932      0.32947246433333
  O   2.43210186419180      1.41193072228484     -0.79914035686599
