17

C	-0.027861	0.022422	0.016489
C	-0.530357	0.105943	-1.430193
Cl	1.818692	-0.097551	-0.039029
H	-1.6369	0.128376	-1.26177
C	-0.407387	1.273986	0.772517
H	-0.039283	1.19215	1.796026
H	-0.013161	2.164477	0.286179
H	-1.503712	1.300795	0.778372
N	-0.552593	-1.119794	0.701459
H	-0.313096	-1.961	0.182597
H	-1.589828	-0.996508	0.612641
C	-0.230556	-1.136727	-2.161038
N	0.012866	-2.088787	-2.807553
N	-0.087613	1.300205	-2.137137
H	-0.649598	1.416903	-2.971887
H	0.879391	1.185885	-2.420018
H	-3.08595	-0.29368	-0.108964
