17

C	-0.386243	-0.088716	-1.470123
C	0.0	0.0	0.0
F	-0.206816	1.218201	-2.034875
H	1.096333	0.0	0.0
H	-0.315119	-0.931736	0.481987
N	0.47198	-1.026096	-2.103974
H	0.386576	-0.957967	-3.110485
H	1.438407	-0.850841	-1.83547
C	-1.842025	-0.420412	-1.741814
H	-2.021611	-0.442237	-2.821066
H	-2.084252	-1.399167	-1.324817
H	-2.495287	0.336508	-1.303864
C	-0.5485	1.213649	0.733721
H	-1.643595	1.229913	0.75625
H	-0.190332	1.213409	1.766083
H	-0.200255	2.130129	0.257688
Br	3.731749	0.0	0.0
