17

C	-0.335834	0.004925	-1.482253
C	0.0	0.0	0.0
F	-1.72888	0.186866	-1.629037
H	1.095591	0.0	0.0
H	-0.336945	0.959384	0.412586
N	0.292813	1.107754	-2.182235
H	1.297802	0.946014	-2.143667
H	0.135026	1.950109	-1.635984
C	0.034237	-1.288704	-2.176486
H	-0.137066	-1.173891	-3.248298
H	1.087848	-1.515405	-1.993406
H	-0.578575	-2.110075	-1.802515
C	-0.570588	-1.157588	0.806113
H	-0.374782	-1.009749	1.871264
H	-1.652008	-1.244176	0.663889
H	-0.103639	-2.103408	0.523457
Br	3.678077	0.0	0.0
