12

C	-0.57321	-0.047602	-1.399089
C	0.034497	0.038214	-0.023546
Br	0.281376	-1.434317	-2.475062
H	1.12481	0.080123	-0.021677
H	-1.63646	-0.276925	-1.423697
H	-0.186431	-0.897269	0.50046
N	-0.451564	1.251307	-2.152487
O	-1.364903	1.50254	-2.940123
O	0.535725	1.944798	-1.945605
C	-0.560266	1.143551	0.710134
N	-1.038328	2.036291	1.308151
H	2.685312	-0.23907	0.209832
