16

C	-0.441186	-0.142206	-1.460046
C	0.0	0.0	0.0
Br	-0.364098	1.569941	-2.437304
H	1.096532	0.0	0.0
H	-1.497394	-0.425955	-1.500495
N	0.335832	-1.113112	-2.19596
H	1.317025	-0.859057	-2.082283
H	0.213552	-1.98144	-1.680563
N	-0.393132	-1.290589	0.60825
H	0.357784	-1.593636	1.217317
H	-1.223602	-1.165398	1.177012
C	-0.551532	1.192967	0.759999
H	-0.174786	2.134396	0.361678
H	-0.246799	1.121309	1.807732
H	-1.648614	1.213588	0.715519
Cl	3.475152	0.0	0.0
