16

C	-0.556376	0.000981	-1.420677
C	0.0	0.0	0.0
Br	0.259843	1.418614	-2.503531
H	1.098471	0.0	0.0
H	-1.618903	0.28563	-1.386102
N	-0.310631	-1.265256	-2.075108
H	-0.678623	-1.241245	-3.019404
H	-0.822795	-1.959344	-1.539018
N	-0.494899	-1.258207	0.612748
H	0.263689	-1.929428	0.536286
H	-0.624106	-1.10066	1.605772
C	-0.511213	1.191198	0.789175
H	-1.603712	1.15109	0.883356
H	-0.070441	1.188601	1.789868
H	-0.230288	2.128378	0.307671
Cl	3.562841	0.0	0.0
