16

C	-0.399503	-0.033058	-1.453493
C	0.0	0.0	0.0
Br	-2.558611	-0.278234	-1.503035
H	1.097622	0.0	0.0
H	-0.137477	-0.984024	-1.906973
N	-0.01443	1.047668	-2.213121
H	-0.260616	1.946585	-1.830978
H	-0.234203	0.976204	-3.193741
N	-0.407186	-1.252346	0.62899
H	0.238558	-1.449511	1.383131
H	-1.34311	-1.169574	1.008788
C	-0.449578	1.258454	0.737235
H	-1.540229	1.346425	0.745045
H	-0.088562	1.204113	1.766766
H	-0.01482	2.164876	0.304382
Cl	3.474937	0.0	0.0
