14
Coordinates from ORCA-job run
  C   0.75400237878367      0.15417050748050     -0.43646594965407
  C   -0.76070783989149      0.03373931635112     -0.23837849646458
  H   0.96915189642502      0.12009248794497     -1.50883150614756
  H   -1.07283066572098     -0.96974864125947     -0.54864669866573
  H   1.06762686579603      1.14457470212658     -0.08598049425862
  C   1.51463279588676     -0.94152344566634      0.30037956175017
  H   1.23771986873214     -1.92818412704608     -0.08106812034437
  H   1.29119945256382     -0.91720569249672      1.36625302609899
  H   2.59167276658175     -0.82154968361444      0.16438865797932
  C   -1.46050992940261      1.00032944817619     -1.11271935560024
  N   -2.02038755659437      1.79781631623327     -1.76911295429621
  N   -1.10333925105233      0.18162275640882      1.17275913764166
  H   -0.91612513235107      1.13412561448744      1.46674537914874
  H   -2.09210564975634      0.01074044087417      1.31367781281249
