14
Coordinates from ORCA-job run
  C   0.39926459044118     -0.68810851999847      0.27199017261387
  C   -0.72675330794218      0.25158253729035     -0.16602629537572
  H   0.11415042773061     -1.70195370859949     -0.03276208886180
  H   -0.76810278036699      0.25024238741939     -1.26769016480230
  H   0.43093025884328     -0.67789371717222      1.36473512640073
  C   1.75261514241550     -0.32216236478772     -0.32526420081840
  H   2.07578079371269      0.66680702954259      0.00651526188063
  H   1.71604404825478     -0.31806038448684     -1.41799698329274
  H   2.51501475338777     -1.04195230408897     -0.02088409092551
  C   -0.41758964271202      1.63105990422813      0.23736195634147
  N   -0.15944347637620      2.73325635398134      0.54736416790558
  N   -1.98285541390214     -0.15158963696729      0.46690907216060
  H   -2.21326011645711     -1.09097403724342      0.16313888404909
  H   -2.73579527702918      0.45974646088261      0.17260918272450
