14
Coordinates from ORCA-job run
  C   0.38609028059623     -0.76340528287950      0.12749897480196
  C   -0.71004491627373      0.21810528703396     -0.28966074491698
  H   0.15180018914599     -1.71234806924254     -0.36229290486721
  H   -0.64975457504019      0.36310826733871     -1.37397009440751
  H   0.30914108974882     -0.93072399582881      1.20803275816889
  C   1.78785419422616     -0.28700563768753     -0.23426419782118
  H   2.03931050825288      0.64317545344676      0.27983411973318
  H   1.87713374891153     -0.11444836052455     -1.31020167551614
  H   2.53271979861934     -1.03492018115839      0.04468100184176
  C   -0.47899563740778      1.53728742907181      0.34021948860733
  N   -0.32864619589688      2.57280365563296      0.87474604474885
  N   -2.02541622188184     -0.34122473520170      0.00548272522080
  H   -2.13470129091446     -0.43499748772151      1.00916757639615
  H   -2.75349097208606      0.28459365772033     -0.31927307198990
