14
Coordinates from ORCA-job run
  C   0.76440036664906      0.12011149666645     -0.47546271977584
  C   -0.75429013275320      0.19258323702959     -0.28526861218525
  H   1.18037379543912      1.09239726544096     -0.19851416824383
  H   -1.19559190492222     -0.74703496089653     -0.65754883835343
  H   0.97060587293891     -0.04049314646331     -1.53821885978380
  C   1.39934464814658     -0.98710899810531      0.35860091906954
  H   2.45985988194283     -1.08753442873669      0.11948223944582
  H   0.92465273271852     -1.95392041944580      0.16547515901869
  H   1.32841044601398     -0.77013464175711      1.42608007185585
  C   -1.30359744203954      1.27180945730097     -1.11708361937905
  N   -1.73853498322707      2.12877353362456     -1.79071957836956
  N   -1.07965055457341      0.46946950005105      1.11601223421708
  H   -2.06849383106379      0.67075171621058      1.20893699407974
  H   -0.88948889526976     -0.35866961091943      1.66722877840402
