14
Coordinates from ORCA-job run
  C   0.35845043276159     -0.80992343435545     -0.42511832234104
  C   -0.87247124623454      0.09910921288954     -0.31517480181239
  H   0.56999842146805     -0.97286774446451     -1.48665088303041
  H   -1.67606953986334     -0.33653243635755     -0.92977693414203
  H   0.07898630517859     -1.78542826189508     -0.00848879686691
  C   1.58533596580802     -0.25715050965624      0.28991373493511
  H   1.90257541812411      0.68836421245370     -0.15594316712731
  H   2.41812860765355     -0.95997484014958      0.21483748467072
  H   1.37273104523311     -0.07883757191483      1.34364778423372
  C   -0.58045755316439      1.42114734136950     -0.88906084266637
  N   -0.35095544525839      2.46987743179045     -1.36390538814356
  N   -1.24634815484823      0.27020172464114      1.08973816282049
  H   -2.04838742578785      0.88468765978137      1.16754318806844
  H   -1.51251683107028     -0.63267278413246      1.46643878140152
