14
Coordinates from ORCA-job run
  C   0.80686782061242      0.22154536244843     -0.35606972190749
  C   -0.72456188715374      0.17381581753234     -0.36069451325340
  H   1.10855218039501      1.18190384446074      0.07040388297387
  H   -1.04057502576849     -0.74666690753123     -0.87943753706588
  H   1.15545957094053      0.19240771729651     -1.39306131973028
  C   1.41687213417836     -0.92828749631898      0.43835538443568
  H   1.04700467859928     -1.89601268677946      0.08587236419876
  H   1.19509170645129     -0.83629410793916      1.50325022736088
  H   2.50366782243454     -0.93322810856931      0.33422194466239
  C   -1.25105707657066      1.29844904183925     -1.14537380200903
  N   -1.66734560096318      2.19225550718933     -1.78187080478469
  N   -1.24170814064670      0.27315830512694      1.00647474651193
  H   -1.06287201512905     -0.59899245948586      1.48965360212435
  H   -2.24639616737960      0.40494617073046      0.98827554648289
