17

C	-0.498454	0.026772	-1.448775
C	0.0	0.0	0.0
F	-1.815027	0.476124	-1.499019
H	1.089333	0.0	0.0
C	0.366347	0.91047	-2.332372
H	1.415771	0.630562	-2.211701
H	0.05148	0.784485	-3.370091
H	0.242433	1.947476	-2.030264
C	-0.471697	-1.346869	-1.988706
N	-0.420718	-2.404816	-2.495779
N	-0.525882	-1.167387	0.767475
O	-1.651619	-1.570152	0.474131
O	0.190997	-1.606224	1.657936
N	-0.456358	1.222412	0.741263
O	-0.158315	2.297075	0.234954
O	-1.060604	1.066178	1.797078
Cl	3.172269	0.0	0.0
