17

C	-0.490829	-0.005202	-1.444448
C	0.0	0.0	0.0
F	-1.859608	0.245348	-1.485305
H	1.089003	0.0	0.0
C	0.229096	1.047399	-2.271294
H	1.308649	0.926588	-2.154377
H	-0.056458	2.039088	-1.924546
H	-0.059151	0.928776	-3.317299
C	-0.249802	-1.328907	-2.048051
N	-0.050842	-2.328477	-2.630809
N	-0.493793	-1.149482	0.813459
O	0.010738	-1.251158	1.926044
O	-1.358586	-1.883038	0.336861
N	-0.50113	1.236061	0.684123
O	-1.473975	1.129189	1.425373
O	0.092878	2.274505	0.415997
Cl	3.161329	0.0	0.0
