17

C	-0.479136	0.030167	-1.449587
C	0.0	0.0	0.0
F	-1.841654	0.31485	-1.494879
H	1.086411	0.0	0.0
C	0.276009	1.076349	-2.253222
H	1.350413	0.923295	-2.127775
H	-0.004581	0.981272	-3.303268
H	0.01669	2.070142	-1.892826
C	-0.268121	-1.286185	-2.080591
N	-0.087528	-2.270216	-2.695319
N	-0.50129	-1.165745	0.783703
O	0.001509	-1.300271	1.893612
O	-1.37259	-1.878861	0.288565
N	-0.503364	1.222195	0.705904
O	-1.471766	1.099556	1.45021
O	0.084424	2.267339	0.450479
Cl	3.164977	0.0	0.0
