17

C	-0.445844	0.032972	-1.457701
C	0.0	0.0	0.0
F	-1.833386	-0.015218	-1.551972
H	1.087721	0.0	0.0
C	0.09966	1.264131	-2.163001
H	-0.128436	1.193329	-3.227489
H	1.182447	1.296951	-2.020652
H	-0.363591	2.157527	-1.751341
C	0.055908	-1.160973	-2.169265
N	0.38041	-2.040316	-2.877255
N	-0.538812	-1.211512	0.694104
O	-1.425424	-1.057413	1.529332
O	-0.057745	-2.279088	0.334613
N	-0.445538	1.179072	0.802657
O	0.110132	1.293065	1.889892
O	-1.316352	1.925095	0.35657
Cl	3.145144	0.0	0.0
