17

C	-0.472575	0.020866	-1.452843
C	0.0	0.0	0.0
F	-1.85179	0.185904	-1.523217
H	1.08894	0.0	0.0
C	0.238409	1.098295	-2.254316
H	-0.067104	2.077044	-1.893191
H	-0.032054	0.994992	-3.306571
H	1.317182	0.975603	-2.129698
C	-0.182152	-1.293795	-2.061961
N	0.006067	-2.30764	-2.625634
N	-0.56023	-1.18907	0.709794
O	0.114288	-2.212611	0.67824
O	-1.673012	-1.062244	1.217043
N	-0.411099	1.196523	0.800083
O	-0.102211	1.144249	1.98506
O	-0.972668	2.13627	0.242759
Cl	3.161988	0.0	0.0
