17

C	-0.489283	-0.054286	-1.452846
C	0.0	0.0	0.0
F	-0.325918	1.247885	-1.927524
H	1.08969	0.0	0.0
C	0.372973	-0.969608	-2.296731
H	0.198089	-2.009759	-2.028688
H	1.420368	-0.718257	-2.116777
H	0.116844	-0.811991	-3.346269
C	-1.924012	-0.370503	-1.590551
N	-3.058983	-0.583972	-1.803284
N	-0.436849	-1.16635	0.815811
O	-0.341558	-1.043201	2.030937
O	-0.803199	-2.175908	0.217261
N	-0.551412	1.217204	0.662084
O	0.223423	2.128916	0.918396
O	-1.765211	1.205689	0.867657
Cl	3.195093	0.0	0.0
