17

C	-0.453174	-0.021681	-1.46277
C	0.0	0.0	0.0
F	-0.059177	1.191517	-2.003243
H	1.088903	0.0	0.0
C	0.259894	-1.119637	-2.231986
H	-0.095886	-2.107098	-1.944518
H	1.329385	-1.042726	-2.02294
H	0.067947	-0.959243	-3.29481
C	-1.916677	-0.140711	-1.612738
N	-3.060121	-0.342411	-1.790111
N	-0.502814	-1.210758	0.720011
O	-1.49578	-1.079829	1.433777
O	0.105672	-2.254319	0.511288
N	-0.507273	1.184754	0.750711
O	0.026433	1.377804	1.837318
O	-1.409304	1.855187	0.251956
Cl	3.178196	0.0	0.0
