17

C	-0.482212	-0.061976	-1.457399
C	0.0	0.0	0.0
F	-0.385535	1.252226	-1.916406
H	1.090513	0.0	0.0
C	0.427637	-0.917328	-2.316509
H	0.320088	-1.968107	-2.056179
H	0.152131	-0.765985	-3.362484
H	1.460438	-0.606966	-2.14167
C	-1.893835	-0.464205	-1.601611
N	-2.997649	-0.819788	-1.784857
N	-0.434343	-1.173099	0.811317
O	-0.58864	-2.234126	0.21278
O	-0.537059	-1.005054	2.01995
N	-0.565367	1.211717	0.661091
O	-1.794349	1.280618	0.676018
O	0.21564	2.033165	1.121226
Cl	3.192307	0.0	0.0
