17

C	-0.467931	-0.0121	-1.450905
C	0.0	0.0	0.0
F	-1.85704	-0.004409	-1.526751
H	1.088341	0.0	0.0
C	0.113203	1.153114	-2.233394
H	-0.314577	2.08141	-1.86278
H	-0.137167	1.032102	-3.288509
H	1.1986	1.159222	-2.105899
C	-0.02327	-1.276665	-2.072788
N	0.310292	-2.241037	-2.654415
N	-0.532766	-1.199319	0.720851
O	-1.632551	-1.083919	1.261277
O	0.15405	-2.213245	0.673933
N	-0.457479	1.181849	0.792636
O	-0.050651	1.202174	1.948113
O	-1.179467	2.027728	0.270176
Cl	3.157727	0.0	0.0
