14
Coordinates from ORCA-job run
  C   0.78472360684255     -0.78671631972344     -0.56792406938869
  C   -0.52981964582586     -0.07030235257070     -0.25221600725193
  Cl  0.52113654286625     -2.55423705453015     -0.72130427939931
  H   -1.21334399698344     -0.32633039299169     -1.07793462728456
  H   1.15711639661290     -0.45836362691947     -1.54133391054407
  C   1.80347374054698     -0.52452569344941      0.44424383400770
  N   2.64319819212777     -0.27166230312913      1.22458170508119
  C   -0.30422806216891      1.43489331681439     -0.23844743861458
  H   0.35147083267049      1.71087216608728      0.58980369114754
  H   -1.25814566498392      1.95267711977752     -0.10815625770045
  H   0.13556189729316      1.78240016423451     -1.17632115959698
  N   -0.99803469140030     -0.50221222724995      1.05312444265800
  H   -1.31786422649209     -1.46247311320885      1.02128592992242
  H   -1.77424492110558      0.07498031685910      1.35159814696372
