14
Coordinates from ORCA-job run
  C   1.15883269868435     -0.33826443103254      0.10084117227085
  C   -0.25806462538350      0.12768406490355     -0.28231383133301
  Cl  2.42249214502112      0.81698930074409     -0.42389974347059
  H   -0.27506980371428      0.22497463619459     -1.37484988413990
  H   1.21917792133445     -0.41769062153237      1.18840992812399
  C   1.43122558363344     -1.64554473438931     -0.49041636658084
  N   1.63270895987438     -2.68404213633454     -0.99954624428122
  C   -0.60748576074865      1.46328163241139      0.35450270562736
  H   0.07976442004023      2.25450661087560      0.05733033129666
  H   -0.58003423832766      1.37541242072546      1.44548677321664
  H   -1.61734309470706      1.75642219324436      0.05897174796376
  N   -1.15055620673819     -0.93202906049163      0.17519675164460
  H   -1.57950794984057     -1.42769486202313     -0.59226193241921
  H   -1.87414004912805     -0.57400501329551      0.78254859208091
