14
Coordinates from ORCA-job run
  C   0.81921291045686     -0.93176308400425      0.03323508570178
  C   -0.42549458088565     -0.05732577360803     -0.20556615047082
  Cl  1.38853938778842     -0.87548653915979      1.72268249524025
  H   -0.58015752215312     -0.08832176188367     -1.29703045816838
  H   0.56445833003221     -1.97641861984951     -0.16454215669163
  C   1.90335234347286     -0.53747669517543     -0.86357050598976
  N   2.74053945820347     -0.19529069996080     -1.61263422834845
  C   -0.20428363425105      1.38812371248927      0.20560913367918
  H   0.69900732804980      1.79913637824655     -0.24893259578938
  H   -1.05140573262954      1.99691538760023     -0.12042735480981
  H   -0.12000733170636      1.46217649641428      1.29038005343216
  N   -1.53356821526540     -0.63103592896622      0.54114526789545
  H   -2.26047780929607      0.05960001883393      0.67630044686680
  H   -1.93971493181645     -1.41383289097657      0.04335096745261
