14
Coordinates from ORCA-job run
  C   1.07653403008915     -0.34640469538475      0.10490006863342
  C   -0.29895524204087      0.20240147421957     -0.34538047332445
  Cl  2.42790085877412      0.67938338405539     -0.46704072983916
  H   -0.25025975125351      0.32039230692202     -1.43320415767326
  H   1.12664195778809     -0.34898308842649      1.19796155106415
  C   1.26977950133141     -1.70918524583439     -0.38238091704924
  N   1.36811129637204     -2.80561182470729     -0.79187655888601
  C   -0.58455476930083      1.54782030237634      0.30262557815281
  H   0.18277611274212      2.28586359138542      0.07077242400604
  H   -0.64135640612302      1.44031332790238      1.39118017058050
  H   -1.54881319397999      1.91286002331864     -0.05145865084371
  N   -1.38572710658523     -0.71073477732638     -0.04586902400409
  H   -1.47507797935644     -0.86104712505144      0.95212318682809
  H   -1.26599930845703     -1.60706765344903     -0.50135246764510
