14
Coordinates from ORCA-job run
  C   0.73432278253745     -0.91976821227969      0.04403408748032
  C   -0.47467999519637     -0.01421502781310     -0.30260934604845
  Cl  1.06856893365400     -0.93357629184895      1.80367948218809
  H   -0.58457917601725     -0.10651995388775     -1.39073911967377
  H   0.49278513869461     -1.95264452528315     -0.22026945960418
  C   1.93463792782580     -0.51894583338261     -0.68196616102845
  N   2.86666770884455     -0.17159952648065     -1.30681657497668
  C   -0.21722387880058      1.44401423837982      0.04045315963285
  H   0.69140125428669      1.81644118125554     -0.43613132609679
  H   -1.06527298914943      2.03795154912227     -0.30052586299990
  H   -0.11867197352249      1.57778992207963      1.11988022891649
  N   -1.72088604532820     -0.44885733834567      0.29513856614518
  H   -1.66023834118356     -0.40990607521406      1.30582212492223
  H   -1.94883134664523     -1.39916410630164      0.02805020114306
