14
Coordinates from ORCA-job run
  C   0.77868023040597     -0.84840692525584     -0.48279340454417
  C   -0.52735904006020     -0.08517696740868     -0.25166055918882
  Cl  0.48607723432939     -2.61828284740431     -0.47678558318499
  H   -1.20497992774758     -0.40570473137354     -1.05955500496419
  H   1.16754194498907     -0.61739449208434     -1.47751706835390
  C   1.78944094979126     -0.51036406561972      0.51439519126731
  N   2.61676134867484     -0.19324479356319      1.28447781944634
  C   -0.27675302850581      1.41111939199672     -0.37416803564374
  H   -1.22311252282127      1.95352777884766     -0.30181869548086
  H   0.37618032114723      1.75233322939258      0.43163238739145
  H   0.17658056884355      1.66344059682829     -1.33571984820003
  N   -1.01807610172760     -0.38727024005709      1.08139556145306
  H   -1.35373192019492     -1.34114578625418      1.13429218940885
  H   -1.78725005712393      0.22756985195563      1.31582505059368
