14
Coordinates from ORCA-job run
  C   1.04055079634808     -0.44677967692958      0.08931551931655
  C   -0.28646388234366      0.22256929672747     -0.34310485036109
  Cl  2.47002882768587      0.43287044126803     -0.53354755834228
  H   -0.25323782936580      0.31173257813886     -1.43423979894681
  H   1.11563308138348     -0.43313633030576      1.18088324822969
  C   1.09081164121544     -1.83118508400290     -0.37226013533486
  N   1.07372540006882     -2.94005127869049     -0.75926901362191
  C   -0.42576602213874      1.60302831768681      0.27861864524319
  H   -1.35985524144823      2.05063532257822     -0.06128780447408
  H   -0.46412036686105      1.52555570862763      1.37053403948511
  H   0.40193692442934      2.25900649429897      0.01065271635209
  N   -1.44810080516780     -0.57467783235216      0.00237295337256
  H   -1.42554772592197     -1.48888404723009     -0.43216137015419
  H   -1.52859479788379     -0.69168390981500      1.00549340923603
