14
Coordinates from ORCA-job run
  C   -0.44121401885819      0.32777305853197     -0.43850644978820
  C   0.78746444465326     -0.57871084613681     -0.33857021051442
  H   -0.54960535863574      0.75076808750353     -1.43733247433478
  H   0.68467916640273     -1.31071621780902     -1.14993744803800
  N   -0.42113861378743      1.46685400134041      0.53081825118381
  O   -1.17643679468241      2.38981396745254      0.24903278629025
  O   0.31805854881485      1.36969410058858      1.50394207771231
  N   -1.67140449480039     -0.50945175088312     -0.17459366952120
  O   -2.33192455023172     -0.26876899470604      0.82426464535355
  O   -1.85583610723793     -1.38444563683706     -1.01132939467474
  C   0.83674551854325     -1.31888110174363      0.92639861895817
  N   0.85537385600878     -1.97532888168272      1.89949352306250
  C   2.00400497656422      0.20375628082208     -0.57162788198479
  N   2.96223342724671      0.83864393355930     -0.81105237370449
