14
Coordinates from ORCA-job run
  C   -0.42489781254021      0.34784237682931     -0.43734964161472
  C   0.75269098866712     -0.62471379751653     -0.34381938241313
  H   -0.52154367505000      0.76907509080404     -1.43810791854592
  H   0.60109031502740     -1.35545176138992     -1.14861190071810
  N   -0.33135439054740      1.49179393972169      0.52177470985393
  O   -1.04350612060267      2.44957487772989      0.24322284602627
  O   0.41656808459501      1.36522794682355      1.48479928891561
  N   -1.69655125812593     -0.41857505304267     -0.15272160374587
  O   -2.33811365958064     -0.12551949901637      0.84423072439762
  O   -1.93185300934922     -1.29598585816697     -0.97403400491259
  C   0.77071432967300     -1.35776009561059      0.92616289120369
  N   0.74028903229639     -1.99659757974792      1.91063287738849
  C   2.00895630384015      0.08650305573885     -0.59375773641360
  N   2.99951087169700      0.66558635684363     -0.84242114942167
