14
Coordinates from ORCA-job run
  C   -0.42669182261888      0.34642514925571     -0.43880352581534
  C   0.75845446864800     -0.61630730841758     -0.34072034981236
  H   -0.52143553734287      0.76971875389920     -1.43883533946899
  H   0.61779464059089     -1.34618759813838     -1.14833521910318
  N   -0.34854604056058      1.48768911872323      0.52471578011098
  O   0.38735972129015      1.35952933652827      1.49678005771872
  O   -1.06099591079528      2.44391848410750      0.24149282374886
  N   -1.69360414756399     -0.43145358392243     -0.16336396866205
  O   -1.91915545463125     -1.30588168679933     -0.99062943705253
  O   -2.34087843807775     -0.14949310201949      0.83312681902855
  C   0.77730152830820     -1.35370814302603      0.92675583050911
  N   0.76642944851835     -2.00630915130001      1.90254707949749
  C   2.00946830634398      0.10720846931807     -0.58139184259968
  N   2.99549923789104      0.69685126179127     -0.82333870809956
