14
Coordinates from ORCA-job run
  C   -0.43931206438486      0.33657897719402     -0.43493366217727
  C   0.78887105612653     -0.57173492539735     -0.34714881811412
  H   -0.54410212932984      0.77652121327893     -1.42678083770478
  H   0.69061501958549     -1.28681453050662     -1.17388219911920
  N   -0.42410768962853      1.45792368920162      0.55402908031547
  O   -1.17464974622558      2.38787061554520      0.28242781219592
  O   0.30440760793363      1.34036135799798      1.53314468957091
  N   -1.67001129132152     -0.50601276545908     -0.18982363323030
  O   -2.33170755178679     -0.28646304889913      0.81284992592782
  O   -1.85212631432739     -1.36393667149774     -1.04471067494583
  C   0.83212110967439     -1.33614239382824      0.90336934285093
  N   0.84063354223302     -2.00547694117468      1.86775447243157
  C   2.00753140313677      0.21392730731639     -0.55916778596245
  N   2.97283704831467      0.84539811622870     -0.77812771203868
