16

C	0.0	0.0	0.0
C	-0.465573	-0.152098	-1.447022
F	1.386916	0.0	0.0
H	-0.1813	0.740737	-1.998965
H	-1.544687	-0.325048	-1.460174
N	-0.470264	1.29058	0.429
H	-1.486738	1.284623	0.30858
H	-0.308536	1.366218	1.428783
C	-0.411965	-1.155123	0.897404
H	-1.500054	-1.227541	0.914748
H	0.018017	-2.096465	0.554364
H	-0.042246	-0.94683	1.906496
N	0.214087	-1.29075	-2.110465
O	1.161434	-1.034301	-2.856957
O	-0.198423	-2.426454	-1.869769
Br	-3.822038	0.0	0.0
