16

C	0.0	0.0	0.0
C	-0.464911	0.150946	-1.445154
F	1.413941	0.0	0.0
H	-1.53319	-0.084207	-1.483946
H	-0.276434	1.163162	-1.796873
N	-0.47247	1.153463	0.678333
H	0.112449	1.954266	0.483212
H	-0.573313	1.00961	1.671916
C	-0.485063	-1.260257	0.670066
H	-1.578003	-1.236145	0.693431
H	-0.142839	-2.136752	0.12267
H	-0.082553	-1.295372	1.686445
N	0.285204	-0.742182	-2.36588
O	1.084155	-0.21823	-3.143707
O	0.075695	-1.952468	-2.293022
Br	-4.004894	0.0	0.0
