16

C	0.0	0.0	0.0
C	-0.44229	-0.015194	-1.465874
F	1.394654	0.0	0.0
H	-1.526835	-0.15828	-1.4891
H	-0.148217	0.916644	-1.947947
N	-0.476455	1.182408	0.653198
H	-1.478752	1.058053	0.807585
H	-0.365508	1.988413	0.046538
C	-0.434948	-1.219593	0.783671
H	-0.13339	-1.064041	1.821281
H	-1.517773	-1.334335	0.726844
H	0.052803	-2.110276	0.391282
N	0.202848	-1.089854	-2.263819
O	1.055342	-0.754917	-3.089012
O	-0.145685	-2.251171	-2.053189
Br	-3.820534	0.0	0.0
