16

C	0.0	0.0	0.0
C	-0.249863	0.034689	-1.524868
F	1.406119	0.0	0.0
H	0.601438	-0.470867	-1.976219
H	-0.282382	1.072335	-1.848819
N	-0.468532	1.222813	0.581508
H	-1.474788	1.254353	0.402579
H	-0.376284	1.150304	1.589383
C	-0.429053	-1.265843	0.708483
H	-1.518272	-1.318431	0.731811
H	-0.037207	-1.223323	1.730711
H	-0.029629	-2.150928	0.212331
N	-1.423909	-0.650343	-2.132545
O	-1.516597	-1.862696	-1.958775
O	-2.132302	0.024782	-2.870713
Br	-3.874805	0.0	0.0
