16

C	0.0	0.0	0.0
C	-0.428425	-0.349794	-1.432483
F	1.39931	0.0	0.0
H	-1.505944	-0.174932	-1.513223
H	-0.16962	-1.375987	-1.684095
N	-0.451392	1.262769	0.48994
H	-1.450468	1.173712	0.677374
H	-0.346857	1.964231	-0.235032
C	-0.454455	-1.106807	0.927091
H	-0.17259	-0.829841	1.944381
H	-1.538151	-1.221588	0.866698
H	0.043004	-2.04128	0.657729
N	0.278262	0.492503	-2.427144
O	0.089628	1.709761	-2.386976
O	1.023273	-0.066372	-3.232485
Br	-3.826839	0.0	0.0
