16

C	0.0	0.0	0.0
C	-0.492648	0.04339	-1.437997
F	1.416082	0.0	0.0
H	-0.30899	-0.902755	-1.941191
H	-1.562291	0.285162	-1.413044
N	-0.463976	1.121581	0.725502
H	-0.263831	1.98795	0.247888
H	-0.085429	1.125608	1.661667
C	-0.471841	-1.278102	0.653182
H	-1.563943	-1.30055	0.606414
H	-0.156904	-1.283967	1.700395
H	-0.038037	-2.147516	0.153459
N	0.233247	1.065578	-2.236461
O	0.876711	0.680566	-3.212934
O	0.151773	2.241732	-1.877925
Br	-3.998849	0.0	0.0
