14

C	-0.56288	0.035776	-1.41931
C	0.0	0.0	0.0
Cl	-0.166118	1.602404	-2.130599
H	1.091945	0.0	0.0
H	-0.295543	0.930107	0.495654
N	0.120552	-1.079439	-2.226919
O	-0.268459	-2.202759	-1.910277
O	0.954084	-0.814158	-3.074514
N	-1.974913	-0.202205	-1.607742
H	-2.480425	0.539661	-1.138081
H	-2.201613	-1.081978	-1.154878
C	-0.529913	-1.112207	0.767435
N	-0.950689	-2.010698	1.399277
H	2.690508	0.0	0.0
