14

C	-0.229629	-0.111444	-1.496074
C	0.0	0.0	0.0
Cl	-1.959594	-0.350806	-1.946257
H	1.094024	0.0	0.0
H	-0.411306	0.909392	0.434265
N	0.144856	1.267111	-2.098298
O	0.887939	1.291352	-3.065734
O	-0.357085	2.243792	-1.553405
N	0.570651	-1.095148	-2.12984
H	0.253145	-2.004832	-1.81371
H	1.524324	-0.949022	-1.769489
C	-0.470534	-1.185941	0.682428
N	-0.841297	-2.158097	1.229593
H	2.689211	0.0	0.0
