14

C	-0.551155	-0.03595	-1.42108
C	0.0	0.0	0.0
Cl	0.08079	1.319229	-2.35071
H	1.093621	0.0	0.0
H	-0.316841	-0.917725	0.506796
N	-0.068909	-1.362617	-2.032105
O	-0.579664	-2.348047	-1.499464
O	0.725792	-1.374383	-2.955259
N	-1.987097	-0.071551	-1.593884
H	-2.358023	0.82005	-1.285435
H	-2.349912	-0.797202	-0.985709
C	-0.54536	1.142851	0.704551
N	-1.000366	2.068585	1.268804
H	2.691451	0.0	0.0
