14

C	-0.520465	-0.048072	-1.413974
C	0.0	0.0	0.0
Cl	0.209119	1.372678	-2.293182
H	1.099409	0.0	0.0
H	-0.279345	0.973035	0.419513
N	-0.009461	-1.285334	-2.160656
O	-0.356726	-1.374407	-3.337037
O	0.660659	-2.093101	-1.536343
N	-1.926482	-0.114479	-1.540926
H	-2.199697	-0.032491	-2.512538
H	-2.364918	0.606128	-0.985541
C	-0.547747	-1.05038	0.839219
N	-0.965788	-1.868914	1.571191
H	2.674664	0.0	0.0
