14

C	-0.330267	0.135963	-1.471046
C	0.0	0.0	0.0
F	-1.657822	0.433308	-1.705165
H	1.093994	0.0	0.0
H	-0.379587	-0.936805	0.402967
N	0.491899	1.06568	-2.092029
H	1.451471	0.992827	-1.754906
H	0.452372	0.98487	-3.099203
N	-0.251097	-1.284532	-2.143754
O	0.07873	-1.299733	-3.326663
O	-0.596187	-2.2617	-1.488329
C	-0.516083	1.133518	0.752168
N	-0.930647	2.039057	1.372787
Br	3.437572	0.0	0.0
