14

C	-0.325067	0.048072	-1.477337
C	0.0	0.0	0.0
F	-1.660644	0.276756	-1.734985
H	1.093902	0.0	0.0
H	-0.37921	-0.912994	0.454691
N	0.463861	0.977325	-2.140418
H	1.426315	0.949012	-1.806471
H	0.421914	0.854052	-3.141729
N	-0.177885	-1.403403	-2.070295
O	-0.530622	-2.350516	-1.376144
O	0.2081	-1.473825	-3.233995
C	-0.523	1.172967	0.683474
N	-0.96361	2.095595	1.259653
Br	3.433918	0.0	0.0
