14

C	-0.542341	0.043488	-1.410888
C	0.0	0.0	0.0
F	-0.079637	-1.028463	-2.106305
H	1.089486	0.0	0.0
H	-0.317786	-0.966935	0.401408
N	-1.95525	0.04296	-1.481698
H	-2.353324	0.751568	-0.879424
H	-2.252619	0.181558	-2.440349
N	0.020226	1.26138	-2.184949
O	0.580955	2.148594	-1.555853
O	-0.229129	1.262921	-3.390428
C	-0.564218	1.057742	0.825206
N	-1.081863	1.900069	1.45818
Br	3.473698	0.0	0.0
