14

C	-0.368567	0.162633	-1.470154
C	0.0	0.0	0.0
F	-1.714498	0.373984	-1.608153
H	1.092311	0.0	0.0
H	-0.395376	-0.929931	0.410697
N	0.329197	1.158447	-2.19288
H	0.143412	2.053406	-1.751269
H	1.328499	0.973029	-2.120007
N	-0.102729	-1.196218	-2.139788
O	0.807218	-1.276873	-2.952703
O	-0.845047	-2.105885	-1.782294
C	-0.491355	1.144295	0.75342
N	-0.8911	2.08059	1.338123
Br	3.429569	0.0	0.0
