14

C	-0.332719	0.186139	-1.464613
C	0.0	0.0	0.0
F	-1.660452	0.494346	-1.685493
H	1.09774	0.0	0.0
H	-0.378765	-0.949792	0.371716
N	0.489525	1.134717	-2.055211
H	1.451187	1.044541	-1.729101
H	0.437436	1.098344	-3.064492
N	-0.258902	-1.211313	-2.186654
O	-0.579213	-2.214903	-1.55936
O	0.039859	-1.180629	-3.377937
C	-0.514994	1.106834	0.790995
N	-0.943559	1.976915	1.451559
Br	3.4378	0.0	0.0
