14

C	-0.371134	0.146756	-1.472387
C	0.0	0.0	0.0
F	-1.716017	0.351064	-1.610787
H	1.092279	0.0	0.0
H	-0.394508	-0.926246	0.421083
N	0.322375	1.137333	-2.205584
H	0.128315	2.036435	-1.776504
H	1.3205	0.959047	-2.124545
N	-0.098517	-1.215807	-2.126482
O	-0.865127	-2.115507	-1.793959
O	0.846661	-1.311377	-2.894869
C	-0.49162	1.152451	0.740714
N	-0.891083	2.096615	1.313513
Br	3.430247	0.0	0.0
