13

C	-0.342602	0.071044	-1.446848
C	0.0	0.0	0.0
Cl	-2.096902	-0.003333	-1.82518
H	1.091167	0.0	0.0
H	0.053081	0.965267	-1.913767
H	-0.4079	-0.875876	0.495489
N	0.295556	-1.09522	-2.151229
O	0.900203	-0.84352	-3.187844
O	0.131926	-2.208175	-1.662258
N	-0.466255	1.192081	0.700045
O	-0.486174	2.262801	0.085603
O	-0.758499	1.07524	1.891863
F	2.490342	0.0	0.0
