13

C	-0.34659	0.01729	-1.447768
C	0.0	0.0	0.0
Cl	-2.105156	-0.076261	-1.817139
H	1.09259	0.0	0.0
H	0.043192	0.896101	-1.948664
H	-0.407056	-0.856618	0.528846
N	0.291686	-1.170374	-2.113867
O	0.891617	-0.954058	-3.162112
O	0.136137	-2.26457	-1.583778
N	-0.467187	1.216776	0.655
O	-0.761569	1.143489	1.849843
O	-0.485908	2.264899	0.002002
F	2.490274	0.0	0.0
