13

C	-0.344924	0.001042	-1.447423
C	0.0	0.0	0.0
Cl	-2.101467	-0.126719	-1.81801
H	1.093445	0.0	0.0
H	0.029581	0.883651	-1.954534
H	-0.40427	-0.85258	0.537157
N	0.315963	-1.179112	-2.106283
O	0.907557	-0.959707	-3.158898
O	0.186012	-2.270809	-1.565339
N	-0.470782	1.220838	0.643832
O	-0.496692	2.262977	-0.018688
O	-0.761671	1.156101	1.840073
F	2.490777	0.0	0.0
