13

C	-0.402615	0.071835	-1.437367
C	0.0	0.0	0.0
Cl	0.01643	1.54266	-2.325051
H	1.090919	0.0	0.0
H	0.093797	-0.749976	-1.949303
H	-0.340503	-0.958761	0.395328
N	-1.880053	-0.172286	-1.660289
O	-2.670829	0.447627	-0.956945
O	-2.182816	-0.989147	-2.530539
N	-0.541106	1.022221	0.898701
O	-0.49517	2.201989	0.556335
O	-0.950779	0.634911	1.997401
F	2.509419	0.0	0.0
