13

C	-0.412016	-0.287955	-1.405161
C	0.0	0.0	0.0
Cl	-0.006878	1.094722	-2.441284
H	1.089146	0.0	0.0
H	0.073721	-1.169341	-1.811239
H	-0.391692	0.941528	0.376407
N	-1.89729	-0.529884	-1.575045
O	-2.229481	-1.337147	-2.439013
O	-2.663612	0.113247	-0.864622
N	-0.465097	-1.064255	0.887883
O	-0.529436	-0.819915	2.090754
O	-0.713773	-2.169465	0.38781
F	2.506867	0.0	0.0
