13

C	-0.382038	-0.037005	-1.443116
C	0.0	0.0	0.0
Cl	-0.01097	1.524167	-2.201145
H	1.092646	0.0	0.0
H	0.14622	-0.811408	-1.989231
H	-0.40671	0.853731	0.534559
N	-1.852716	-0.295277	-1.690881
O	-2.138703	-0.926921	-2.704545
O	-2.654607	0.1648	-0.88427
N	-0.463291	-1.213137	0.668132
O	-0.655262	-2.218853	-0.027699
O	-0.589709	-1.186377	1.891184
F	2.50504	0.0	0.0
