16

C	0.188386	-0.014767	-0.062379
C	-0.499447	-0.242885	-1.419472
Cl	1.875926	0.558425	-0.232306
H	0.232156	-0.878538	-1.948211
H	0.235369	-0.947204	0.496879
N	-0.544236	0.931437	0.848289
O	-1.124573	0.406598	1.795796
O	-0.511945	2.126337	0.586177
C	-0.705201	1.036326	-2.220359
H	-1.509931	1.617551	-1.769606
H	-1.025111	0.750981	-3.224665
H	0.206042	1.634268	-2.285703
N	-1.760173	-0.92643	-1.294725
H	-2.541435	-0.261125	-1.019188
H	-1.718222	-1.669763	-0.604488
H	-3.689481	0.785191	-0.621746
