16

C	0.237949	0.03071	-0.085822
C	-0.470235	0.124245	-1.448389
Cl	1.886328	0.728904	-0.116648
H	0.281848	-0.304882	-2.133156
H	0.350789	-1.010857	0.209001
N	-0.523548	0.659887	1.047991
O	-0.560293	1.881357	1.112316
O	-1.055467	-0.129081	1.825375
C	-0.767968	1.553817	-1.882318
H	0.106545	2.202128	-1.798509
H	-1.098147	1.521867	-2.922685
H	-1.591806	1.946592	-1.285935
N	-1.687395	-0.643141	-1.495939
H	-1.58561	-1.538783	-1.028556
H	-2.496927	-0.122237	-1.046692
H	-3.69401	0.709457	-0.37683
