11
Coordinates from ORCA-job run
  C   0.52202174270632     -0.60261329621976      0.68308180814674
  C   -0.74755359614501     -0.28874164396290     -0.11218050735006
  H   0.61602672046793     -1.67774699938862      0.86059118101963
  H   -1.60135242943385     -0.65875647565096      0.46153684585631
  H   0.47115362983259     -0.09361625642383      1.64849942962943
  H   -0.72026362163606     -0.84393586081110     -1.06106309846440
  C   1.70913861562742     -0.13428322830670     -0.03222389246075
  N   2.62806321043546      0.26019428841717     -0.64610648041290
  N   -0.88214775272638      1.15561661767310     -0.25757364311984
  H   -1.79767161155851      1.38444765388842     -0.62314953194364
  H   -0.19841490756992      1.50043520078518     -0.92141211090053
