11
Coordinates from ORCA-job run
  C   0.69617742210555     -0.78593597148926      0.00841351030457
  C   -0.74636327778472     -0.28967457923891     -0.11639307000832
  H   0.72714947737458     -1.79516080505737      0.42885117064700
  H   -1.22023869546493     -0.31804688635792      0.87557557951834
  H   1.15102793059289     -0.80855895452615     -0.98471318617478
  H   -1.28618415986559     -0.98972081915176     -0.75948313200073
  C   1.47835467875284      0.10799210059754      0.86242985262342
  N   2.06045679385963      0.85647057484459      1.55368642952206
  N   -0.75314438873408      1.02079554574849     -0.75517979755703
  H   -1.69897881165873      1.28192319151027     -1.00295580432348
  H   -0.40725696917743      1.72091660312049     -0.10923155255105
