11
Coordinates from ORCA-job run
  C   0.60874821909959     -0.29225304887867      0.61117808319006
  C   -0.37765462654726      0.08774502508970     -0.49744441895255
  H   0.86077090559283      0.58860691503558      1.20981085240602
  H   0.11712820737440      0.77081595421635     -1.20163521399833
  H   0.13292195174484     -1.01316606939185      1.27970304147766
  H   -0.64246562826550     -0.81448477674460     -1.05343595804485
  C   1.84298876766113     -0.85885845061447      0.06980044754202
  N   2.81985492813988     -1.31120774409003     -0.39664792817951
  N   -1.58770453443571      0.62363375531774      0.11826796742766
  H   -1.43120459755231      1.57923695435281      0.41482088297117
  H   -2.34238359281190      0.63993148570746     -0.55541775583936
