14

C	0.0	0.0	0.0
C	-0.4754	-0.062996	-1.450093
F	1.391313	0.0	0.0
H	0.113801	-0.873516	-1.906497
H	-0.350637	0.90303	0.508563
H	-0.333222	-0.880705	0.556179
C	-0.139655	1.232129	-2.176425
H	-0.414829	1.146932	-3.228862
H	-0.7092	2.061924	-1.7432
H	0.92626	1.464461	-2.099993
N	-1.877279	-0.378677	-1.63872
H	-2.497624	0.367733	-1.342255
H	-2.166032	-1.170988	-1.08221
Cl	-4.738053	0.0	0.0
