14

C	0.0	0.0	0.0
C	-0.568787	-0.454643	-1.341517
F	1.384884	0.0	0.0
H	-1.474495	-1.023496	-1.109003
H	-0.344142	1.007644	0.234818
H	-0.321725	-0.678883	0.793601
C	0.413648	-1.338007	-2.096423
H	-0.058423	-1.727104	-3.004782
H	0.729868	-2.191126	-1.489012
H	1.299681	-0.765646	-2.378457
N	-0.904952	0.731709	-2.145237
H	-1.191543	0.407835	-3.065344
H	-1.758492	1.09434	-1.721378
Cl	-3.631775	0.0	0.0
