14

C	0.0	0.0	0.0
C	-0.460856	0.177334	-1.435694
F	1.395166	0.0	0.0
H	-1.552306	0.166776	-1.407393
H	-0.345049	-0.94341	0.426994
H	-0.343494	0.825128	0.626052
C	0.04939	-0.958609	-2.312628
H	-0.339559	-1.919981	-1.965555
H	-0.275225	-0.79737	-3.341692
H	1.142647	-1.001987	-2.297866
N	-0.01865	1.460668	-2.003174
H	0.945016	1.612756	-1.721114
H	-0.572539	2.198592	-1.581615
Cl	-3.628113	0.0	0.0
