16

C	-0.463534	0.140991	-1.45967
C	0.0	0.0	0.0
F	-1.799391	0.418152	-1.502168
H	1.095101	0.0	0.0
C	0.322775	1.177823	-2.211937
H	1.387934	0.97242	-2.107642
H	0.025877	1.171048	-3.263045
H	0.100364	2.156419	-1.784713
N	-0.293171	-1.215525	-2.134238
O	0.859792	-1.548648	-2.369484
O	-1.307549	-1.855567	-2.378167
C	-0.526304	-1.204477	0.636608
N	-0.949419	-2.174157	1.146634
C	-0.435245	1.189132	0.733643
N	-0.77597	2.156736	1.305259
Cl	3.164443	0.0	0.0
