16

C	-0.467736	0.097792	-1.462898
C	0.0	0.0	0.0
F	-1.79624	0.398712	-1.516028
H	1.095034	0.0	0.0
C	0.340313	1.091842	-2.251584
H	0.036477	1.062181	-3.300673
H	0.143932	2.089115	-1.853341
H	1.400745	0.862879	-2.143419
N	-0.317915	-1.283226	-2.090082
O	-1.340587	-1.874581	-2.416462
O	0.832349	-1.682026	-2.213269
C	-0.526271	-1.186405	0.669999
N	-0.94837	-2.143369	1.204443
C	-0.433523	1.209468	0.700137
N	-0.773144	2.193279	1.244287
Cl	3.160246	0.0	0.0
