16

C	-0.455714	0.071602	-1.464646
C	0.0	0.0	0.0
F	-1.807758	0.276163	-1.526201
H	1.106712	0.0	0.0
C	0.279925	1.131626	-2.2359
H	0.001386	2.106523	-1.832694
H	-0.004932	1.084765	-3.288531
H	1.354386	0.984666	-2.12422
N	-0.219718	-1.29825	-2.100079
O	-1.147493	-2.099046	-2.038602
O	0.878432	-1.488042	-2.608331
C	-0.51414	-1.16843	0.709382
N	-0.910398	-2.098728	1.306816
C	-0.440407	1.220399	0.675805
N	-0.793125	2.206373	1.207607
Cl	3.145233	0.0	0.0
