16

C	-0.454497	0.061665	-1.466778
C	0.0	0.0	0.0
F	-1.773882	0.408145	-1.542821
H	1.106641	0.0	0.0
C	0.39603	0.996236	-2.285112
H	0.068401	0.960386	-3.326246
H	0.270856	2.010937	-1.902403
H	1.445098	0.709191	-2.186857
N	-0.347594	-1.331037	-2.077442
O	0.65584	-1.969524	-1.78693
O	-1.239245	-1.669041	-2.847752
C	-0.546038	-1.154891	0.706023
N	-1.01224	-2.0768	1.264761
C	-0.426669	1.236274	0.657709
N	-0.759577	2.239716	1.169304
Cl	3.170927	0.0	0.0
