16

C	-0.486066	0.124202	-1.454633
C	0.0	0.0	0.0
F	-0.10063	-0.995856	-2.117763
H	1.101864	0.0	0.0
C	-1.972637	0.325602	-1.62578
H	-2.291489	1.254005	-1.151746
H	-2.496709	-0.516947	-1.170098
H	-2.204107	0.354171	-2.693029
N	0.213533	1.300772	-2.124149
O	0.608772	1.136494	-3.267969
O	0.23522	2.341005	-1.478329
C	-0.463158	-1.290189	0.514094
N	-0.857581	-2.323471	0.909874
C	-0.507085	1.059083	0.869002
N	-0.943781	1.864614	1.603819
Cl	3.129943	0.0	0.0
