16

C	-0.459846	0.168216	-1.457679
C	0.0	0.0	0.0
F	-1.802084	0.426789	-1.498054
H	1.106719	0.0	0.0
C	0.313706	1.238899	-2.177119
H	1.381559	1.04093	-2.08374
H	0.081164	2.200647	-1.716892
H	0.0168	1.263939	-3.22746
N	-0.273175	-1.17072	-2.166909
O	0.854288	-1.412371	-2.57957
O	-1.258486	-1.895653	-2.255672
C	-0.524821	-1.211252	0.624395
N	-0.953527	-2.180779	1.130407
C	-0.436084	1.177793	0.750138
N	-0.788898	2.137483	1.327946
Cl	3.153574	0.0	0.0
