16

C	0.0	0.0	0.0
C	-0.334238	0.150429	-1.515428
F	1.376725	0.0	0.0
H	0.010536	-0.779722	-1.969875
C	-0.373257	1.185605	0.816272
N	-0.597672	2.059803	1.568478
N	-0.550358	-1.225349	0.469725
H	-0.428541	-1.292951	1.474994
H	-1.561984	-1.182351	0.306597
N	0.597447	1.211734	-2.062611
O	0.387689	2.36433	-1.696388
O	1.464096	0.858628	-2.858344
N	-1.636686	0.483935	-1.95381
H	-2.260636	-0.31251	-1.917076
H	-2.076212	1.175559	-1.356246
Br	-4.114688	0.0	0.0
