16

C	0.0	0.0	0.0
C	-0.563095	0.034065	-1.410768
Cl	1.772558	0.0	0.0
H	-0.333064	1.037918	-1.782686
H	-1.652892	-0.043812	-1.220548
C	-0.552403	1.142519	0.819782
H	-1.649541	1.008161	0.747637
H	-0.188446	1.08986	1.845071
H	-0.228001	2.082588	0.365633
N	-0.397922	-1.307924	0.690544
O	-0.32163	-1.340901	1.914221
O	-0.708691	-2.263838	-0.012111
N	0.028325	-0.938205	-2.338748
H	-0.202981	-0.637075	-3.278127
H	-0.437752	-1.821502	-2.179378
F	-2.945851	0.0	0.0
