16

C	0.0	0.0	0.0
C	-0.563864	0.032078	-1.410122
Cl	1.785606	0.0	0.0
H	-0.164405	-0.811589	-1.976223
H	-1.646989	-0.090942	-1.202828
C	-0.525218	1.116224	0.859588
H	-0.234392	2.055117	0.388419
H	-1.619109	0.971899	0.829142
H	-0.119609	1.054943	1.868596
N	-0.368529	-1.344461	0.626827
O	-0.486823	-1.395176	1.84541
O	-0.446788	-2.313037	-0.123103
N	-0.271792	1.325357	-2.036008
H	-1.142233	1.723487	-2.357226
H	0.333222	1.202666	-2.835609
F	-2.924587	0.0	0.0
