16

C	0.0	0.0	0.0
C	-0.671729	-0.108633	-1.356659
Cl	1.770533	0.0	0.0
H	-1.74516	-0.202499	-1.03935
H	-0.311889	-1.014048	-1.858331
C	-0.599327	1.111097	0.8141
H	-1.687935	0.910175	0.778008
H	-0.368972	2.053863	0.315423
H	-0.207907	1.114541	1.834014
N	-0.330432	-1.355227	0.661394
O	-1.245237	-1.378181	1.474484
O	0.298368	-2.337485	0.265192
N	-0.472824	1.11168	-2.133224
H	-1.358246	1.376437	-2.545333
H	0.195618	0.958198	-2.875969
F	-3.139532	0.0	0.0
