12

C	-0.494821	-0.072475	-1.431575
C	0.0	0.0	0.0
Br	0.076811	1.650503	-2.336493
H	1.091545	0.0	0.0
H	0.067275	-0.822923	-1.989403
H	-0.339375	0.924141	0.478976
N	-1.889967	-0.296672	-1.552504
H	-2.40508	0.416036	-1.050203
H	-2.185204	-0.288472	-2.521033
C	-0.477084	-1.143215	0.765475
N	-0.834192	-2.063428	1.404446
H	2.774861	0.0	0.0
