12

C	-0.48196	0.001388	-1.417946
C	0.0	0.0	0.0
Br	-2.648853	-0.29614	-1.392075
H	1.094288	0.0	0.0
H	-0.499631	0.981961	-1.885365
H	-0.300285	-0.928121	0.496911
N	0.140829	-0.941878	-2.20133
H	0.324376	-1.821698	-1.746166
H	-0.223653	-1.042968	-3.134542
C	-0.499064	1.129117	0.762356
N	-0.860947	2.060164	1.38072
H	2.716474	0.0	0.0
