12

C	-0.48623	0.021113	-1.432841
C	0.0	0.0	0.0
Br	-0.141872	1.76565	-2.281598
H	1.092385	0.0	0.0
H	0.160824	-0.654799	-2.004599
H	-0.266058	-0.981232	0.420134
N	-1.904737	-0.243824	-1.53937
H	-2.135554	-1.03949	-0.956151
H	-2.153776	-0.45518	-2.496934
C	-0.580823	1.03037	0.841523
N	-1.027652	1.850262	1.554252
H	2.777821	0.0	0.0
