12

C	-0.358169	0.141292	-1.486357
C	0.0	0.0	0.0
Br	-0.275084	-1.62184	-2.374213
H	1.093856	0.0	0.0
H	-1.389822	0.454677	-1.649981
H	-0.284801	0.945684	0.480989
N	0.543878	1.036789	-2.155267
H	1.484084	0.847587	-1.798436
H	0.305593	1.986316	-1.886475
C	-0.616038	-1.092598	0.72351
N	-1.12703	-1.972704	1.311909
H	2.813406	0.0	0.0
