12

C	-0.36616	0.13882	-1.487261
C	0.0	0.0	0.0
Br	-0.314814	-1.678169	-2.29584
H	1.093724	0.0	0.0
H	-1.400729	0.45259	-1.648842
H	-0.3866	-0.904592	0.472361
N	0.527424	1.005532	-2.197437
H	0.258657	1.965471	-2.01312
H	1.468724	0.858004	-1.824201
C	-0.483119	1.18184	0.697734
N	-0.890867	2.153692	1.219528
H	2.814404	0.0	0.0
