12

C	-0.50203	0.019395	-1.434488
C	0.0	0.0	0.0
Br	-0.05052	1.756036	-2.248619
H	1.091928	0.0	0.0
H	0.090569	-0.686749	-2.025982
H	-0.365124	0.876013	0.54269
N	-1.935113	-0.145282	-1.530305
H	-2.202607	-0.310443	-2.493437
H	-2.209229	-0.948796	-0.975341
C	-0.476766	-1.208679	0.656783
N	-0.886174	-2.195063	1.149871
H	2.784649	0.0	0.0
