16

C	-0.440439	-0.014728	-1.478098
C	0.0	0.0	0.0
Br	0.041289	-1.916844	-2.161179
H	1.099764	0.0	0.0
N	-1.844823	0.09814	-1.73408
H	-2.112457	1.049932	-1.500588
H	-2.326378	-0.540236	-1.10904
N	0.267805	0.978188	-2.15833
H	1.264489	0.92918	-1.959594
H	0.086341	0.946389	-3.152727
N	-0.616333	-1.096721	0.754265
H	-0.123318	-1.94216	0.484572
H	-0.406955	-0.945523	1.735874
C	-0.4771	1.265383	0.567717
N	-0.909223	2.248616	1.043723
Br	3.480372	0.0	0.0
