16

C	-0.337222	0.004477	-1.512565
C	0.0	0.0	0.0
Br	0.003801	-1.896836	-2.206735
H	1.09598	0.0	0.0
N	-1.753938	0.184751	-1.738243
H	-1.954585	1.168802	-1.58101
H	-1.990315	-0.046598	-2.695519
N	0.498638	0.948496	-2.133879
H	1.473779	0.830971	-1.852886
H	0.412695	0.942779	-3.141684
N	-0.540527	-1.072258	0.801631
H	0.070652	-1.87187	0.705493
H	-1.453992	-1.319022	0.438247
C	-0.480925	1.289016	0.520401
N	-0.933852	2.295913	0.921881
Br	3.477311	0.0	0.0
