16

C	-0.217308	-0.035395	-1.518837
C	0.0	0.0	0.0
Br	-2.161527	-0.101589	-1.936171
H	1.108007	0.0	0.0
N	0.304024	1.127078	-2.199132
H	-0.152816	1.968846	-1.863015
H	1.294635	1.184709	-1.959365
N	0.385533	-1.252897	-1.988829
H	0.372223	-1.234973	-3.003354
H	1.360229	-1.24519	-1.677991
N	-0.567125	-1.152345	0.695533
H	-0.501889	-1.929959	0.045247
H	0.051495	-1.366728	1.471911
C	-0.48937	1.253345	0.57206
N	-0.872369	2.263843	1.032473
Br	3.447184	0.0	0.0
