13
Coordinates from ORCA-job run
  C   0.59438075426367      0.20337431020526      0.06982869686369
  C   -0.68829720471498     -0.33614891629088     -0.00279160511765
  N   1.18356462469641      0.90102236969474     -0.92413210820915
  H   1.89280474567094      1.56440374552012     -0.65754680331628
  H   0.57557952687412      1.14824724967857     -1.69278349281206
  N   1.33907891701426      0.03120682910818      1.20111088921055
  H   0.96200012478368     -0.58656883308580      1.90363341432074
  H   2.33540090517556     -0.04326263287099      1.06963678299346
  N   -1.62463379632371     -0.02848088100605     -1.04139610670286
  O   -1.24760973438496      0.66205476973667     -2.00166079034955
  O   -2.76138847879399     -0.48094709785247     -0.92587787380097
  C   -1.14890307158629     -1.17611515284265      1.04010009602889
  N   -1.41297731267473     -1.85978575999469      1.96187890089120
