13
Coordinates from ORCA-job run
  C   0.60321209992740      0.17930953852915      0.06571688182706
  C   -0.72731163079502     -0.23380384323057      0.04496517970408
  N   1.14867006808494      1.03419864025690     -0.82488816633481
  H   2.14094658231876      0.95920589411121     -0.97952910673021
  H   0.56489185972248      1.25398122095003     -1.62016820332788
  N   1.44101130633655     -0.28235216282200      1.04007473438189
  H   2.15805249573011      0.35474489871372      1.34879832051004
  H   1.02189895960320     -0.82988432836132      1.77640593345755
  N   -1.61980987463907      0.00948947757386     -1.04792411916847
  O   -1.24077234751527      0.73798772745181     -1.97887722745286
  O   -2.73021734827164     -0.51429801920504     -0.99479128350804
  C   -1.23011917325636     -1.01500998623415      1.11384494384075
  N   -1.53145299724608     -1.65356905773360      2.05637211280089
