13
Coordinates from ORCA-job run
  C   0.60867306119614      0.16251736013960      0.05400622671900
  C   -0.70664586728312     -0.29538841439493      0.01127799721486
  N   1.22051664584456      0.81488512572680     -0.95682743579623
  H   1.97701248834484      1.43168219358750     -0.70870402217535
  H   0.61447366946685      1.09691288585350     -1.71488287532892
  N   1.36536707803261     -0.05207305647397      1.17025536868472
  H   0.96283517967153     -0.63896712573698      1.88504565368547
  H   2.35147610517713     -0.19370576538246      1.01858931424128
  N   -1.64609778235394      0.07680316443971     -1.00348219528446
  O   -1.24458674275003      0.73187125480968     -1.97856493015607
  O   -2.81001479133444     -0.28840060695892     -0.85388618107278
  C   -1.20039369418933     -1.09331277359371      1.07218972869614
  N   -1.49161534982280     -1.75182424201582      2.00398335057234
