13
Coordinates from ORCA-job run
  C   0.61687118388073      0.13427124578403      0.03624734921177
  C   -0.74269900136600     -0.16761449918237      0.08301936792156
  N   1.19956361954849      0.86897556857373     -0.93456910799961
  H   0.61099058189853      1.06985641813028     -1.73125934622177
  H   2.17787481074325      0.70375723104655     -1.10687043121428
  N   1.44576910802227     -0.31645126526569      1.02321617143694
  H   2.22480542154451      0.27890533898667      1.25543267852949
  H   1.00828569882934     -0.76225788743886      1.81510831892293
  N   -1.64679393160867      0.05875406785365     -1.00395385725296
  O   -2.79472209501231     -0.36147458773583     -0.87740559501586
  O   -1.23855733675234      0.66938791956054     -2.00477040046859
  C   -1.27052477046340     -0.82120858061488      1.22300822102375
  N   -1.58886328926439     -1.35590096969781      2.22279663112663
