13
Coordinates from ORCA-job run
  C   0.60699999179933      0.16934747124285      0.05399437269024
  C   -0.70661654882765     -0.29374329513994      0.01848920714778
  N   1.21450913129473      0.81454577989818     -0.96387831783352
  H   1.96795269968229      1.43808865478585     -0.72409579387954
  H   0.60748170657417      1.08107620231029     -1.72669609193292
  N   1.36581869367561     -0.02843299287599      1.17196593383158
  H   2.35165069462068     -0.17074318471457      1.01869749148176
  H   0.96718711540903     -0.60769660466139      1.89493583327253
  N   -1.64603870363256      0.05373857494440     -1.00497923719603
  O   -2.80745077579462     -0.31771271134393     -0.85228455103042
  O   -1.24670153620357      0.69388642780404     -1.99094621201051
  C   -1.19346652093815     -1.08847049034406      1.08452436001254
  N   -1.48132594765929     -1.74288383190574      2.02027300544652
