13
Coordinates from ORCA-job run
  C   0.59540055893912      0.19730145365486      0.07966148920629
  C   -0.71838536928413     -0.26347253966436      0.02547047921743
  N   1.12684191050232      1.08591866671067     -0.78611231689153
  H   0.55166451752689      1.29833939230466     -1.58953262111268
  H   2.12397143551302      1.05008242415014     -0.92143333100181
  N   1.43073296633208     -0.25062644061601      1.06244022989374
  H   2.12224831764960      0.40519420374268      1.38946140156217
  H   1.01776897259459     -0.82009586222298      1.78527695915238
  N   -1.60143711413854     -0.02638240387794     -1.07668444030960
  O   -1.22749473321923      0.72440838068788     -1.99188972141731
  O   -2.69822100542419     -0.57975926061437     -1.04748078093983
  C   -1.21357408710728     -1.07911629392905      1.07201069131271
  N   -1.50951636988424     -1.74279172032619      1.99881196132805
