13
Coordinates from ORCA-job run
  C   0.61437580728184      0.14535040271521      0.03880886606622
  C   -0.71957744676924     -0.25690144577263      0.04479180956961
  N   1.24391701420239      0.67713434996953     -1.03014651210008
  H   0.64367616743908      0.90848230674996     -1.80961930918535
  H   2.02612680114551      1.28372151177021     -0.84518464590735
  N   1.37013661225567      0.00474207454210      1.16732465878618
  H   0.94999720413428     -0.49582766067074      1.93552275943814
  H   2.34777556351844     -0.19322073586746      1.02419815826378
  N   -1.64840261548681      0.04681134463176     -1.00183705395607
  O   -1.22809808806848      0.59159835341041     -2.03517814466771
  O   -2.82331851929911     -0.26306823287577     -0.81848502625082
  C   -1.23448496360957     -0.94232114536412      1.17189723118144
  N   -1.54312353674400     -1.50750112323847      2.15790720876199
