13
Coordinates from ORCA-job run
  C   0.60002427244816      0.16527910438593      0.11209869268452
  C   -0.75568296314587     -0.09480851938647     -0.07746359595350
  N   1.55909098963647     -0.78318883312967      0.13211232084488
  H   2.49420827251467     -0.49859080949062     -0.10962764621737
  H   1.25790307474857     -1.70705605400625     -0.14644636384272
  N   1.02415577332228      1.44802428875845      0.30736416373157
  H   0.31114383046029      2.15431396561846      0.40891991179537
  H   1.82076450341045      1.56540394527667      0.91234269996882
  N   -1.27347883986508     -1.36131410802417     -0.49998362793855
  O   -0.49542760691388     -2.32364582748308     -0.59997331522907
  O   -2.47949594290743     -1.42617452539410     -0.73032172719416
  C   -1.69249908257577      0.95670702454635      0.06883831443077
  N   -2.37070628113287      1.90705034832851      0.22214017291944
