13
Coordinates from ORCA-job run
  C   0.59346359138144      0.21462539527468      0.04176764860729
  C   -0.66566719120525     -0.37404707581749     -0.05727901158683
  N   1.67571190513305     -0.40111986960212     -0.51824933683078
  H   2.55413833947409     -0.27555618678008     -0.04063578095810
  H   1.52991866629576     -1.32728672992149     -0.89014362717150
  N   0.83986093099392      1.38073371979334      0.67519897223103
  H   1.64063724101298      1.90727399226549      0.36576773809363
  H   0.01752130399753      1.89781307945920      0.95462865869219
  N   -1.88517020498961      0.28896372348141      0.29363169004393
  O   -1.82546374979986      1.40681052614633      0.83046023269490
  O   -2.93590973865346     -0.29979414183811      0.04978483643879
  C   -0.78470628683047     -1.66990656333370     -0.61592136039309
  N   -0.75333480681011     -2.74750986912747     -1.09001065986146
