13
Coordinates from ORCA-job run
  C   0.60007563727306      0.19495645145457     -0.03060624148250
  C   -0.74107424267944     -0.14773020435915      0.12750573735385
  N   1.56795102509520     -0.66999136759876     -0.40082469862049
  H   2.37648571179721     -0.27949191004251     -0.85641861880224
  H   1.23975196420009     -1.57175102986012     -0.71763929175896
  N   1.00479368411249      1.47730123045855      0.20612669502131
  H   1.93451892384097      1.58659242607148      0.57921807729176
  H   0.31911211723019      2.10438061841403      0.59850796075394
  N   -1.30306115816564     -1.38941415063874     -0.31177325639092
  O   -0.54221865766159     -2.27000177325672     -0.74401977479937
  O   -2.52195882566934     -1.51814333258841     -0.22317920849661
  C   -1.64418386926587      0.80560226410681      0.65776872091330
  N   -2.28919231010733      1.67769077783898      1.11633389901694
