13
Coordinates from ORCA-job run
  C   0.59540279430386      0.15752176357508      0.10991260685516
  C   -0.76541895924340     -0.10422500186257     -0.04648462556095
  N   1.58127750090806     -0.70017632016226     -0.23335830248444
  H   2.45540617083697     -0.60285344471783      0.25584167532048
  H   1.27454913154585     -1.63541172290871     -0.46792633234827
  N   0.99704837817193      1.34875570975768      0.64085290258804
  H   1.88097970301446      1.70847661924678      0.31849779705426
  H   0.28747381432076      2.04973145597881      0.78473701510891
  N   -1.28704324266134     -1.36136870692636     -0.48565100418527
  O   -0.50342777508357     -2.30341723189739     -0.68583473790137
  O   -2.50702822761355     -1.44471010413347     -0.61589020807056
  C   -1.69300160870726      0.94988670277637      0.13723082444984
  N   -2.31721767979277      1.93679028127386      0.28807238917417
