13
Coordinates from ORCA-job run
  C   0.61764736280666      0.12745049436143      0.04623266141542
  C   -0.72787071535857     -0.23522551608943      0.03635557808686
  N   1.28085824140763      0.61756961221811     -1.02195711830553
  H   2.08114495969320      1.19953841416854     -0.83550566428477
  H   0.70172727271539      0.85412804416200     -1.81567241005055
  N   1.34867490122801     -0.01325359734735      1.19082426771162
  H   0.90093555027169     -0.48886097090702      1.95938838214784
  H   2.32370066023945     -0.23736691476832      1.07039580324779
  N   -1.62883818343265      0.07428717088701     -1.03242082827955
  O   -1.17533990832210      0.58856834850305     -2.06731492167703
  O   -2.81495982827262     -0.20079378806298     -0.86560309533144
  C   -1.28301117931392     -0.87722782088083      1.16997967151625
  N   -1.62466913366217     -1.40781347624421      2.16429767380310
