13
Coordinates from ORCA-job run
  C   0.57521331764210      0.24756409614140      0.12386043864016
  C   -0.72762763741813     -0.23373857850975      0.08456956844414
  N   1.07555816898486      1.21208584129837     -0.71040217079885
  H   0.39860664542827      1.51261238893089     -1.41071938943699
  H   1.97393246347201      0.97776754205366     -1.11554240438522
  N   1.40831030187866     -0.17827261412852      1.09787067513409
  H   2.31757163250990      0.24001096439181      1.17675304625374
  H   1.19116257109576     -0.99322987513412      1.64698321495919
  N   -1.60892436367638     -0.00962861534800     -1.02671876807100
  O   -2.53389566732756     -0.80269681084471     -1.18808616968344
  O   -1.40910242459621      0.98166554313738     -1.74528763184860
  C   -1.19546869667568     -1.12389791117948      1.08122116315964
  N   -1.46633631131760     -1.83024197080892      1.98549842763315
