13
Coordinates from ORCA-job run
  C   0.61427625170013      0.14046805729905      0.05152914626967
  C   -0.72280857745098     -0.25054921536007      0.03266024947149
  N   1.27931348595815      0.62711094771291     -1.01757287048485
  H   2.06279091886047      1.23207403385208     -0.83168852756109
  H   0.70329656209371      0.83755672841761     -1.82092562625302
  N   1.33637470424725      0.03424455643806      1.20585518011628
  H   0.89113728848147     -0.43977232116384      1.97716487805119
  H   2.31561151713236     -0.17723393921504      1.09554988671887
  N   -1.61727638991297      0.02379544141817     -1.05184037598451
  O   -2.79979639845004     -0.27084433332522     -0.89299692190490
  O   -1.16156892567709      0.52720039240697     -2.09099247325453
  C   -1.27854901368249     -0.88303618762383      1.17119488959653
  N   -1.62180142329998     -1.40201416085685      2.17106256521889
