13
Coordinates from ORCA-job run
  C   0.57107852842214      0.28433359945263      0.09824886264440
  C   -0.64018243623328     -0.38412275886106     -0.01185412867366
  N   1.28066884565853      0.22468364016041      1.26269716682793
  H   2.28387292759452      0.24036524405834      1.16093573040929
  H   0.94546952251117     -0.41444043298595      1.96914000094263
  N   1.16211854809314      0.97399674907663     -0.91676174486317
  H   0.48425119431005      1.20003570311577     -1.64041038847085
  H   1.69588936208780      1.77456413515707     -0.60968398616071
  N   -1.53543127709668     -0.27081950168299     -1.12731841605099
  O   -1.33637063254277      0.61605762722126     -1.97384294771541
  O   -2.45864885452553     -1.07325654267796     -1.18320272245644
  C   -1.07745702308222     -1.25249196111965      1.02395045129763
  N   -1.37425870519688     -1.91890550091450      1.94610212226936
