13
Coordinates from ORCA-job run
  C   0.64843705845010      0.16614468528495      0.09021309632151
  C   -0.61257174375967     -0.44406118901668     -0.07850029498338
  N   1.69326476424127     -0.34352085436270     -0.63282577622066
  H   1.52849185221433     -0.70732906320963     -1.56884187490532
  H   2.59386169543804      0.11527802960032     -0.58844219012020
  N   0.83771674938084      1.21072466713043      0.91669498284158
  H   0.01829762252818      1.54576447343469      1.32216359504182
  H   1.51914228093536      1.91980343532364      0.66776577370605
  N   -1.86714977976429      0.28223886371999      0.09297661811835
  O   -2.87814497651768     -0.30432174203355     -0.27056559558234
  O   -1.83509735757022      1.44810304343320      0.52215070223847
  C   -0.67416228354476     -1.87157256664750     -0.19496559329858
  N   -0.97208588203150     -3.01725178265718     -0.27782344315730
