13
Coordinates from ORCA-job run
  C   0.58281394205554      0.24487083068971      0.01361508818062
  C   -0.65037921347305     -0.39981343624642     -0.05854970385590
  N   1.61455390221375     -0.17587593842375     -0.77514271564176
  H   2.53926352169812     -0.07889736929861     -0.38684487976606
  H   1.46748805787929     -1.02396264656736     -1.30121808444329
  N   0.85105801891171      1.28339561579510      0.83262850316930
  H   1.58254232313395      1.91389757302262      0.54737839182030
  H   0.04800155532123      1.67685964625653      1.30406810966219
  N   -1.84470770220194      0.09344785344007      0.55819883215913
  O   -1.76885651550875      1.08472599509256      1.30176085883388
  O   -2.88985739581203     -0.50806360786390      0.32123032780361
  C   -0.77717543654037     -1.57335326208099     -0.84060352500549
  N   -0.75474505767745     -2.53823125381557     -1.51552120291654
