13
Coordinates from ORCA-job run
  C   0.57806271251948      0.24141769745077      0.08648683862392
  C   -0.69578034218070     -0.31896677358334      0.01744419272365
  N   1.45424555951834     -0.18321809524106      1.04351438790423
  H   2.09351855011329      0.50955572455908      1.39965750445449
  H   1.09301814430639     -0.81661244605420      1.74038124641498
  N   1.02903713321699      1.20882378147209     -0.73955567603586
  H   0.43212010233003      1.41065708102602     -1.52986222029188
  H   2.02486377061912      1.26015843501785     -0.88086707090285
  N   -1.60180530338570     -0.10754791785661     -1.07101967499362
  O   -2.64759345107247     -0.75284380448350     -1.06564895503512
  O   -1.29770650416883      0.71279710880324     -1.95180222859047
  C   -1.11504109448483     -1.21931419954373      1.02697022217015
  N   -1.34693927733111     -1.94590659156662      1.92430143355838
