13
Coordinates from ORCA-job run
  C   0.60803651898407      0.16429773053509      0.05732589589706
  C   -0.70909768770854     -0.28882338776670      0.01439939623916
  N   1.35136806188720     -0.02054991278862      1.18750308140636
  H   2.33883200868521     -0.16697901318793      1.05075874812010
  H   0.94045059733184     -0.58773161578836      1.91339912512753
  N   1.23200191310143      0.78629717156639     -0.96492379575198
  H   1.98963166938749      1.40587978631170     -0.72829775326835
  H   0.63399899375996      1.04700032867399     -1.73706022054242
  N   -1.63420458424033      0.04860128979097     -1.02479548044710
  O   -2.79810404648979     -0.31972625976073     -0.88332142584647
  O   -1.22187753102954      0.67956988614557     -2.01130095485785
  C   -1.21471677875147     -1.05772645331556      1.09069311302104
  N   -1.51531913491754     -1.69010955041581      2.03762027090290
