13
Coordinates from ORCA-job run
  C   0.56198974313077      0.28425018249180      0.04454461719555
  C   -0.60282291524178     -0.49276011457175     -0.00468388272108
  N   1.71374858544245     -0.23013828757042     -0.46437124744138
  H   2.46623605164848      0.39906162739517     -0.68865037927246
  H   1.63932489793937     -1.04512656850349     -1.05210159219329
  N   0.63357738286835      1.47216991107581      0.66458868862125
  H   1.44457241548899      2.05500837021744      0.55097078118379
  H   -0.24087442892942      1.87866675783878      0.96399428979610
  N   -1.86235914838461     -0.06749103019553      0.51133533347620
  O   -1.94204803232160      1.04916582246016      1.05360144744290
  O   -2.81161386369795     -0.83987761415168      0.39511026737736
  C   -0.57553806306247     -1.72963680450472     -0.68961315941792
  N   -0.42419262488058     -2.73429225198156     -1.28572516404702
