13
Coordinates from ORCA-job run
  C   0.53883703727032      0.28945124966170      0.09735084065164
  C   -0.72801373743223     -0.25887550363631      0.09010139909821
  N   1.31227459859330      0.23665753545335      1.23182137433539
  H   0.91133412528191     -0.27261864925131      2.00502490881060
  H   2.28961275147764      0.03242666607730      1.08664748073404
  N   1.05851655530096      1.00187870078040     -0.93123621193208
  H   0.68670560510416      0.86472401419143     -1.85623760469239
  H   2.02580413173180      1.27240745053107     -0.87686286895022
  N   -1.56713356500655     -0.20304561278007     -1.08652864751116
  O   -1.60730305168665      0.85609443208814     -1.72019506880993
  O   -2.17655971585895     -1.22706982175942     -1.38899860654074
  C   -1.20761303249400     -1.00360829849768      1.19044908702497
  N   -1.53646170228171     -1.58742216285859      2.15866391778168
