13
Coordinates from ORCA-job run
  C   0.61791938047888      0.13150648613734      0.02904444159746
  C   -0.72805055705174     -0.22612869209632      0.06818241466146
  N   1.34758958415663      0.15338934456608      1.18307895805170
  H   0.89646254742106     -0.20394702953952      2.01158512098364
  H   2.32067858424969     -0.09399607878208      1.09648671303430
  N   1.28499906133162      0.46277396124363     -1.09657923659765
  H   0.70744175674480      0.58686913624609     -1.91660692955934
  H   2.08320692835676      1.06799118259440     -0.99202263013905
  N   -1.62722727520875     -0.06817231067545     -1.03511201303082
  O   -2.81419520441433     -0.31425853277091     -0.83290516054441
  O   -1.17116497533918      0.29461439548141     -2.13127784088016
  C   -1.28637175326669     -0.70253567239170      1.27926216794552
  N   -1.63128807745876     -1.08910619001297      2.33686399447735
