13
Coordinates from ORCA-job run
  C   0.62448506076374     -0.03608540585618     -0.00889322067332
  C   -0.77102007795613     -0.12470379673677      0.08529897260263
  N   1.27759075076835      0.23313698051187     -1.15498463600901
  H   0.69789141096032      0.52890969239078     -1.92814125050676
  H   2.22467173414755      0.56748834906860     -1.10757344733679
  N   1.37132863350491     -0.32643036204212      1.08098581211483
  H   0.93356289477980     -0.41718709437154      1.98202573971330
  H   2.37004983393412     -0.22285159479319      1.05450480844087
  N   -1.66024345391920      0.23593387446087     -0.96858152621255
  O   -2.86440103453496      0.22881240179529     -0.71762072259280
  O   -1.18622951838564      0.53264194978434     -2.07909054428677
  C   -1.34670520774798     -0.45966016933142      1.33207355855052
  N   -1.67098102631486     -0.73900482488054      2.42899645619585
