13
Coordinates from ORCA-job run
  C   0.62939249057693      0.04942684800143      0.02276018184230
  C   -0.75817559966836     -0.05046837885255      0.09656896501734
  N   1.30336057333760      0.51172852479849     -1.05197106908116
  H   0.74382097747774      0.64639980725199     -1.88287322173110
  H   2.24606298174912      0.17881960271029     -1.17452073491907
  N   1.39447157097690     -0.32830809455748      1.08881513087858
  H   0.90532464783460     -0.56001060429127      1.93985478978313
  H   2.24914445667433      0.18808283565250      1.22520287285807
  N   -1.62996479447331      0.10881059914663     -1.02807052310220
  O   -1.14727574483834      0.47116096395062     -2.11281524351879
  O   -2.82477730808266     -0.11646565220686     -0.84942816042902
  C   -1.36468372664705     -0.40338095431640      1.32663716838643
  N   -1.74870052491751     -0.69579549728739      2.40083984401549
