13
Coordinates from ORCA-job run
  C   0.58064128014390      0.24289462752889      0.01532401609261
  C   -0.65793103677993     -0.38583770229614     -0.08936704668992
  N   1.72518218987971     -0.45730402176817     -0.24322159802091
  H   1.61122915264738     -1.37898777590971     -0.63752543098697
  H   2.47769778507571      0.07591730990378     -0.64940702727443
  N   0.75012087365653      1.53744375772076      0.35759609659128
  H   -0.08155109168197      2.01020210770680      0.68279676660933
  H   1.62950217647804      1.78917711931517      0.77935955525318
  N   -1.88603980669654      0.19453163961512      0.36710468772510
  O   -2.88716554474934     -0.51661307273460      0.34079979824817
  O   -1.88090348532103      1.37166919068261      0.76123420228334
  C   -0.72837519942356     -1.70172677855038     -0.60933908773681
  N   -0.65440729322890     -2.78136640121412     -1.07435493209397
