13
Coordinates from ORCA-job run
  C   0.61600861106034      0.13822610309209      0.03359027356595
  C   -0.73934635766520     -0.18158150953122      0.08136410244560
  N   1.45109170512000     -0.30200329229928      1.01991336796282
  H   1.01973975930755     -0.75322621589063      1.81223444863174
  H   2.22295897479916      0.30315704338828      1.25106452990075
  N   1.18916907589578      0.87962558131410     -0.93794721719826
  H   0.59757004585592      1.07169467905890     -1.73477939682068
  H   2.16843632045403      0.72223141718804     -1.11276828363781
  N   -1.64966298339714      0.03989028095342     -1.00144756355143
  O   -1.24971582380324      0.65475450168075     -2.00298791208284
  O   -2.79380159005891     -0.38916531553292     -0.87096306363604
  C   -1.26035644195045     -0.82824149721730      1.22857608590680
  N   -1.57309129561782     -1.35536177620423      2.23415062851341
