13
Coordinates from ORCA-job run
  C   0.59980348409777      0.18966701695293      0.06240463495503
  C   -0.72439405114355     -0.24391768867544      0.04883046418065
  N   1.43616611728880     -0.21811353831994      1.06129244945280
  H   1.01982049760543     -0.73597222280387      1.82012885778441
  H   2.14587543672110      0.43946258429647      1.34284640762936
  N   1.13962087478310      1.01520035226375     -0.85913338164123
  H   2.13413566271473      0.94922914541176     -1.00328834314923
  H   0.55972000366500      1.19156328775086     -1.66798373222591
  N   -1.61214466949550     -0.05799985606692     -1.05909895550744
  O   -2.71680617351366     -0.59209864189088     -0.99009439151743
  O   -1.23508364330027      0.63378228107030     -2.01847170063465
  C   -1.22383934427352     -0.98633760894249      1.14637643730608
  N   -1.52287419514943     -1.58546511104655      2.11519125336756
