13
Coordinates from ORCA-job run
  C   0.59547710013167      0.20286336591823      0.06676201432376
  C   -0.71881937741273     -0.25939163975337      0.04477385559647
  N   1.44145629668199     -0.20616573120201      1.05729579377331
  H   2.13391070053508      0.46340676104225      1.35357986346866
  H   1.03725907305208     -0.74996343041740      1.80462754189114
  N   1.11691553760450      1.05753841875945     -0.83889484131803
  H   2.11216904946255      1.01328587722545     -0.98627110250519
  H   0.53186391225392      1.23578996157131     -1.64380481152855
  N   -1.61061735177703     -0.07362621511942     -1.06005656439865
  O   -1.24936343456268      0.64428862406677     -2.00626369572869
  O   -2.70257461981139     -0.63435020356766     -1.00185211233262
  C   -1.20118154891107     -1.03429828448840      1.12753954340291
  N   -1.48549533724690     -1.66037750403520      2.08356451535549
