13
Coordinates from ORCA-job run
  C   0.58733379863284      0.22762503539190     -0.05817340926498
  C   -0.75012970954063     -0.15638331990161      0.05923220239177
  N   1.54578575523096     -0.53388529809637     -0.61588882225646
  H   1.29017959110922     -1.48973573901318     -0.82117373253771
  H   2.50787326433648     -0.33428474486655     -0.39645413596592
  N   0.96924185764353      1.44144683577155      0.42608240950293
  H   1.77014548358035      1.89088231682562      0.01695873161110
  H   0.23773190622107      2.07534239983577      0.71104425675710
  N   -1.23273074031399     -1.46549627195414     -0.24273719736803
  O   -2.42175562774576     -1.69650605587526     -0.03460926983690
  O   -0.44102172711414     -2.29888012185259     -0.71791915548108
  C   -1.68387509634294      0.75096021679744      0.61385148222602
  N   -2.37877875569699      1.58991474693740      1.06078664022215
