13
Coordinates from ORCA-job run
  C   0.56851078893209      0.26157780835094      0.07736060833163
  C   -0.73864472583068     -0.24078421274993      0.06228312114182
  N   1.28701421863113      0.18479023195690      1.22961972581793
  H   2.28534996180182      0.29554707335095      1.18160776783767
  H   0.95176489497468     -0.43595830161199      1.94902810139678
  N   1.11998377270191      0.92368386744539     -0.95306215329643
  H   2.10817362295851      1.10645940401796     -0.95979612649521
  H   0.61235017441433      0.89131055310553     -1.82608102674699
  N   -1.58488262126282     -0.21879413801731     -1.08452881620971
  O   -2.69647963905165     -0.73306602284690     -0.97678221213235
  O   -1.16921731074182      0.31557067419354     -2.12774906283515
  C   -1.23033167106177     -0.90954012386373      1.20774510782672
  N   -1.51359146646573     -1.44079681333134      2.22035496536327
