13
Coordinates from ORCA-job run
  C   0.60475352802248      0.17539082853610      0.05744820802646
  C   -0.71099054206567     -0.28229497500735      0.02639209489737
  N   1.34518123531643      0.03291038548648      1.19600318005000
  H   0.93358802168403     -0.51112863600985      1.93889043601796
  H   2.33335892225868     -0.11665502808983      1.06635556161920
  N   1.23052488204059      0.76132534048733     -0.98469935596970
  H   1.98965839398656      1.38676592935289     -0.76916512859606
  H   0.63502877009715      0.99501122286269     -1.76711633654076
  N   -1.62896396963902     -0.00040854042515     -1.03522122551872
  O   -2.78656817118407     -0.38954920815778     -0.89648477207072
  O   -1.21689843449365      0.60498569483093     -2.03769672984981
  C   -1.21523686388387     -1.02408316861148      1.12228633505171
  N   -1.51343577213966     -1.63326984525497      2.08500773288306
