13
Coordinates from ORCA-job run
  C   0.59564430043912      0.20005357172336      0.07206280601581
  C   -0.72166309773975     -0.25263348828705      0.03619969301547
  N   1.40138112437480     -0.14122009745872      1.12047662881679
  H   0.96362058481181     -0.62283163525972      1.89106733054992
  H   2.08823334622530      0.54424338617527      1.39251779104116
  N   1.15742430239125      0.98128001900594     -0.87405551915588
  H   0.60472625679718      1.10659952582302     -1.71083780816309
  H   2.15769509574951      0.92705408519336     -0.97675404970737
  N   -1.57281517342982     -0.13913227801170     -1.10963482562873
  O   -1.16798980185864      0.49954191311394     -2.09414506102359
  O   -2.67411167653161     -0.68087512503979     -1.04829228085216
  C   -1.25199499327419     -0.93812388782559      1.15614046886807
  N   -1.58015026795496     -1.48495598915231      2.14625482622361
