13
Coordinates from ORCA-job run
  C   0.59415741187059      0.20062974222387      0.07759047881532
  C   -0.68807953143952     -0.33689221501656     -0.01513658619367
  N   1.33259624348224      0.00031296823492      1.20814986069287
  H   2.32995176321497     -0.06779706165952      1.08086376439523
  H   0.95220622303831     -0.63198089383338      1.89553747325936
  N   1.18924010325351      0.92153202505262     -0.89600893655639
  H   1.89731950833085      1.57802267850509     -0.60998433183325
  H   0.58572271730447      1.18648706660154     -1.66243028407400
  N   -1.61910573611877     -0.00193080414510     -1.04996732116021
  O   -2.75965410345745     -0.44780707939688     -0.94693111619943
  O   -1.23338908197889      0.70330006216142     -1.99623575885181
  C   -1.15535854351936     -1.19971986511611      1.00595131524635
  N   -1.42560697398096     -1.90615662361192      1.90860144245965
