13
Coordinates from ORCA-job run
  C   0.62883844273723      0.06669842169692      0.00950062415714
  C   -0.74447845699604     -0.15619835830355      0.08633536787928
  N   1.40082989145868     -0.06760552434886      1.12776124929633
  H   0.94941903110838     -0.44067515288550      1.94897787815526
  H   2.34041400355663     -0.40070312820291      0.98016060405368
  N   1.28150405084847      0.41044471234490     -1.12053950873185
  H   0.68781842657018      0.65025764614090     -1.90265087665375
  H   2.14324247282644      0.92056311097667     -1.01371329958449
  N   -1.66458100573431      0.16848452300111     -0.96154263912211
  O   -1.21649259789427      0.56063305179357     -2.05082437703828
  O   -2.86173538249449      0.02737670406488     -0.72251216882566
  C   -1.30130302511558     -0.65762093893533      1.28799510189147
  N   -1.64347585087133     -1.08165506734282      2.33205204452298
