13
Coordinates from ORCA-job run
  C   0.58987680611949      0.21682939257852      0.07038941999010
  C   -0.68523982960220     -0.34146494393496      0.00758268907953
  N   1.28984854540638      0.17850523176306      1.24220296266992
  H   0.88910103322451     -0.36393175181457      1.99238025356493
  H   2.29086965485669      0.09801801943780      1.15776414629156
  N   1.21424115339174      0.80659870592194     -0.97079535389482
  H   0.63617400655206      0.96130129621428     -1.78530784894840
  H   1.90834330809645      1.50244405052237     -0.75145889906760
  N   -1.58147549661079     -0.15948805737127     -1.09419053770289
  O   -2.71956152582388     -0.60712398690511     -0.97329053235980
  O   -1.17031381562270      0.42433050490034     -2.10971910916536
  C   -1.18230007163946     -1.06611542025323      1.11810415670572
  N   -1.47956376834827     -1.64890304105918      2.09733865283710
