13

C	-0.527485	-0.02792	-1.439109
C	0.0	0.0	0.0
F	-0.096966	-1.189593	-2.03591
H	1.091327	0.0	0.0
H	-1.619423	-0.027919	-1.44226
C	-0.057644	1.137145	-2.203548
N	0.232008	2.079681	-2.83992
C	-0.534254	-1.139101	0.734022
N	-0.996021	-2.055508	1.3054
N	-0.522626	1.25906	0.64541
O	-1.730992	1.470812	0.508252
O	0.269388	1.9683	1.248893
Cl	3.172864	0.0	0.0
