13

C	-0.442281	0.011873	-1.45109
C	0.0	0.0	0.0
F	-1.819619	0.166905	-1.542186
H	1.094684	0.0	0.0
H	0.02842	0.864532	-1.943309
C	-0.068026	-1.236776	-2.125823
N	0.187183	-2.248003	-2.663791
C	-0.559144	-1.111951	0.746997
N	-0.98596	-2.046733	1.31523
N	-0.403021	1.307647	0.628937
O	-0.250541	2.310387	-0.06238
O	-0.79711	1.285793	1.79122
Cl	3.113495	0.0	0.0
