13

C	-0.473348	-0.019804	-1.442367
C	0.0	0.0	0.0
F	-1.859414	0.025315	-1.506154
H	1.093275	0.0	0.0
H	-0.085817	0.861442	-1.953035
C	-0.034119	-1.244621	-2.121451
N	0.211549	-2.234104	-2.701409
C	-0.537294	-1.105743	0.775682
N	-0.990913	-2.003987	1.381586
N	-0.383497	1.307187	0.638147
O	-0.575029	2.262398	-0.10908
O	-0.40232	1.334346	1.862081
Cl	3.126452	0.0	0.0
