13

C	-0.522409	-0.011974	-1.44253
C	0.0	0.0	0.0
F	-0.116401	-1.179144	-2.042734
H	1.091241	0.0	0.0
H	-1.614777	0.014201	-1.448931
C	-0.020235	1.146559	-2.196708
N	0.298212	2.08744	-2.821515
C	-0.544967	-1.138436	0.72437
N	-0.988409	-2.060554	1.300952
N	-0.521733	1.270356	0.6271
O	0.283136	2.026727	1.151933
O	-1.740413	1.444347	0.54791
Cl	3.188136	0.0	0.0
