13

C	-0.523661	-0.029369	-1.440724
C	0.0	0.0	0.0
F	-0.083518	-1.186802	-2.038521
H	1.091346	0.0	0.0
H	-1.615635	-0.036825	-1.447503
C	-0.060572	1.141316	-2.200961
N	0.221819	2.087412	-2.835177
C	-0.538102	-1.134835	0.736907
N	-1.001335	-2.050142	1.308856
N	-0.520055	1.262995	0.638648
O	-1.726276	1.481726	0.493249
O	0.271975	1.970432	1.245044
Cl	3.173328	0.0	0.0
