13

C	-0.517358	-0.017095	-1.445506
C	0.0	0.0	0.0
F	-0.113394	-1.185941	-2.044576
H	1.091248	0.0	0.0
H	-1.609372	0.010005	-1.453346
C	-0.013249	1.139471	-2.200881
N	0.308283	2.079695	-2.826087
C	-0.545615	-1.135971	0.728079
N	-0.984129	-2.058318	1.308143
N	-0.522854	1.263898	0.639384
O	-1.744515	1.426096	0.582539
O	0.283106	2.03242	1.14233
Cl	3.184428	0.0	0.0
