19

C	-0.293775	-0.019504	-1.45452
C	0.011166	-0.073395	0.04853
F	-1.68791	0.216923	-1.608425
H	1.081585	-0.272137	0.129785
N	0.43352	1.091102	-1.960318
H	0.516085	0.998308	-2.968338
H	1.41854	1.027213	-1.56699
C	-0.023822	-1.332015	-2.16998
H	-0.222671	-1.183616	-3.235715
H	1.027739	-1.593303	-2.03421
H	-0.657317	-2.144207	-1.809572
N	-0.70448	-1.23293	0.65793
O	-1.831662	-1.053479	1.12314
O	-0.127482	-2.324033	0.652317
C	-0.353222	1.206732	0.768287
H	-1.382145	1.492065	0.555406
H	0.323715	1.985365	0.420973
H	-0.229183	1.081166	1.847255
H	2.796304	0.623588	-0.828991
