19

C	-0.291662	-0.020644	-1.456229
C	0.007882	-0.075052	0.047868
F	-1.684745	0.220221	-1.61495
H	1.07762	-0.275726	0.132849
N	0.440738	1.087368	-1.959946
H	0.527214	0.994244	-2.967561
H	1.423773	1.022932	-1.561832
C	-0.02434	-1.33435	-2.170498
H	-0.662983	-2.143625	-1.812562
H	-0.218453	-1.185114	-3.236975
H	1.025365	-1.600722	-2.030476
N	-0.712331	-1.232833	0.654621
O	-1.840767	-1.050918	1.115868
O	-0.13774	-2.325248	0.651064
C	-0.355761	1.206184	0.766036
H	0.325655	1.982336	0.421932
H	-0.237057	1.080034	1.845544
H	-1.382681	1.495206	0.548553
H	2.797556	0.622022	-0.81323
