19

C	-0.259723	-0.030082	-1.46754
C	-0.005236	-0.094955	0.057322
F	-1.650208	0.131561	-1.643443
H	1.059347	-0.315085	0.16026
N	0.402783	1.088133	-2.060323
H	1.404799	1.028951	-1.734803
H	0.022326	1.936095	-1.650416
C	0.166159	-1.292859	-2.179307
H	-0.027682	-1.14935	-3.242999
H	-0.374465	-2.166957	-1.815925
H	1.238918	-1.429671	-2.022762
N	-0.767416	-1.230452	0.651672
O	-0.235089	-2.34436	0.642988
O	-1.894928	-1.010693	1.101163
C	-0.343682	1.192064	0.780103
H	0.445638	1.912061	0.562232
H	-0.36181	1.027785	1.859669
H	-1.31647	1.578572	0.474017
H	2.766985	0.676494	-0.809551
