11

C	-0.368931	0.094031	-1.482151
C	0.0	0.0	0.0
Cl	-0.038246	-1.436279	-2.333354
H	1.096038	0.0	0.0
H	-1.420491	0.334867	-1.6411
H	0.276406	0.856849	-1.923799
C	-0.531311	-1.169586	0.671728
N	-0.905115	-2.131277	1.237132
C	-0.435666	1.216901	0.665697
N	-0.786792	2.221056	1.168083
H	2.523394	0.0	0.0
