12
Coordinates from ORCA-job run
  C   0.78920329936319      0.60531733622693     -0.14926733428888
  C   -0.14264913690889     -0.60043136982464     -0.03098822668776
  Br  0.95884737465834      1.56037056704705      1.55192495946384
  H   0.25436505486190     -1.27360392001554      0.73360482469834
  H   0.38351651080378      1.33939325871420     -0.84964107099735
  H   -0.08881394086550     -1.13203710264738     -0.98792699180703
  C   2.12134140389427      0.21488017964072     -0.59406439992304
  N   3.18150055169655     -0.10750734833423     -0.98391188614592
  C   -1.58592694958746     -0.21977042483947      0.27202685611595
  H   -1.98152774304128      0.45843873769371     -0.48864823871113
  H   -1.67476923534200      0.26686546023136      1.24372687324788
  H   -2.21508718953289     -1.11191537389271      0.28316463503509
