12
Coordinates from ORCA-job run
  C   0.88851694736069      0.73829780077383     -0.11216282725905
  C   -0.56534497851126      0.40715460149929     -0.45109032548399
  Br  1.06045605080650      1.46145502822959      1.70040662537980
  H   -1.15148589551392      1.32175655875414     -0.32395514816802
  H   1.26253954263442      1.53045483422987     -0.76341049865803
  H   -0.58617386694821      0.15446659414514     -1.51793409746319
  C   1.75686817707788     -0.42598415292923     -0.23982682755467
  N   2.42485063829974     -1.38312440965326     -0.37387865485461
  C   -1.15507387319854     -0.73316995482278      0.36766531165726
  H   -0.58463241651542     -1.65429164768105      0.23052214470438
  H   -1.16779240124351     -0.49168954545818      1.43120328863529
  H   -2.18272792424837     -0.92532570708736      0.05346100906483
