16

C	0.0	0.0	0.0
C	-0.360038	0.24056	-1.502935
Cl	1.796974	0.0	0.0
H	0.549636	0.668016	-1.936595
N	-0.343747	1.178533	0.913461
O	-0.30235	2.281219	0.389012
O	-0.496085	0.926032	2.097635
C	-0.445878	-1.253594	0.588165
N	-0.5167	-2.348333	1.016813
C	-1.380008	1.2315	-1.867961
N	-1.945666	2.053683	-2.49383
C	-0.622605	-1.097355	-2.199668
H	-1.549986	-1.523305	-1.818489
H	0.205488	-1.790076	-2.024209
H	-0.718582	-0.926353	-3.275014
Cl	-2.939064	0.0	0.0
