16

C	0.0	0.0	0.0
C	-0.375934	0.348804	-1.481417
Cl	1.769391	0.0	0.0
H	0.531834	0.799093	-1.893333
N	-0.358294	1.100414	1.001789
O	-0.509028	0.752734	2.16147
O	-0.320523	2.241995	0.569516
C	-0.45868	-1.293894	0.487288
N	-0.546106	-2.416261	0.830028
C	-1.389095	1.374233	-1.752036
N	-1.942123	2.266571	-2.28513
C	-0.665566	-0.928431	-2.272131
H	-1.597206	-1.363696	-1.914897
H	-0.764944	-0.674905	-3.329953
H	0.151754	-1.644936	-2.158238
Cl	-2.964844	0.0	0.0
