16

C	0.0	0.0	0.0
C	-0.364345	0.149129	-1.513766
Cl	1.796316	0.0	0.0
H	0.54376	0.547541	-1.975537
N	-0.34554	1.225403	0.844909
O	-0.296828	2.298156	0.262118
O	-0.502836	1.038716	2.040407
C	-0.443735	-1.218004	0.660344
N	-0.532044	-2.276985	1.16642
C	-1.37809	1.127928	-1.918284
N	-1.933527	1.94331	-2.560604
C	-0.641565	-1.222878	-2.130458
H	0.18204	-1.910435	-1.920452
H	-0.739169	-1.11287	-3.212274
H	-1.570837	-1.616219	-1.720228
Cl	-2.95325	0.0	0.0
