16

C	0.0	0.0	0.0
C	-0.561598	0.073399	-1.426801
Cl	1.784365	0.0	0.0
H	-1.656042	0.159827	-1.252753
N	-0.409597	1.200613	0.87437
O	-0.333437	1.018619	2.080453
O	-0.690352	2.243061	0.30601
C	-0.428174	-1.213919	0.693231
N	-0.630099	-2.241897	1.227473
C	-0.298084	-1.213509	-2.067583
N	-0.061003	-2.208583	-2.646201
C	-0.036316	1.191062	-2.33272
H	-0.302243	2.165031	-1.932555
H	-0.506863	1.07463	-3.311516
H	1.045646	1.126292	-2.46284
Cl	-3.398948	0.0	0.0
