12
Coordinates from ORCA-job run
  C   -0.12767394502574      0.11114824307953      0.35598661168216
  C   1.26021898240117      0.44891128654256     -0.11428905203224
  Br  -0.50440019562150      0.79395488709326      2.09937096755883
  H   1.39578536323350      0.08086305204603     -1.13115341736976
  H   1.40372467548428      1.52719364849507     -0.09689428273149
  H   1.98282379378391     -0.02411823622951      0.55289583658055
  N   -1.20197634458679      0.65373758614995     -0.58791394931865
  O   -2.31180182813606      0.15448962225403     -0.47576504058797
  O   -0.86155768619660      1.55214308123938     -1.34502359117207
  N   -0.31682082985439     -1.40987172681020      0.28746982013466
  O   -0.24700096848318     -1.84204392697533     -0.85732697507024
  O   -0.47132101699860     -2.04640751688477      1.31464307232623
