12
Coordinates from ORCA-job run
  C   -0.12053324793055      0.12235362192208      0.35453373181314
  C   1.26851628319894      0.41718443379384     -0.14079788897221
  Br  -0.45806542641241      0.85315401808798      2.08664538140302
  H   1.98854286717865     -0.05857177542818      0.52724774493423
  H   1.43741752862656      1.49188718056574     -0.14838933784599
  H   1.38207570373179      0.02436924906584     -1.15105282373613
  N   -1.19431064056176      0.66746999725459     -0.58762721563760
  O   -2.31376069923348      0.19689009446100     -0.44942599416866
  O   -0.84366206043320      1.53947768058786     -1.37064041498385
  N   -0.34470835261950     -1.39503120575537      0.32404528711145
  O   -0.29892686357638     -1.85507738529689     -0.81111703376398
  O   -0.50058509196866     -2.00410590925851      1.36757856384657
