12
Coordinates from ORCA-job run
  C   -0.08993813349300      0.09861493578291      0.37045022874738
  C   1.26495554792366      0.48830252877951     -0.14510244140065
  Br  -0.36043104784950      0.65209284035585      2.17749638161421
  H   2.02923781293646      0.02605839194850      0.47977018570217
  H   1.38623193814632      0.15948954690042     -1.17309214378784
  H   1.36654060623210      1.57238218030834     -0.09302630479349
  N   -1.21798085056658      0.66365338323376     -0.52064374868115
  O   -2.34354439218389      0.69545912705175     -0.04922950715060
  O   -0.87949943718718      0.97546033953967     -1.65720080600856
  N   -0.32340912389223     -1.42368151785228      0.25254978440198
  O   0.39615579297579     -2.00169362180897     -0.55472127133201
  O   -1.22831871304194     -1.90613813423946      0.91474964268855
