17

C	0.0	0.0	0.0
C	-0.350274	-0.208052	-1.503622
Br	1.938406	0.0	0.0
H	0.411266	0.413091	-1.985849
C	-0.501602	1.334452	0.501011
H	-0.161825	2.121492	-0.17675
H	-0.121739	1.531222	1.501891
H	-1.596397	1.288873	0.505326
N	-0.442619	-1.093231	0.96232
O	-0.871405	-2.145612	0.510542
O	-0.296603	-0.835555	2.151131
C	-1.59	0.405396	-2.046995
N	-2.233253	0.894334	-2.90525
N	-0.116025	-1.559972	-1.986327
H	-0.861876	-2.156555	-1.650893
H	-0.166162	-1.529936	-2.998823
Cl	-3.571094	0.0	0.0
