17

C	0.0	0.0	0.0
C	-0.411498	-0.009814	-1.512354
Br	1.942691	0.0	0.0
H	0.237443	-0.748345	-1.990684
C	-0.620453	1.095419	0.819327
H	-1.709932	0.969609	0.780962
H	-0.294064	1.03983	1.856086
H	-0.34552	2.063424	0.398035
N	-0.363082	-1.367101	0.581019
O	-0.312247	-2.326979	-0.183244
O	-0.626165	-1.418821	1.77535
C	-0.047467	1.305702	-2.071093
N	0.240339	2.348309	-2.528572
N	-1.763923	-0.33311	-1.850398
H	-1.929035	-1.319101	-1.698078
H	-2.486125	0.153711	-1.313476
Cl	-4.265321	0.0	0.0
