17

C	0.0	0.0	0.0
C	-0.392481	0.330922	-1.482941
Br	1.942726	0.0	0.0
H	0.263248	-0.285629	-2.104289
C	-0.649365	0.866692	1.037882
H	-1.735527	0.735542	0.943987
H	-0.388306	1.910738	0.860484
H	-0.342336	0.573914	2.03984
N	-0.343445	-1.470278	0.257531
O	-0.356901	-2.220617	-0.714135
O	-0.523182	-1.806153	1.420863
C	-0.019249	1.737081	-1.727352
N	0.255616	2.860769	-1.928968
N	-1.738588	0.102007	-1.91221
H	-2.463048	0.472888	-1.293596
H	-1.910847	-0.893531	-1.962132
Cl	-4.218731	0.0	0.0
