17

C	0.0	0.0	0.0
C	-0.396776	0.029743	-1.51799
Br	1.942804	0.0	0.0
H	0.239097	-0.715826	-2.003164
C	-0.636579	1.070239	0.836931
H	-1.723182	0.9153	0.806123
H	-0.394042	2.04949	0.421276
H	-0.297275	1.017933	1.869692
N	-0.364134	-1.377752	0.549318
O	-0.569823	-1.462508	1.753149
O	-0.367834	-2.313945	-0.245455
C	0.004345	1.347061	-2.04674
N	0.3017	2.396898	-2.480592
N	-1.752874	-0.24816	-1.88055
H	-1.947952	-1.233934	-1.760912
H	-2.462905	0.238553	-1.328521
Cl	-4.238943	0.0	0.0
