17

C	0.0	0.0	0.0
C	-0.330187	-0.096861	-1.516415
Br	1.938123	0.0	0.0
H	0.253604	0.745019	-1.905985
C	-0.516019	1.257781	0.655593
H	-0.088336	1.354782	1.651415
H	-0.246645	2.118028	0.04158
H	-1.604498	1.188662	0.718209
N	-0.443743	-1.202838	0.819012
O	-0.46497	-1.060173	2.031974
O	-0.705902	-2.242554	0.224339
C	-1.696701	0.168508	-2.05761
N	-2.329044	0.355217	-3.036347
N	0.228157	-1.292656	-2.147532
H	-0.363407	-2.076599	-1.902439
H	0.147659	-1.152228	-3.148177
Cl	-3.5302	0.0	0.0
