17

C	0.0	0.0	0.0
C	-0.630423	0.126933	-1.409176
Br	1.930534	0.0	0.0
H	-1.626096	-0.327542	-1.298973
C	-0.491955	1.048413	0.971581
H	-0.161653	2.032424	0.638313
H	-1.584911	1.000611	0.996556
H	-0.084939	0.853219	1.961365
N	-0.33838	-1.39243	0.554129
O	-0.390222	-1.516657	1.770323
O	-0.464397	-2.29361	-0.267741
C	0.12768	-0.596005	-2.437403
N	0.725032	-1.098541	-3.314096
N	-0.861354	1.483232	-1.863981
H	-1.679013	1.839858	-1.378511
H	-0.061097	2.078884	-1.694097
Cl	-3.604331	0.0	0.0
