17

C	0.0	0.0	0.0
C	-0.368344	-0.017433	-1.597867
Br	1.932901	0.0	0.0
H	-1.421047	-0.069752	-1.811537
C	-0.38819	1.299018	0.835474
H	0.037036	2.203932	0.329042
H	-0.007597	1.142263	1.831349
H	-1.43879	1.517123	0.97055
N	-0.317185	-1.573189	0.638685
O	-1.387576	-2.210915	0.4397
O	0.59955	-2.080846	1.403644
C	0.041111	-1.285396	-2.247392
N	0.368864	-2.278563	-2.789938
N	0.015855	1.239223	-2.204378
H	0.98549	1.282459	-2.444188
H	-0.57565	1.383393	-3.02262
Cl	-2.616251	0.0	0.0
