17

C	0.0	0.0	0.0
C	-0.384141	-0.198483	-1.483782
F	1.389967	0.0	0.0
H	0.064088	0.648536	-2.017332
C	-0.40311	1.354308	0.426545
N	-0.64586	2.448918	0.774991
C	-0.556457	-1.054742	0.925815
H	-1.648198	-0.979135	0.948893
H	-0.260096	-2.044438	0.57213
H	-0.163745	-0.900689	1.932544
C	-1.885867	-0.253028	-1.753466
H	-2.062389	-0.136376	-2.824641
H	-2.427134	0.533478	-1.227763
H	-2.331483	-1.186646	-1.418439
C	0.2885	-1.405784	-1.976094
N	0.794842	-2.379931	-2.392657
Cl	-4.65008	0.0	0.0
