17

C	0.0	0.0	0.0
C	-0.529638	-0.398088	-1.386319
F	1.389224	0.0	0.0
H	-1.614363	-0.201222	-1.350761
C	-0.37579	1.402721	0.282838
N	-0.583528	2.540389	0.487413
C	-0.481368	-0.914268	1.109275
H	-0.172762	-0.496459	2.068825
H	-0.022683	-1.896756	0.989618
H	-1.5717	-0.986051	1.075985
C	-0.291981	-1.873441	-1.716835
H	0.75621	-2.147051	-1.575115
H	-0.562938	-2.062336	-2.757553
H	-0.924462	-2.500495	-1.088662
C	0.080136	0.45754	-2.408061
N	0.575686	1.116711	-3.246114
Cl	-3.600366	0.0	0.0
