17

C	0.0	0.0	0.0
C	-0.536005	-0.395828	-1.382629
F	1.389138	0.0	0.0
H	-1.62039	-0.193186	-1.336486
C	-0.37296	1.40429	0.279778
N	-0.573795	2.542989	0.486615
C	-0.481504	-0.909757	1.111326
H	-0.159045	-0.498924	2.068665
H	-0.036367	-1.898175	0.986946
H	-1.572709	-0.96717	1.081393
C	-0.308482	-1.872792	-1.712393
H	-0.584138	-2.062477	-2.750302
H	-0.941983	-2.495072	-1.079459
H	0.739833	-2.151079	-1.575708
C	0.074257	0.45431	-2.407009
N	0.571523	1.106554	-3.248162
Cl	-3.633184	0.0	0.0
