17

C	0.0	0.0	0.0
C	-0.351498	0.128871	-1.503364
F	1.389866	0.0	0.0
H	0.275075	0.956639	-1.858772
C	-0.393629	1.244748	0.690926
N	-0.620463	2.248131	1.257005
C	-0.579908	-1.210596	0.686716
H	-0.272155	-2.11626	0.160826
H	-0.224809	-1.253151	1.718114
H	-1.672398	-1.13075	0.685483
C	-1.812356	0.416979	-1.834334
H	-1.92064	0.493445	-2.919042
H	-2.133256	1.352672	-1.376815
H	-2.497494	-0.341836	-1.462278
C	0.130759	-1.075405	-2.188653
N	0.505405	-2.031308	-2.758837
Cl	-4.520346	0.0	0.0
