17

C	0.0	0.0	0.0
C	-0.373469	0.213032	-1.488638
F	1.392548	0.0	0.0
H	0.382263	0.917827	-1.857001
C	-0.37003	1.208623	0.765905
N	-0.601729	2.169866	1.398289
C	-0.584557	-1.236317	0.63515
H	-0.264528	-2.121154	0.082374
H	-1.677512	-1.162747	0.614185
H	-0.247844	-1.315658	1.670286
C	-1.771711	0.781136	-1.74454
H	-2.572448	0.22636	-1.248927
H	-1.966924	0.792833	-2.819271
H	-1.81538	1.808933	-1.370529
C	-0.151158	-1.037963	-2.220399
N	0.015799	-2.027544	-2.828044
Cl	-4.539968	0.0	0.0
