17

C	0.0	0.0	0.0
C	-0.546411	-0.394463	-1.378818
F	1.389181	0.0	0.0
H	-1.623599	-0.158687	-1.329929
C	-0.374694	1.404199	0.276481
N	-0.572493	2.545737	0.46717
C	-0.480045	-0.908185	1.112841
H	-1.57242	-0.932651	1.100853
H	-0.065753	-1.907797	0.967989
H	-0.125698	-0.517526	2.068838
C	-0.374503	-1.882336	-1.691884
H	-0.641695	-2.072749	-2.73324
H	0.658146	-2.202806	-1.534224
H	-1.045014	-2.466789	-1.061769
C	0.091995	0.423119	-2.412087
N	0.614234	1.038265	-3.266117
Cl	-3.646116	0.0	0.0
