17

C	0.0	0.0	0.0
C	-0.545387	-0.384251	-1.380664
F	1.389505	0.0	0.0
H	-1.624286	-0.15751	-1.327329
C	-0.373195	1.401933	0.292351
N	-0.560126	2.542298	0.500967
C	-0.479341	-0.917239	1.105822
H	-1.571826	-0.936542	1.098383
H	-0.119156	-0.538125	2.064583
H	-0.071081	-1.91712	0.949633
C	-0.361191	-1.867217	-1.708612
H	-1.023051	-2.464701	-1.083233
H	-0.6301	-2.050471	-2.750953
H	0.674911	-2.17751	-1.556538
C	0.082304	0.447832	-2.40859
N	0.581652	1.078478	-3.264802
Cl	-3.646094	0.0	0.0
