17
Coordinates from ORCA-job run
  C   0.48785383525068     -0.35219536369679      0.16426551632381
  C   -0.94931523401999      0.19998214003847      0.04217043685894
  F   0.58424427072231     -1.46265880832118     -0.66480436844696
  H   -1.11067122347436      0.92471047615629      0.84180984893244
  C   1.57762786202565      0.61493002043357     -0.24859274743653
  H   1.51137282669445      0.84561412958846     -1.31269304689612
  H   1.50279988596873      1.54816870327072      0.31343860277254
  H   2.54964226300438      0.15703001869388     -0.05361579008635
  N   0.58541078391723     -0.86987618295377      1.51605313297225
  H   0.78438538101997     -0.11421180478389      2.16208991856460
  H   1.36034616082819     -1.52301270910330      1.55369523394267
  N   -1.98722955467440     -0.78644021453277      0.04751424253316
  H   -1.95452211453746     -1.25669196527461      0.94453221171023
  H   -1.78209268726785     -1.47258252844440     -0.66983209195860
  N   -1.04892797850814      0.98869954431401     -1.22741108836829
  O   -0.87576258060274      2.20373237561038     -1.14741177596301
  O   -1.23716189634665      0.35280216900494     -2.26020823545477
