17
Coordinates from ORCA-job run
  C   0.55057111933854     -0.23947240443576      0.38785594228540
  C   -0.83474180921476     -0.22078736118355     -0.26927939662017
  F   0.34919078213236     -0.86053853922348      1.64380411829915
  H   -1.18492406263258     -1.24329869197048     -0.41361913080394
  C   1.50432982900112     -1.11331657934896     -0.39407830775519
  H   2.47015804909149     -1.13941252894366      0.11640170175482
  H   1.63187179565476     -0.72364397943935     -1.40216389303011
  H   1.11929916561946     -2.13252171186448     -0.44137374788671
  N   1.05637766542913      1.07623139391634      0.52666986358337
  H   2.00821553351986      1.06294182985170      0.86776097536078
  H   0.47587747803680      1.63473289935228      1.13979691208725
  N   -0.79830978253369      0.50054573233628     -1.48416952121086
  H   -1.69752113470924      0.53659848558317     -1.94393381678540
  H   -0.42492115608791      1.42887506537216     -1.33623007189275
  N   -1.82960659487507      0.33615350895694      0.75697395004224
  O   -1.75700887308784      1.54064767604885      1.00505930857831
  O   -2.63885800468241     -0.44673479500801      1.24252511399378
