17
Coordinates from ORCA-job run
  C   0.57969619479121     -0.17032455409902      0.38160229685150
  C   -0.84378197300861     -0.27259221097924     -0.17924834262222
  F   0.47335472883609     -0.60475423657107      1.72476521362512
  H   -1.17499152936383     -1.31106941978986     -0.14996236676006
  C   1.50628220881407     -1.13238634160836     -0.32602741515396
  H   1.56077036352079     -0.89253057643145     -1.38614853766565
  H   2.50209357655050     -1.06692086554369      0.11917330346116
  H   1.14650668984421     -2.15409022458398     -0.19967604922876
  N   1.05728686057728      1.15979556794847      0.29500841886256
  H   2.02910712412243      1.21459884079862      0.56858617958302
  H   0.50138962960411      1.79334264535491      0.85556198201392
  N   -0.90256642660689      0.26332074267576     -1.48568156225830
  H   -0.54569156980588      1.20968962135266     -1.49855560847028
  H   -1.82927856819228      0.21586030288822     -1.88593822077164
  N   -1.78709872896691      0.41167222500537      0.81856941228927
  O   -2.54199926560725     -0.30531761972600      1.46625723395023
  O   -1.73207931510904      1.64070610330866      0.88271406229411
