17
Coordinates from ORCA-job run
  C   0.56414305661313     -0.43253548852895      0.19475200031137
  C   -0.75635880146162      0.36072125234821      0.12133288390125
  F   0.24994605778588     -1.67176123929647     -0.39269060474635
  H   -0.60505822211132      1.35129311120278      0.55264194866205
  C   1.70996279725095      0.16140124190978     -0.59049515959009
  H   1.50350545986149      0.12892958057662     -1.65844911970768
  H   1.89199404202951      1.19912880250210     -0.30525334153354
  H   2.59996824286204     -0.43708798811639     -0.38932899651282
  N   0.93569629975952     -0.66643721978154      1.54577348701373
  H   1.62428003917159     -0.01057041674317      1.88141454454270
  H   0.12793214991131     -0.70418316986429      2.15289032527670
  N   -1.77558156742799     -0.35270381114429      0.80389457839205
  H   -2.63921097914074      0.17122639483695      0.84403579504127
  H   -1.94313242514102     -1.23590424459076      0.33854771503124
  N   -1.08879150891500      0.64285709893802     -1.34297288306787
  O   -0.56279899873352      1.63766291845910     -1.83965233406743
  O   -1.83449564231423     -0.14303682270770     -1.91944083894659
