17
Coordinates from ORCA-job run
  C   0.59104979366952     -0.19060082582985      0.35380100181806
  C   -0.84869558945876     -0.26215749357422     -0.16849469877278
  F   0.52443824059287     -0.69619902313517      1.67429141131218
  H   -1.18064752538067     -1.30068482613718     -0.18568428817591
  C   1.49384378783431     -1.11348018204876     -0.43240495831413
  H   1.51413617466595     -0.81790647262234     -1.47959787489557
  H   2.50371145758074     -1.07023343353672     -0.01721261311986
  H   1.13751009676102     -2.14073860314121     -0.34855781638257
  N   1.06871821434875      1.14243860072326      0.32437294501251
  H   2.04753914635718      1.18059034061872      0.57537122888447
  H   0.53032302022648      1.74351176466389      0.93569979517470
  N   -0.94675220473772      0.34440790527237     -1.44113194314483
  H   -0.58893026919567      1.29008673432008     -1.41371313284904
  H   -1.88521747766339      0.31865497802846     -1.81508217498968
  N   -1.76105439166253      0.36635155128828      0.89340419650608
  O   -1.70012282966281      1.58966081960961      1.02522114392452
  O   -2.49984964427526     -0.38470183449922      1.52071777801185
