17
Coordinates from ORCA-job run
  C   0.47369854866913     -0.47368341384153      0.45421252590628
  C   -0.96605762095618     -0.08937998400340      0.05100829500746
  F   0.45303981406826     -1.88348825569775      0.49807558636838
  H   -1.59741907321134     -0.13797121796287      0.94808808825126
  C   1.49053456820090     -0.10728659532961     -0.60806797804375
  H   1.62183035423676      0.97530553889038     -0.65676429995524
  H   1.17910414098262     -0.47632725289953     -1.58517221787898
  H   2.44777763160860     -0.56188456386474     -0.34185386483873
  N   0.74865360450782     -0.01557377770424      1.77342397433368
  H   0.32900670663045      0.88938368324115      1.93876798240823
  H   1.74504600642807      0.03937878066584      1.94028080081610
  N   -1.38000321787094     -0.86245994871614     -1.07299384118547
  H   -2.35541801883999     -0.70899752040454     -1.28922178053210
  H   -1.22345839111522     -1.84044005460715     -0.87194794970373
  N   -0.98498695362580      1.38370684122852     -0.31753565176065
  O   -0.79638926133643      2.16383656250155      0.61784363996555
  O   -1.18495883837672      1.70588117850407     -1.48014330915829
