17
Coordinates from ORCA-job run
  C   0.47124554661948     -0.45909221924943      0.44565209185964
  C   -1.00305331200563     -0.10295881088792      0.14499663571894
  F   0.38076339250416     -1.86563831769655      0.63748235263126
  H   -1.57056568698763     -0.31213768302296      1.05426572909829
  C   1.42756070311488     -0.26517419082177     -0.70951405627503
  H   1.11550705594603     -0.84651999158373     -1.57655608112525
  H   2.41018664106723     -0.63181446823063     -0.40374921567757
  H   1.50524626215216      0.78543524414729     -0.98956389447281
  N   0.91295749985585      0.15645156924263      1.63181131496398
  H   1.81548791344954      0.59742553997673      1.57810651515621
  H   0.23727905138781      0.72428368055424      2.11747554465191
  N   -1.63212828600210     -0.74840959598027     -0.96786244228550
  H   -1.61145357804694     -1.74834217083745     -0.81424319183533
  H   -1.14397392644539     -0.53295658832628     -1.82775827488031
  N   -1.09579335289772      1.37881949763535     -0.05813569013484
  O   -0.90742450843742      1.79822735846258     -1.19721831960126
  O   -1.31184141527430      2.07240114661818      0.93481098220767
