17
Coordinates from ORCA-job run
  C   0.52833525437356     -0.44256976161591      0.09123705346142
  C   -0.79658147481879      0.35292149642405      0.16172902834089
  F   0.17900492174692     -1.67401627868213     -0.47543669771652
  H   -0.62579786139252      1.27494745972741      0.71753936873388
  C   1.58914168033688      0.18402437643704     -0.78267870427054
  H   2.50144818934837     -0.40697454261947     -0.69129851770582
  H   1.27188913641549      0.17410328545233     -1.82459117411576
  H   1.78726997189509      1.21764001918387     -0.49256739321978
  N   1.04645716056413     -0.71443916124800      1.39498484425197
  H   0.31158456958954     -0.87743809834757      2.07030388511913
  H   1.66525930979923      0.01558924753458      1.71730156932859
  N   -1.89047589839506     -0.37526102284997      0.69851356185833
  H   -1.83845322438127     -1.36452141004730      0.51101879274986
  H   -2.10241393878014     -0.16321055384903      1.65843035056176
  N   -1.14275855990864      0.82068963578491     -1.23839161406475
  O   -1.72017321099472      0.02694955574711     -1.97048235178031
  O   -0.76173602539807      1.95056575296808     -1.54661200153235
