17
Coordinates from ORCA-job run
  C   0.51665402606538     -0.33092455570529      0.40814019112594
  C   -0.99096600068492     -0.13573377963799      0.14896131537822
  F   0.57679018308251     -1.72377376732526      0.72977677053349
  H   -1.51675525850599     -0.42485496389758      1.06098064077094
  C   1.41644520305120     -0.13675518956288     -0.78811613053023
  H   2.44436898693136     -0.36659891207377     -0.49826406842760
  H   1.13983597861835     -0.82183407943072     -1.58873516682022
  H   1.36492071379321      0.88898704045851     -1.14859222586452
  N   0.91744769374718      0.48065381040951      1.48738130762556
  H   0.34218914517038      0.35021575553781      2.30948368229968
  H   1.89172884594887      0.34684922381213      1.72208016822622
  N   -1.56599141835084     -0.82834292280445     -0.96687699444099
  H   -1.12289634787589     -0.53957161581117     -1.82971239948247
  H   -1.44062635777312     -1.82429571580686     -0.83975372688247
  N   -1.26329019133030      1.32652122927483     -0.02318545289349
  O   -1.70073750492050      1.94014754470355      0.94424441965605
  O   -1.00911769696686      1.80231089785960     -1.12781233027412
