17
Coordinates from ORCA-job run
  C   0.55998593903946     -0.43929997470570      0.43770082695054
  C   -0.88924676112954     -0.10496625503303      0.03258047426312
  F   0.48381926082616     -1.83907133214888      0.59224698868729
  H   -1.53265068732432     -0.31867547654241      0.90182172244099
  C   1.58457241079842     -0.15084473155933     -0.63247938295253
  H   1.71882250522854      0.92250302878044     -0.76292513284593
  H   2.52851606559662     -0.59653582022378     -0.31823180736504
  H   1.26825672009502     -0.58344378358204     -1.58022114107915
  N   0.97234592681529      0.07570318854002      1.70264117075805
  H   0.24878239812266     -0.04396201502819      2.40172531149563
  H   1.19425567751412      1.05803902601267      1.62273711119623
  N   -1.26563080506379     -0.77470388489962     -1.18228353012523
  H   -1.05259361400581     -1.75856554555451     -1.08121195185836
  H   -2.25678697343217     -0.66368522772262     -1.35208588664598
  N   -1.11150157453578      1.37316428655229     -0.20709974695919
  O   -0.24645983892961      2.18421136609129      0.11488067622535
  O   -2.20248664961528      1.65913315102340     -0.68979570218579
