17
Coordinates from ORCA-job run
  C   0.53168500441282     -0.41073618381398      0.47864111836506
  C   -0.95866599821377     -0.26338686592278      0.13193923662630
  F   0.63681271346416     -1.68332436350850      1.03120224321565
  H   -1.51684161841531     -0.68406774403040      0.96683491287058
  C   1.47637001826554     -0.36882314836951     -0.70360289740819
  H   1.23971020088030     -1.16931486557415     -1.40536012035674
  H   2.49336763414070     -0.52107868742684     -0.33672019357120
  H   1.41987375570448      0.59671217750286     -1.20693221373540
  N   0.82561484533389      0.50752177024899      1.55937004743207
  H   1.59411857422166      0.12350247329958      2.09634814057547
  H   1.11348810873215      1.40535740028260      1.18885874217407
  N   -1.31922591871669     -0.89089720910345     -1.09301433933146
  H   -0.94385417796457     -0.39162758979515     -1.88953598912859
  H   -2.32310245560201     -0.97186334461804     -1.18745152489655
  N   -1.32286037581652      1.21216063652497      0.14368591437318
  O   -0.64150786684604      1.95458827282758     -0.56831615451055
  O   -2.30398244358080      1.55427727147621      0.79505307730633
