17
Coordinates from ORCA-job run
  C   0.44534991888212     -0.37578951729286      0.22250867027319
  C   -0.89940000956799      0.36262299499272      0.04483292255294
  F   0.29023481275952     -1.66082606591519     -0.28132407570954
  H   -0.86659199079727      1.28550276010723      0.62608758753217
  C   1.61719558739693      0.25402005787216     -0.50096140246159
  H   1.73989647767483      1.29860527022610     -0.20745156865118
  H   1.47520187153912      0.21283018692087     -1.58177129824450
  H   2.52598168064304     -0.29712062768224     -0.25026647237195
  N   0.60498894931891     -0.53929766370820      1.65526781061533
  H   0.97878231590154      0.31114734290300      2.06134136219170
  H   1.27445841106429     -1.28298614127150      1.82029842394147
  N   -2.06449179036003     -0.39839864290702      0.38137122375742
  H   -2.00272862413158     -0.62637537779811      1.36683553644275
  H   -2.04270495060043     -1.26719337581683     -0.14026562625996
  N   -1.01515584738087      0.80400192800575     -1.38192635237842
  O   -0.65650346342203      1.95106952501708     -1.64367994560461
  O   -1.40451334892007     -0.03281265365294     -2.19089679562521
