17
Coordinates from ORCA-job run
  C   0.59906291340387     -0.46523379456062      0.45961686285265
  C   -0.90924805836827     -0.30351341853966      0.13945047095978
  F   0.68525453435013     -1.80030907519653      0.85738727848524
  H   -1.46998492652774     -0.69102098784617      0.99153060108475
  C   1.49147446064377     -0.28621741119583     -0.74747138191573
  H   2.52733208727476     -0.39777031865235     -0.42487180441692
  H   1.27277032003763     -1.06260215325288     -1.47911425697294
  H   1.35577215127069      0.69604580974591     -1.20408285697508
  N   1.05192814227066      0.33897363907271      1.54436801387204
  H   1.42988494597341      1.22474889411904      1.24385889849525
  H   0.34895889672021      0.48686886347409      2.25546996171866
  N   -1.29940080608391     -0.94935608540933     -1.05929758610274
  H   -2.30532956899972     -1.02471077731094     -1.13004582176011
  H   -0.94726155473414     -0.45539049119009     -1.86898347389348
  N   -1.21245140829670      1.19414359428516      0.14007520940798
  O   -1.60300180270780      1.69406773020596      1.19316120773689
  O   -1.01576032622686      1.80327598225153     -0.91105132257625
