17
Coordinates from ORCA-job run
  C   0.51636242648453     -0.43267760105706      0.42229183119717
  C   -0.98774204042008     -0.18883219003371      0.15939073590605
  F   0.54274919652188     -1.84674806200149      0.57410066675589
  H   -1.51902797755765     -0.47117790616249      1.07077521276580
  C   1.42976427516630     -0.12864529688603     -0.74372163937748
  H   1.41197226533427      0.93119484765691     -0.99795250790071
  H   2.44577865515974     -0.41738165474262     -0.46501680191770
  H   1.15091563787901     -0.71315726389180     -1.61984142864078
  N   0.93513283305733      0.18284958171791      1.61677191915133
  H   0.22192100297317      0.65771632496361      2.14666814123600
  H   1.78288143332552      0.72015390306084      1.55034465086930
  N   -1.58523977292231     -0.84793028147910     -0.96294494553490
  H   -1.48063777460162     -1.84717163755900     -0.84287924780860
  H   -1.13433502115146     -0.56646894680626     -1.82408535273278
  N   -1.20343573126123      1.28607446175786      0.00768236156353
  O   -1.45742785657333      1.92700522485638      1.02663135336002
  O   -1.06863155141407      1.75619649660605     -1.11921494889216
