17
Coordinates from ORCA-job run
  C   0.61741727801328     -0.25696903129953      0.41761242290384
  C   -0.82237750400130     -0.23718616197836     -0.13773684893160
  F   0.49132337774028     -0.84420389956416      1.67974018769431
  H   -1.17977460187586     -1.25733599650681     -0.27889722293501
  C   1.49115230556129     -1.15047586461372     -0.43345305436111
  H   1.50997865767966     -0.80266258057843     -1.46633483458863
  H   2.49964250701073     -1.14568147969906     -0.01770857193378
  H   1.10762158777670     -2.17115751367912     -0.40891170797560
  N   1.22344466457015      1.01793452147029      0.59251804351375
  H   0.58651261866496      1.71492545484305      0.95398652667628
  H   1.69946323528162      1.34248890938910     -0.23493690093346
  N   -0.88187485182823      0.50513644581476     -1.34855356159678
  H   -0.70792331621507      1.48502649791809     -1.16474668510548
  H   -1.78160035635360      0.40848333522652     -1.80077727234759
  N   -1.73107134760511      0.31930079396089      0.95067733144069
  O   -1.65485265526888      1.53351610135449      1.15496195481654
  O   -2.46708159915063     -0.46113953205801      1.54256019366363
