17
Coordinates from ORCA-job run
  C   0.52312960119367     -0.35972121535223      0.12084839298813
  C   -0.93932486776726      0.09014056653312     -0.04769429163689
  F   0.79131034171772     -1.31790400976258     -0.84744295996104
  H   -1.20721864666946      0.72395154115464      0.80295295673668
  C   1.53711364382764      0.75215620942157     -0.05837736379690
  H   2.53173459570278      0.35167525323375      0.14796688017643
  H   1.33532184539217      1.57870987865378      0.62549986633675
  H   1.52533704085819      1.13317386735948     -1.07989349120239
  N   0.58984731479410     -1.07148907613762      1.38021049910766
  H   0.56142848630908     -0.41771574482260      2.15412862470878
  H   1.47447690745018     -1.56581843580838      1.42139432661851
  N   -1.81373574617961     -0.99792277073080     -0.27637582080535
  H   -1.34938926911639     -1.88465422275107     -0.15374761661273
  H   -2.63976590335282     -0.95184795527154      0.29832189385150
  N   -0.98210687773367      1.06754430613689     -1.21853201150263
  O   -0.96396169475579      0.60744422955236     -2.35142131698219
  O   -0.97519677167052      2.26327757859122     -0.91883856802433
