17
Coordinates from ORCA-job run
  C   0.52195122693745     -0.33609338977512      0.40446730658670
  C   -0.95067049390878     -0.09312556502440      0.05026845887261
  F   0.53757951602380     -1.74116782941683      0.69179247913314
  H   -1.55189682807100     -0.30070726699643      0.94352905833429
  C   1.50181696826826     -0.12386793169008     -0.72458082613065
  H   2.48411455169021     -0.47570530385970     -0.39961426083577
  H   1.19986355670700     -0.68581967812175     -1.60584474905063
  H   1.55858575794699      0.93046974597378     -0.98555649232256
  N   0.85968101249518      0.43387059003997      1.53370354390949
  H   0.25993862946052      0.24526858138168      2.32632397433817
  H   1.82896779232092      0.31415771323876      1.79465405046040
  N   -1.32217101469283     -0.81347396760657     -1.12784468463931
  H   -0.95933944441995     -1.75585320562328     -1.05946981052595
  H   -2.32915582381080     -0.86402083979283     -1.21671436152996
  N   -1.15899526290846      1.39009842209897     -0.16543604699284
  O   -1.73073868925685      1.98733818415637      0.74517847956010
  O   -0.74653145478167      1.88763174101746     -1.20585611916724
