17
Coordinates from ORCA-job run
  C   0.58040491341232     -0.37975841465497      0.05071159658210
  C   -0.86480245568341      0.17090604826412      0.08936403947028
  F   0.57183306791905     -1.34241089266764     -0.96544427337116
  H   -0.96906131620623      0.83010907477337      0.95123473522485
  C   1.63260749817634      0.64761921163571     -0.29432021959990
  H   1.57958353861695      1.51297383730936      0.36915834282135
  H   1.50010585164107      0.99122181820582     -1.31935079810773
  H   2.61259453145873      0.17625172968757     -0.20888245971441
  N   0.91663637510018     -1.05653160174278      1.26361456394453
  H   0.12549540959018     -1.54926044231251      1.65612606423701
  H   1.31672767501174     -0.43123441394899      1.94827143470409
  N   -1.87333167763552     -0.82797462867839      0.08250444409041
  H   -1.60238335823307     -1.66257910326347     -0.41389630800623
  H   -2.28209943032250     -1.01513031860459      0.98201699322026
  N   -1.05503490457956      1.08582967625203     -1.10454103832627
  O   -1.33527653084428      0.56241338270745     -2.17551669378636
  O   -0.85499918742203      2.28555503703792     -0.91105042338284
