17
Coordinates from ORCA-job run
  C   0.65094037172534     -0.16968488869891      0.41142334999660
  C   -0.81156789360346     -0.29671640054357     -0.06516744116100
  F   0.61901587292794     -0.60323869292057      1.73972767462820
  H   -1.11273235901158     -1.34445574414758     -0.06549543487871
  C   1.53652306450766     -1.11204980308539     -0.37200800238138
  H   1.22046846355006     -2.14145925086811     -0.19877965642690
  H   1.48044376910515     -0.89751248881699     -1.43931411962339
  H   2.56257847224752     -0.99751937594261     -0.01987645115141
  N   1.18651538930270      1.14827437624097      0.39989581698179
  H   1.59876075283838      1.39427661007949     -0.48689787913086
  H   0.52624903231519      1.84805129933281      0.71083519232173
  N   -0.97267214354646      0.29018302767243     -1.34975211316069
  H   -0.84852627061798      1.29288521514177     -1.29107565822909
  H   -1.88522699736280      0.09205227528634     -1.73877451884190
  N   -1.70127437671638      0.33572088226527      0.99698281800031
  O   -2.36367903969086     -0.40669795463965      1.71191421182855
  O   -1.68681610797042      1.56789091364431      1.05536221122816
