17
Coordinates from ORCA-job run
  C   0.50915168611895     -0.33527979562737      0.41361690472631
  C   -0.99380947845467     -0.12975634842648      0.13574013817379
  F   0.55612366967095     -1.72974370594103      0.73156773568965
  H   -1.53289438025981     -0.41873799187740      1.04002528791264
  C   1.42521218120906     -0.14322461140546     -0.77056562627089
  H   1.38335761124531      0.88340141737500     -1.12984689531126
  H   2.44825380173503     -0.37872011332014     -0.46826357404572
  H   1.15520211054699     -0.82544725348466     -1.57585196523971
  N   0.90140884307743      0.47005315543541      1.50066125728057
  H   0.31643012830491      0.33773424340942      2.31562668317834
  H   1.87229476001238      0.32995313706668      1.74568577200901
  N   -1.55853600774663     -0.81548425943692     -0.98972303278275
  H   -1.43896756973328     -1.81242370084117     -0.86443692994682
  H   -1.10291923013623     -0.52582131255688     -1.84574935751942
  N   -1.25490833456023      1.33451185627437     -0.03505216150014
  O   -1.70116219131669      1.94778846306694      0.92862718273881
  O   -0.98423759971348      1.81219682028969     -1.13506141909241
