17
Coordinates from ORCA-job run
  C   0.52306678705137     -0.44742551761547      0.42009313381808
  C   -0.94890353858536     -0.15646057357421      0.07255392861188
  F   0.53632719510290     -1.86849654540387      0.51495098397920
  H   -1.55168561404229     -0.35329856906340      0.96781432291683
  C   1.49258692601882     -0.10212348343328     -0.68943008002171
  H   1.19919789446946     -0.57573403468508     -1.62436403639818
  H   2.48176704785840     -0.46592542596662     -0.40106943191377
  H   1.53784346906185      0.97619680639388     -0.84426883894054
  N   0.86856716651244      0.10495592975791      1.66942955129332
  H   1.77158042351591      0.55059301915908      1.68472311861032
  H   0.16166234776434      0.68648415703409      2.09147866459797
  N   -1.33505592534922     -0.84332926468536     -1.11398201554326
  H   -2.34004634971003     -0.84956882913191     -1.22683170671631
  H   -1.00089740772814     -1.79621024579215     -1.06037844224753
  N   -1.09933722644576      1.34251995253152     -0.12199350854866
  O   -0.99862102706692      1.81095780118928     -1.24793877381780
  O   -1.29605216842778      1.98786482328558      0.91021313032017
