17
Coordinates from ORCA-job run
  C   0.46904869956095     -0.45294235641611      0.45434193058023
  C   -1.00403715595426     -0.11804441063228      0.12473039454914
  F   0.39535974455184     -1.86129155867535      0.64162304254420
  H   -1.58681369433614     -0.33704084563235      1.02196106936739
  C   1.44527207417273     -0.24246914129285     -0.68108531212010
  H   1.15970938840870     -0.82780550687607     -1.55451779698394
  H   1.51216001864741      0.80949627544626     -0.95882680038490
  H   2.42710592295693     -0.59417669170164     -0.35587794488721
  N   0.87871927231592      0.16606561436498      1.65021221843952
  H   1.77125696230434      0.62850595795673      1.61095435465437
  H   0.18344009444349      0.71824087468296      2.12637135469012
  N   -1.60105194393502     -0.77108110750737     -1.00140375395901
  H   -1.10128879939163     -0.54457313492246     -1.85171106620883
  H   -1.56601933722865     -1.77087923670557     -0.84979040599867
  N   -1.11422580581086      1.36247439432527     -0.07788254462365
  O   -0.90991950819354      1.78686873932314     -1.21237283809985
  O   -1.35871593251222      2.05065213426270      0.91227409844120
