18

C	-0.416518	-0.041379	-1.451496
C	0.0	0.0	0.0
Br	0.294665	1.578793	-2.314425
H	1.097539	0.0	0.0
C	0.158707	-1.234883	-2.178336
H	1.234904	-1.247358	-1.992014
H	-0.293423	-2.151391	-1.796569
H	-0.019995	-1.16719	-3.249561
N	-1.912952	0.114164	-1.738433
O	-2.33478	-0.36415	-2.800225
O	-2.554565	0.91245	-1.048827
N	-0.506485	-1.179115	0.781113
O	-1.705213	-1.518878	0.626916
O	0.171835	-1.533744	1.75394
N	-0.408665	1.15825	0.726837
H	-1.376368	1.106301	1.021786
H	0.196245	1.269755	1.532284
Br	2.875731	0.0	0.0
