18

C	-0.484327	-0.020295	-1.458711
C	0.0	0.0	0.0
Br	0.268754	1.568438	-2.283108
H	1.095706	0.0	0.0
C	-0.115356	-1.218368	-2.309418
H	-0.617946	-2.110016	-1.939961
H	0.963657	-1.361948	-2.247252
H	-0.406282	-1.026256	-3.34456
N	-2.00808	0.091771	-1.439186
O	-2.543244	-0.769388	-0.742836
O	-2.592669	0.930375	-2.101886
N	-0.342855	-1.281406	0.734815
O	-0.978833	-1.205603	1.782797
O	0.09495	-2.323691	0.262362
N	-0.549085	1.140866	0.684802
H	-1.014127	0.819455	1.524895
H	0.221523	1.742902	0.953525
Br	3.440297	0.0	0.0
