18

C	-0.533102	-0.017655	-1.450206
C	0.0	0.0	0.0
Br	0.222732	-1.502836	-2.491987
H	1.105013	0.0	0.0
C	-2.04847	-0.106507	-1.522154
H	-2.489906	0.754537	-1.007292
H	-2.365051	-1.027852	-1.022637
H	-2.396235	-0.134167	-2.558149
N	-0.033587	1.192065	-2.211658
O	-0.55717	1.372664	-3.375044
O	1.232255	1.444891	-2.069952
N	-0.368408	-1.188897	0.788086
O	0.175764	-2.310163	0.398359
O	-0.434476	-0.981026	2.075357
N	-0.480211	1.210714	0.653785
H	-0.170141	2.024626	0.120474
H	-0.013458	1.28439	1.562276
Br	2.667824	0.0	0.0
