18

C	-0.546314	-0.008715	-1.44942
C	0.0	0.0	0.0
Br	0.393406	-1.321992	-2.539514
H	1.086915	0.0	0.0
C	-2.038081	-0.212274	-1.596948
H	-2.584621	0.547348	-1.032168
H	-2.317438	-0.129017	-2.644167
H	-2.315663	-1.19433	-1.222193
N	-0.174284	1.340575	-2.073492
O	0.861083	1.868846	-1.693538
O	-0.926688	1.776073	-2.944674
N	-0.474697	-1.279772	0.646283
O	-1.606909	-1.261685	1.135985
O	0.274472	-2.24752	0.634124
N	-0.441734	1.088694	0.808774
H	-1.398084	1.366939	0.66862
H	0.198919	1.860177	0.720571
Br	3.537136	0.0	0.0
