12

C	-0.247315	-0.101553	-1.500168
C	0.0	0.0	0.0
Br	-0.294907	1.914674	-2.227755
H	1.091787	0.0	0.0
H	-0.356058	-0.915479	0.480698
H	-0.446079	0.881675	0.452034
N	0.768742	-0.8516	-2.061714
H	0.783509	-0.882024	-3.069954
H	1.685812	-0.642363	-1.62943
C	-1.580001	-0.534667	-1.924454
N	-2.64855	-0.928966	-2.218667
H	2.943375	0.0	0.0
