12

C	-0.235191	0.129353	-1.485263
C	0.0	0.0	0.0
Br	-2.132076	0.885816	-1.897641
H	1.094492	0.0	0.0
H	-0.443036	-0.894114	0.435265
H	-0.338983	0.900885	0.511544
N	0.738013	1.005054	-2.016822
H	1.638331	0.839174	-1.525857
H	0.841447	0.912438	-3.019054
C	-0.302638	-1.179157	-2.156181
N	-0.292174	-2.214322	-2.716848
H	2.860168	0.0	0.0
