15
Coordinates from ORCA-job run
  C   -0.61884485861575      0.16752054244296      0.19147335410186
  C   0.74253642424823      0.09663942560831      0.09082650269570
  N   -1.20560925913382      1.38725387273808     -0.00786980705515
  H   -0.55872577557048      2.16394776664837      0.01719394323965
  H   -2.10420106553907      1.53507019032611      0.42006623893673
  C   -1.55938808003580     -0.97909531387428      0.41520912484459
  H   -1.53331548788209     -1.66711328454607     -0.42997277188860
  H   -1.27575698565682     -1.55867251187829      1.29227641148347
  H   -2.57973112963972     -0.60872902483066      0.53473381801588
  N   1.49020538060302      1.28121171617888     -0.10309243310776
  H   2.25221814163878      1.31709184275457      0.56431121705718
  H   1.91537438318164      1.28775497112845     -1.02446643790272
  N   1.47177376813228     -1.14777483257690      0.20480597220859
  O   2.70551995627919     -1.05826167600477      0.21936100206834
  O   0.85794458799040     -2.21584368411475      0.28614386530223
