15
Coordinates from ORCA-job run
  C   -0.58785558379308      0.16120374548491      0.02342490166616
  C   0.76041672532931      0.06898127927524      0.20281083794684
  N   -1.09593533635909      1.36044092080813     -0.44362508470012
  H   -2.02680199096039      1.54619570870984     -0.09494253594406
  H   -0.45602665529641      2.13043844974887     -0.27992841783564
  C   -1.58382138318322     -0.94758942367337      0.18828225861697
  H   -1.27003167418595     -1.82172914270146     -0.37714413310458
  H   -2.57264477075925     -0.63865813328172     -0.15543147148017
  H   -1.65787819102370     -1.26399537346366      1.23142445621920
  N   1.58471677919909      1.17060024746142     -0.03494894312300
  H   2.37481361962361      1.19594246033696      0.58629489108284
  H   1.84336919289474      1.27697329815397     -1.00222501411330
  N   1.38240263667696     -1.11173823518791      0.78883694352920
  O   0.79463706469173     -2.19326146096694      0.77847733213274
  O   2.51063956714565     -0.93480434070426      1.25869397910692
