15
Coordinates from ORCA-job run
  C   -0.62309239069171      0.15135798686043      0.18653830288192
  C   0.74261514103799      0.12205473948076      0.13182705046373
  N   -1.23702168977528      1.36333004025771      0.02794723845895
  H   -2.18662320573548      1.35407042419740     -0.30428952250548
  H   -0.63328901072996      2.08604063355389     -0.33997381876993
  C   -1.53039505169213     -1.00373718181564      0.48953301493783
  H   -1.37004905057561     -1.36106083133930      1.50682234411679
  H   -2.57360547110185     -0.69805197222591      0.38528213801370
  H   -1.32957670870589     -1.84816174188625     -0.16799511186464
  N   1.45296972176507      1.30247275753433     -0.18714751096898
  H   1.98976153241439      1.62255661333183      0.61228236210614
  H   2.12296520361583      1.10998990558970     -0.92305345903234
  N   1.50914120332908     -1.08298016674851      0.36171440558730
  O   0.93828662779848     -2.11562620801511      0.72508054147256
  O   2.72791314904706     -1.00025499877534      0.16643202510247
