15
Coordinates from ORCA-job run
  C   -0.62562764872777     -0.08493292983068      0.29021200280800
  C   0.73438701228000     -0.17113067799627      0.18067054985008
  N   -1.27595581325195     -1.10930220870909      0.92152099029398
  H   -2.16999954058276     -0.89831847419315      1.33185474803347
  H   -0.66764057200367     -1.72266764729095      1.44670179298476
  C   -1.50290050476329      0.98429273116648     -0.28968246292383
  H   -1.17077137584196      1.97624723825257      0.01281584351399
  H   -1.46260636354950      0.96551647452539     -1.37882806901175
  H   -2.53719370776389      0.83209184210584      0.02603292904315
  N   1.41801660705707     -1.23906624742145      0.80658345577306
  H   2.18918547151377     -0.87645935465267      1.35547495943873
  H   1.82583668955414     -1.85710608171089      0.11280688827653
  N   1.52561818391200      0.80933576273768     -0.53031478196459
  O   2.75347923666904      0.68001010238145     -0.45307033795127
  O   0.96617232549878      1.71148947063573     -1.16077850816433
