15
Coordinates from ORCA-job run
  C   -0.60348317196870      0.16323716493714      0.16926345950075
  C   0.75861116810352      0.08785281046919      0.18959072963241
  N   -1.16516624216593      1.42373403706034      0.19088499027573
  H   -0.52276805264056      2.14890024842283     -0.10346223368836
  H   -2.08451910402336      1.48288913277492     -0.21938136505223
  C   -1.57971779711513     -0.97238504252497      0.25832099267827
  H   -2.56218305696951     -0.58329980688206      0.53101016846462
  H   -1.26514473420628     -1.71043795103909      0.99263521806836
  H   -1.65121703127241     -1.49954931608497     -0.69598317823464
  N   1.52636131604680      1.27016389423669      0.18010154523614
  H   2.39860874173610      1.11558126873332     -0.30846990171683
  H   1.74676739229257      1.57447711232734      1.12254231999227
  N   1.46798314656879     -1.17005780328692      0.15597606146862
  O   2.70410415367580     -1.10817653519575      0.16535862213072
  O   0.83176327193829     -2.22192921394801      0.04161257124417
