15
Coordinates from ORCA-job run
  C   -0.60207754501337      0.16874638804045      0.30867642119166
  C   0.74215350664451     -0.06727265938894      0.14358782800797
  N   -1.18481468623412      0.67627418141440      1.41935482985809
  H   -2.18445075500046      0.61820192415102      1.49989053065202
  H   -0.62385712726778      0.75283676232189      2.25293709293920
  C   -1.54699670183588     -0.11594488898878     -0.82277296558947
  H   -2.10597223161707     -1.03307552326211     -0.60894147355542
  H   -2.26633139610243      0.70086664645696     -0.92393254917436
  H   -1.00488698986535     -0.25417064414143     -1.75249756680453
  N   1.26157284513758     -0.56532285136064     -1.06901661623362
  H   1.68340469434577     -1.47621702990153     -0.92588492207920
  H   2.00106363481803      0.04051957565312     -1.40519174231417
  N   1.68203563663968      0.12966717478347      1.22858130341784
  O   2.86294405129146     -0.15792984883385      1.00953845597060
  O   1.28521306405941      0.58282079305597      2.31567137371339
