15
Coordinates from ORCA-job run
  C   -0.60675118167358      0.14252264963190      0.30679673718455
  C   0.74093632239436     -0.06286278536015      0.14326975301934
  N   -1.19066770824232      0.77688767550378      1.35409419656102
  H   -2.18202265508611      0.65921574452785      1.47146900668948
  H   -0.62588357148738      0.95370665197423      2.16957214834106
  C   -1.55872049193967     -0.27152853314652     -0.77837748330093
  H   -2.07904801870660      0.60908473424449     -1.16533526977363
  H   -2.31319172158910     -0.95135599744985     -0.36967660129817
  H   -1.02894333495521     -0.76440676152308     -1.58696367233854
  N   1.26739093358884     -0.66999213629536     -1.01619342151679
  H   1.80171399286627     -1.49347834282518     -0.76361463094144
  H   1.91467172913174     -0.04056289011185     -1.47741233390662
  N   1.69031403080286      0.28158876326883      1.18279982278594
  O   1.29511350459446      0.83186067546652      2.22389113996236
  O   2.87508817030144     -0.00067944790560      0.97668060853235
