15
Coordinates from ORCA-job run
  C   -0.55428030203518     -0.02302988776192      0.28094807129781
  C   0.80152031479760     -0.12807494506437      0.24394212849069
  N   -1.26071306374334     -0.98306486747450      1.01072743032721
  H   -2.24083442776920     -1.02598118597175      0.77922822249486
  H   -0.83587487641220     -1.90043533491125      0.99968859812642
  C   -1.37377877282899      1.10764395105696     -0.27146756352556
  H   -1.14517545160780      1.29382838258354     -1.32049998094986
  H   -1.16997976970940      2.03768148858828      0.26004092923155
  H   -2.43784061825827      0.87819316583012     -0.17740949735449
  N   1.54831339833096     -1.04991340490474      0.97462512006068
  H   1.08913513310481     -1.39873092014474      1.79914165554104
  H   2.06513324942546     -1.74035737810073      0.45383007735619
  N   1.61824195571618      0.75959812796988     -0.56349039688214
  O   1.16477100048556      1.84868056706677     -0.92430004147243
  O   2.73036223050381      0.32696224123846     -0.87400475274196
