15
Coordinates from ORCA-job run
  C   -0.60789853919149      0.12839188979659      0.31565000188970
  C   0.73161802164945     -0.13704059792921      0.17332614663615
  N   -1.20589246758532      0.61156325744662      1.43340948601415
  H   -0.61306771898045      0.98260399236198      2.15874449245829
  H   -2.13712198325393      0.97772486245223      1.33760069246696
  C   -1.55496447430014     -0.20152033355017     -0.80251324985080
  H   -2.07763336918123      0.70557006119725     -1.12290080413338
  H   -1.02028152037329     -0.62520204329463     -1.64625686526763
  H   -2.30691719878892     -0.91218200184520     -0.44867052342844
  N   1.25659598134307     -0.71150711616453     -1.00355999888855
  H   1.72193489574959     -1.58606880852893     -0.78737984788326
  H   1.96488710543817     -0.10404817118884     -1.39981951225998
  N   1.68477702471288      0.20054487396498      1.21163147233321
  O   1.28761893820908      0.70133256705961      2.27660634644194
  O   2.87534530455253     -0.02916243177775      0.97613216347165
