15
Coordinates from ORCA-job run
  C   -0.63587591636165      0.08147537451445      0.16898567527271
  C   0.72464110645702      0.20347263568075      0.22472291145172
  N   -1.37741399104265      1.22856661719681      0.23841869423774
  H   -0.84292388723283      2.07483185592575      0.09617173553322
  H   -2.29926227856084      1.20180582134755     -0.16357967549887
  C   -1.41749913203898     -1.19783133962575      0.12543038048134
  H   -2.48191063857263     -0.98247622602126      0.01034719003508
  H   -1.08399120435016     -1.83819543659219     -0.68974480078136
  H   -1.27250313620595     -1.76743898932142      1.04339358412631
  N   1.30894750965225      1.49107745970202      0.24158151910426
  H   1.75853149176539      1.66675312385510      1.13415425751749
  H   2.03764793817688      1.54473336287171     -0.46101419460478
  N   1.61251400683369     -0.93834789613822      0.23432225132265
  O   2.82241642085823     -0.68970517324407      0.16578875105646
  O   1.14668171062224     -2.07972119015124      0.30202172074603
