15
Coordinates from ORCA-job run
  C   -0.61428231129278      0.06772169406507      0.32957911534528
  C   0.73770016337898     -0.09617666275985      0.15630448825151
  N   -1.24294903586974      0.27393490931705      1.51464439682974
  H   -0.67304379047298      0.51909156232174      2.30867901769414
  H   -2.18843665347808      0.61387398464247      1.47969977191666
  C   -1.53697005197499     -0.06691482789731     -0.84759028877043
  H   -2.12027994327807      0.85173700648776     -0.96732895642830
  H   -2.23920837177687     -0.88643972407842     -0.67112743084308
  H   -0.97567526298605     -0.25830137532341     -1.75626403589715
  N   1.29773379874722     -0.38651376025345     -1.10531195029302
  H   1.79781384560260     -1.26786619036676     -1.07163638198201
  H   1.98200319030526      0.31931982699247     -1.35234515277862
  N   1.66711272336080      0.06217133554552      1.25786393501848
  O   1.23951962318989      0.31060227523578      2.39710101678832
  O   2.86896207654482     -0.05624005392867      0.99873245514847
