15
Coordinates from ORCA-job run
  C   -0.60874142425547      0.12479254547638      0.31448787875929
  C   0.73345128293053     -0.12730366499838      0.17235512728880
  N   -1.21173280842138      0.60379579043769      1.43143008970027
  H   -0.62327828517226      0.98273149803661      2.15621391544737
  H   -2.14632403235742      0.96100866483601      1.33455251909098
  C   -1.55251692437971     -0.21895324042636     -0.80192142198055
  H   -1.01064659129648     -0.61058941558266     -1.65654931437308
  H   -2.11100960444960      0.67327498643132     -1.10263741511282
  H   -2.27536625242666     -0.96277004975393     -0.45519767142277
  N   1.26392944567574     -0.70084405049806     -1.00214003249991
  H   1.73005333151653     -1.57462868204642     -0.78480749211917
  H   1.97149441505070     -0.09174167281371     -1.39691746443678
  N   1.68298547049185      0.22040384290077      1.21091224058441
  O   2.87580792297519      0.00138500733066      0.97636526035133
  O   1.28089405411845      0.71943844067008      2.27485378072263
