15
Coordinates from ORCA-job run
  C   -0.60706475604782      0.12777411772004      0.31985169498238
  C   0.73221483171471     -0.13363226279355      0.16797083041891
  N   -1.19521211693310      0.63129524047371      1.43429882702874
  H   -0.59629831963745      1.02478908408418      2.14262025259389
  H   -2.12813241708169      0.99349055104954      1.33904906416052
  C   -1.56531836217227     -0.23521975921873     -0.77797885216028
  H   -2.11932490006803      0.65442776444356     -1.09440642078057
  H   -2.29042381775700     -0.96426329536675     -0.40575739612292
  H   -1.03549543151303     -0.65090492060976     -1.62880275735910
  N   1.24752230563320     -0.72900485379931     -1.00206983458120
  H   1.71403685033039     -1.60033180116412     -0.77606359682276
  H   1.95136361156378     -0.12870117311598     -1.41642699092774
  N   1.69606933015060      0.23825517613341      1.18538735208476
  O   1.30826356034000      0.75784743903503      2.24462420523790
  O   2.88579963147770      0.01717869312873      0.93770362224747
