15
Coordinates from ORCA-job run
  C   -0.59421361817027      0.15366903495817      0.34308701738793
  C   0.73332090416767     -0.15157468992181      0.19679972546122
  N   -1.19216161943073      0.59294812195328      1.47535245463494
  H   -2.14303459088199      0.91034486203976      1.43800487322241
  H   -0.62039995116924      0.86668632663166      2.25753346268136
  C   -1.49013304210163     -0.05937951900542     -0.84652218095739
  H   -1.48560443358953     -1.10071392540130     -1.17544288045963
  H   -2.52324840796377      0.20801530254108     -0.61722790443044
  H   -1.13672669175907      0.54401888346354     -1.68535896069295
  N   1.25760598355145     -0.62656634283017     -1.02267872001370
  H   1.07001352693848     -1.61087846138223     -1.16711032240704
  H   2.25840288070572     -0.47720585938029     -1.01822193333055
  N   1.68799649875575      0.15907648504515      1.22037978581259
  O   2.88709845152965     -0.02766370220228      0.96544563636970
  O   1.29108410941751      0.62022348349086      2.30495994672156
