15
Coordinates from ORCA-job run
  C   -0.52848541233531      0.10315504725239      0.04928789956674
  C   0.81538543005234      0.11702589677992      0.18528752093101
  N   -1.20447546992076      1.31828182372303     -0.15262598663277
  H   -0.72439131942248      2.09858619838468      0.27619129028384
  H   -2.17012896353755      1.28459128004774      0.14026272925892
  C   -1.40046344550730     -1.10950727109560     -0.04345963510922
  H   -2.11715292187308     -1.10982564620542      0.78509520550493
  H   -0.83391428198858     -2.03529402494034     -0.02238489297059
  H   -1.97054691447269     -1.07037029161796     -0.97566383288273
  N   1.66852834271477      1.22088285955273      0.11489616141935
  H   1.37760624341392      1.93403225821638     -0.53311783450993
  H   2.00323988016297      1.57678836671709      0.99780690687849
  N   1.54345128120397     -1.11829898469589      0.48664414328363
  O   1.30160918285604     -2.14786973667148     -0.14252748391877
  O   2.23873836865375     -1.06217777544727      1.50330780889709
