15
Coordinates from ORCA-job run
  C   -0.60131820996659      0.16862043337457      0.29939626913832
  C   0.71998715367948     -0.18884721432597      0.19131305552498
  N   -1.20614852808335      0.63842486121190      1.41914523156691
  H   -2.10424916856339      1.07666328886854      1.31059241896481
  H   -0.61788572163457      0.92708422600563      2.18449833208831
  C   -1.52557512125213     -0.03724423560978     -0.86613115356802
  H   -2.32083110062915     -0.73331546626519     -0.58510492977874
  H   -0.98485394409502     -0.42931322790868     -1.72126540397741
  H   -1.99597397166382      0.91314562713380     -1.13817353331983
  N   1.24749486125990     -0.74262066120988     -0.99406200038347
  H   2.01861862775812     -0.17599738957733     -1.32844839852864
  H   1.63028364019238     -1.66322320423846     -0.80969527366843
  N   1.65350445662400      0.02515981192744      1.27922398045821
  O   2.83298378017057     -0.27907481683763      1.07411428282104
  O   1.25196324620357      0.49953796745104      2.35459712266198
