15
Coordinates from ORCA-job run
  C   -0.59814559789210      0.19011317612270      0.29848976987391
  C   0.72400952491173     -0.16779451005296      0.18185820851683
  N   -1.15341401659785      0.82905307760344      1.35809145674276
  H   -2.15600267372674      0.82649347558620      1.42703690932068
  H   -0.61492013553478      0.87964298214120      2.20831692094460
  C   -1.52128296072348     -0.00840270250504     -0.86946824231279
  H   -1.07353487781325     -0.67310237301447     -1.60086343683322
  H   -1.72583117018118      0.95524721272875     -1.34496410416688
  H   -2.47677866362745     -0.41880702758326     -0.52909934477313
  N   1.24028153132185     -0.73330433170506     -1.00185874209294
  H   1.74072271473392     -1.58686293996202     -0.78623182086424
  H   1.91182419703766     -0.10919672820516     -1.43568883849045
  N   1.64593071739149     -0.02876271272080      1.29102091318290
  O   2.79521793683288     -0.44734120352936      1.12262176039936
  O   1.26292347386733      0.49402460509582      2.35073859055263
