15
Coordinates from ORCA-job run
  C   -0.59343289792692      0.20321124462406      0.28407706329450
  C   0.72946841241964     -0.14881940317784      0.17824553987223
  N   -1.16175306882712      0.84338774517508      1.33668017311575
  H   -2.16522372430238      0.83435852089667      1.39529605602820
  H   -0.62979366266491      0.90653560669672      2.19003433376983
  C   -1.52247013284823     -0.03921419613525     -0.87066866979492
  H   -2.36570386602824     -0.65638631923653     -0.54434868355697
  H   -1.00386048830764     -0.53772145940704     -1.68302973530973
  H   -1.92494455954672      0.91424891120369     -1.22400315300409
  N   1.25127521450014     -0.74458925547885     -0.98909634599509
  H   1.98988918455679     -0.16765102747429     -1.37590534153886
  H   1.67638138528656     -1.63655792743387     -0.76289191205854
  N   1.65136199441222      0.03226701483741      1.28223598232196
  O   1.25945686622575      0.56239572384910      2.33482641348805
  O   2.80934934305106     -0.36446517893905      1.11654827936770
