15
Coordinates from ORCA-job run
  C   -0.60848343268932      0.12937610634406      0.31195504531035
  C   0.73175798499155     -0.13636631513152      0.17636661704204
  N   -1.21272991638963      0.60560698636096      1.42933370423892
  H   -2.14293445343257      0.97365629579687      1.33104007871461
  H   -0.62430487369810      0.97087581319384      2.16115356546804
  C   -1.54886913395962     -0.19665631620333     -0.81252114118388
  H   -1.00532211690335     -0.58325398032834     -1.66840341543468
  H   -2.27773022135537     -0.93981690940887     -0.47714693277966
  H   -2.10027245693767      0.70195361252652     -1.10708133641855
  N   1.26351342738055     -0.70412291490018     -1.00062229614988
  H   1.98098002089653     -0.09888865129445     -1.38334409599570
  H   1.71835942197570     -1.58522059211377     -0.78884305453840
  N   1.67929719878774      0.19804210086853      1.22079878869605
  O   2.87191330620257     -0.02436645694446      0.98840332654289
  O   1.27582524513099      0.68918122123412      2.28791114648782
