17

C	0.0	0.0	0.0
C	-0.225099	-0.076202	-1.541264
Cl	1.829294	0.0	0.0
H	0.310825	0.764915	-1.965999
N	-0.462625	1.306082	0.390273
H	-1.493562	1.137897	0.368837
H	-0.17814	1.451773	1.354733
N	-0.475692	-1.145672	0.697693
H	-1.505821	-1.019311	0.57048
H	-0.263958	-1.001343	1.681341
N	-1.61722	0.046003	-2.136087
O	-1.968341	1.196059	-2.355831
O	-2.189982	-0.971524	-2.487501
N	0.383962	-1.28813	-2.184303
O	0.070545	-2.401781	-1.788926
O	1.146446	-1.050104	-3.126452
F	-2.70408	0.0	0.0
