17

C	0.0	0.0	0.0
C	-0.278377	0.126927	-1.534777
Cl	1.792835	0.0	0.0
H	0.379719	-0.583679	-2.024111
N	-0.469452	1.136814	0.728102
H	-1.499077	1.019114	0.605584
H	-0.249612	0.970066	1.706597
N	-0.458547	-1.31124	0.379116
H	-0.15344	-1.468797	1.335789
H	-1.4881	-1.151122	0.374317
N	0.10857	1.463478	-2.085209
O	-0.491729	2.459288	-1.706043
O	1.008934	1.446434	-2.932085
N	-1.642343	-0.226227	-2.117127
O	-2.317601	0.656225	-2.620315
O	-1.846225	-1.428336	-2.188313
F	-2.697079	0.0	0.0
