17

C	0.0	0.0	0.0
C	-0.321183	0.308447	-1.516069
Cl	1.802848	0.0	0.0
H	0.449005	-0.15868	-2.12445
N	-0.470045	1.072648	0.813792
H	-0.272252	0.785636	1.767458
H	-1.498417	0.986953	0.670459
N	-0.457779	-1.272752	0.451696
H	-1.488438	-1.126459	0.426996
H	-0.215028	-1.999528	-0.211163
N	-0.224933	1.764311	-1.834366
O	0.781264	2.095418	-2.471899
O	-1.112802	2.516914	-1.459212
N	-1.587066	-0.265682	-2.114112
O	-1.595417	-1.491864	-2.131436
O	-2.366819	0.460734	-2.700203
F	-2.692732	0.0	0.0
