17

C	0.0	0.0	0.0
C	-0.653147	-0.027433	-1.37835
Cl	1.829485	0.0	0.0
H	-1.780131	0.103267	-1.040866
N	-0.391453	1.22461	0.655871
H	-0.205641	1.129604	1.646478
H	0.130582	2.003943	0.280467
N	-0.50951	-1.176624	0.625533
H	-1.538823	-0.99421	0.603829
H	-0.198088	-1.189817	1.5912
N	-0.475734	-1.351661	-2.040863
O	0.670784	-1.704088	-2.311662
O	-1.495447	-1.990357	-2.290141
N	-0.200875	0.989842	-2.346898
O	-0.307113	0.716717	-3.542957
O	0.186098	2.076218	-1.914995
F	-2.850942	0.0	0.0
