16

C	0.0	0.0	0.0
C	-0.453805	0.228438	-1.506449
Cl	1.822309	0.0	0.0
H	0.461586	0.105091	-2.089761
C	-0.323118	1.123676	0.900136
N	-0.523058	1.933368	1.72911
N	-0.481692	-1.264504	0.481793
H	-0.208931	-1.370229	1.455199
H	-1.503829	-1.199155	0.461061
N	-0.876834	1.606938	-1.639101
H	-1.772597	1.708502	-1.160931
H	-1.065926	1.762749	-2.623199
N	-1.412858	-0.711912	-2.027651
H	-2.304905	-0.606359	-1.54209
H	-1.074332	-1.657725	-1.891161
Cl	-3.800095	0.0	0.0
