16

C	0.0	0.0	0.0
C	-0.384381	-0.131706	-1.531737
Cl	1.782623	0.0	0.0
H	0.390521	0.446723	-2.046888
C	-0.349669	1.368712	0.438714
N	-0.586229	2.47274	0.766305
N	-0.595621	-1.03354	0.793918
H	-0.368666	-0.89522	1.772853
H	-1.61382	-0.933552	0.697641
N	-1.643254	0.417155	-1.947921
H	-1.64477	1.427047	-1.858543
H	-2.440663	0.077791	-1.404755
N	-0.23861	-1.533006	-1.887583
H	-0.820352	-1.672462	-2.705204
H	-0.60444	-2.106365	-1.136202
Cl	-4.068774	0.0	0.0
