16

C	0.0	0.0	0.0
C	-0.525498	0.528211	-1.343438
Cl	1.787146	0.0	0.0
H	-1.606052	0.610138	-1.175591
C	-0.34075	0.967462	1.067884
N	-0.549597	1.662421	1.991811
N	-0.519161	-1.321162	0.229264
H	-1.542922	-1.216926	0.208225
H	-0.257222	-1.634168	1.15737
N	-0.183043	-0.430877	-2.394697
H	-0.924018	-0.401729	-3.08669
H	-0.205752	-1.360079	-1.983856
N	0.003284	1.852145	-1.589965
H	-0.666605	2.386856	-2.127595
H	0.851557	1.75093	-2.136047
Cl	-3.628045	0.0	0.0
