16

C	0.0	0.0	0.0
C	-0.610312	-0.163001	-1.392555
Cl	1.85357	0.0	0.0
H	-1.674553	0.038585	-1.196219
C	-0.297076	1.340584	0.529984
N	-0.477551	2.420746	0.952211
N	-0.504929	-0.99232	0.836147
H	-0.473459	-1.896102	0.385528
H	-0.15908	-0.972748	1.781514
N	-0.491596	-1.566142	-1.791606
H	-1.366206	-1.868731	-2.200627
H	0.253653	-1.678964	-2.467019
N	-0.083613	0.846292	-2.280259
H	-0.663561	0.91228	-3.106041
H	0.869153	0.630761	-2.550621
Cl	-3.903119	0.0	0.0
