15

C	0.0	0.0	0.0
C	-0.504963	0.289351	-1.405523
F	1.399866	0.0	0.0
H	-1.595089	0.213208	-1.357998
H	-0.243471	1.325583	-1.658916
C	-0.371877	1.10782	0.906082
N	-0.529928	1.992871	1.661112
C	-0.482974	-1.327795	0.537822
H	-0.014163	-1.527863	1.50325
H	-0.206665	-2.099673	-0.180197
H	-1.570071	-1.29457	0.640959
N	0.038563	-0.701305	-2.330568
H	0.967298	-0.423842	-2.623049
H	-0.552766	-0.754097	-3.149595
Br	-3.97219	0.0	0.0
