15

C	0.0	0.0	0.0
C	-0.53733	0.330609	-1.38618
F	1.388322	0.0	0.0
H	0.126781	-0.183994	-2.088785
H	-1.545122	-0.093275	-1.452905
C	-0.383062	1.031025	0.987897
N	-0.581225	1.863525	1.79102
C	-0.468259	-1.369163	0.452024
H	-0.180195	-2.105659	-0.302951
H	0.008969	-1.6263	1.399907
H	-1.555734	-1.360193	0.562043
N	-0.501228	1.769111	-1.650404
H	-0.600375	1.909022	-2.650652
H	-1.333959	2.169002	-1.22463
Br	-3.878777	0.0	0.0
