15

C	0.0	0.0	0.0
C	-0.379707	-0.424641	-1.439914
F	1.394759	0.0	0.0
H	-0.130591	-1.491618	-1.513651
H	0.325885	0.113316	-2.084981
C	-0.392556	1.405984	0.222502
N	-0.63052	2.545247	0.381026
C	-0.547909	-0.904721	1.076655
H	-1.642362	-0.873197	1.046641
H	-0.204742	-1.925822	0.892642
H	-0.207911	-0.581774	2.063082
N	-1.718279	-0.199782	-1.914342
H	-2.438597	-0.571925	-1.299016
H	-1.920478	0.793434	-1.952435
Br	-4.453551	0.0	0.0
