15

C	0.0	0.0	0.0
C	-0.525177	0.311561	-1.395212
F	1.387766	0.0	0.0
H	0.147618	-0.213833	-2.081311
H	-1.529465	-0.11363	-1.466514
C	-0.388049	1.043193	0.973136
N	-0.588875	1.889576	1.761111
C	-0.460947	-1.367127	0.466725
H	0.028296	-1.618724	1.410292
H	-1.545505	-1.363667	0.583463
H	-0.176044	-2.108754	-0.286426
N	-0.481793	1.74653	-1.675091
H	-0.525195	1.882703	-2.678832
H	-1.334963	2.146239	-1.295557
Br	-3.852154	0.0	0.0
