15

C	0.0	0.0	0.0
C	-0.446144	0.34895	-1.413349
F	1.398631	0.0	0.0
H	-1.533056	0.251837	-1.460427
H	0.008697	-0.406483	-2.06493
C	-0.379945	1.047728	0.967418
N	-0.566482	1.868346	1.785428
C	-0.455129	-1.36562	0.462689
H	0.026179	-1.602404	1.414924
H	-0.147437	-2.107002	-0.279878
H	-1.54207	-1.372482	0.567199
N	-0.0411	1.67339	-1.867771
H	0.910179	1.851459	-1.567698
H	-0.636626	2.365515	-1.428849
Br	-3.819029	0.0	0.0
