15

C	0.0	0.0	0.0
C	-0.450584	0.302567	-1.424811
F	1.399049	0.0	0.0
H	-0.009471	-0.482014	-2.051185
H	-1.538903	0.214545	-1.459922
C	-0.371589	1.09432	0.919895
N	-0.550576	1.982698	1.666214
C	-0.465009	-1.346267	0.505851
H	-0.154162	-2.111763	-0.210332
H	-1.553304	-1.343166	0.595932
H	0.001425	-1.555916	1.471592
N	-0.037146	1.605213	-1.929993
H	-0.624964	2.318313	-1.51476
H	0.916307	1.787814	-1.640313
Br	-3.820807	0.0	0.0
