12

C	0.0	0.0	0.0
C	-0.398528	-0.270243	-1.469998
F	1.381568	0.0	0.0
H	0.335456	0.304824	-2.047514
H	-0.371745	-0.755755	0.690446
H	-0.357729	0.985313	0.301246
N	-1.7288	0.075426	-1.928222
H	-1.755926	1.085193	-2.025316
H	-2.444541	-0.104213	-1.16552
C	-0.090408	-1.679328	-1.78555
N	0.204349	-2.786248	-2.046559
H	-3.449664	0.0	0.0
