12

C	0.0	0.0	0.0
C	-0.645554	0.329294	-1.331618
F	1.374063	0.0	0.0
H	-1.646729	0.710502	-1.015827
H	-0.359131	-0.980679	0.309752
H	-0.329612	0.736581	0.737928
N	-0.844161	-0.899951	-2.123342
H	-1.707535	-1.270017	-1.712409
H	-1.095606	-0.629902	-3.071052
C	0.099453	1.340614	-2.069705
N	0.659706	2.181955	-2.66927
H	-3.037641	0.0	0.0
