12

C	0.0	0.0	0.0
C	-0.57088	-0.001026	-1.388877
F	1.38679	0.0	0.0
H	-1.675875	-0.019589	-1.148128
H	-0.350029	-0.904312	0.497634
H	-0.351584	0.873635	0.549341
N	-0.164815	-1.210248	-2.103109
H	0.830812	-1.15953	-2.294796
H	-0.648678	-1.253269	-2.992437
C	-0.227128	1.229186	-2.117069
N	0.053167	2.179081	-2.752413
H	-3.041267	0.0	0.0
