12

C	0.0	0.0	0.0
C	-0.367533	0.002659	-1.499515
F	1.38102	0.0	0.0
H	0.287022	0.775919	-1.928752
H	-0.373158	-0.877587	0.526717
H	-0.366615	0.90752	0.480915
N	-1.7344	0.253807	-1.905627
H	-1.873936	1.259832	-1.85978
H	-2.419987	-0.075471	-1.165831
C	0.117718	-1.269023	-2.082168
N	0.489258	-2.282517	-2.544363
H	-3.461872	0.0	0.0
