12

C	-0.45699	-0.03295	-1.448096
C	0.0	0.0	0.0
Br	-0.018961	1.562208	-2.416265
H	1.092509	0.0	0.0
H	0.010923	-0.874557	-1.955354
H	-0.313875	-0.939591	0.467352
N	-1.94682	-0.313461	-1.497075
O	-2.233049	-1.494911	-1.306642
O	-2.744242	0.601594	-1.647508
C	-0.559074	1.117819	0.746733
N	-1.030854	1.995436	1.367569
Cl	3.274262	0.0	0.0
