12

C	-0.425467	0.015944	-1.448191
C	0.0	0.0	0.0
Br	-2.358672	-0.002362	-1.682818
H	1.095446	0.0	0.0
H	-0.043946	0.875573	-1.993615
H	-0.349563	-0.91385	0.4828
N	0.106872	-1.199169	-2.164332
O	0.493918	-1.020782	-3.314485
O	0.076702	-2.266582	-1.563025
C	-0.503576	1.171667	0.700204
N	-0.914755	2.116663	1.26226
Cl	3.276741	0.0	0.0
