12

C	-0.426599	0.015661	-1.447992
C	0.0	0.0	0.0
Br	-2.36141	-0.015514	-1.688219
H	1.095532	0.0	0.0
H	-0.050834	0.877803	-1.994372
H	-0.348694	-0.914253	0.483067
N	0.113194	-1.195818	-2.163662
O	0.520912	-1.010373	-3.305586
O	0.070278	-2.26663	-1.569529
C	-0.503998	1.171108	0.70104
N	-0.912878	2.116446	1.264363
Cl	3.267006	0.0	0.0
