12

C	-0.475809	-0.019942	-1.441181
C	0.0	0.0	0.0
Br	0.029754	1.544891	-2.424311
H	1.09244	0.0	0.0
H	-0.060601	-0.887708	-1.951113
H	-0.321372	-0.935003	0.469994
N	-1.981473	-0.224664	-1.465729
O	-2.324404	-1.375059	-1.19124
O	-2.732929	0.715832	-1.683628
C	-0.541414	1.125772	0.750086
N	-0.995835	2.016822	1.364892
Cl	3.28578	0.0	0.0
