12

C	-0.595474	-0.043377	-1.395989
C	0.0	0.0	0.0
Br	0.243568	-1.370022	-2.52023
H	1.091193	0.0	0.0
H	-1.662005	-0.259734	-1.404521
H	-0.320469	0.92522	0.491361
N	-0.475966	1.293852	-2.079205
O	-1.36795	1.562962	-2.882501
O	0.477186	2.004068	-1.791402
C	-0.512711	-1.132763	0.763609
N	-0.96642	-2.032796	1.365517
Cl	3.307664	0.0	0.0
