12

C	-0.416107	0.022318	-1.449259
C	0.0	0.0	0.0
Br	-2.344318	0.142178	-1.708586
H	1.093765	0.0	0.0
H	0.023755	0.87597	-1.959571
H	-0.299561	0.959703	0.433464
N	0.054219	-1.182366	-2.221507
O	0.045039	-2.26388	-1.649303
O	0.380275	-0.974364	-3.386534
C	-0.577188	-1.06297	0.809299
N	-1.05792	-1.863649	1.520341
Cl	3.260067	0.0	0.0
