12

C	-0.457229	-0.071508	-1.445668
C	0.0	0.0	0.0
Br	-0.00838	1.493143	-2.457293
H	1.092498	0.0	0.0
H	0.007684	-0.928378	-1.930397
H	-0.31392	-0.925891	0.493449
N	-1.949632	-0.347676	-1.487562
O	-2.742548	0.559346	-1.701563
O	-2.240885	-1.516312	-1.228538
C	-0.559064	1.138606	0.715343
N	-1.031931	2.036107	1.306591
Cl	3.275532	0.0	0.0
