12

C	-0.457749	-0.056899	-1.447417
C	0.0	0.0	0.0
Br	0.034738	1.498436	-2.445475
H	1.092526	0.0	0.0
H	-0.010605	-0.921168	-1.936768
H	-0.318668	-0.928171	0.485221
N	-1.958109	-0.299834	-1.502565
O	-2.278646	-1.454302	-1.22545
O	-2.727288	0.617609	-1.746524
C	-0.555337	1.136685	0.72233
N	-1.025724	2.034945	1.314516
Cl	3.299091	0.0	0.0
