13
Coordinates from ORCA-job run
  C   0.72253698373984     -0.60186532414295     -0.11768721410005
  C   -0.64857487225671     -0.07635154072290      0.35655208226892
  H   0.55217337861053     -1.55570432733407     -0.62794148608464
  H   -1.10095341969029     -0.80711079603170      1.03584206279406
  C   1.58509331739876     -0.82263537267548      1.04625826664437
  N   2.24908811573372     -1.01803344367879      1.99498922403738
  C   1.33180155478029      0.33210364844344     -1.06932001387994
  N   1.80043231621657      1.08326588762071     -1.84094231546751
  N   -1.60108838332134     -0.00520564975335     -0.83632490960582
  O   -2.46878174673167      0.85294858846082     -0.79731818418940
  O   -1.43889714974504     -0.86391229746557     -1.69389694595607
  C   -0.55114589649091      1.22351916714092      1.00335974916409
  N   -0.43268419824374      2.25898146013892      1.54542968437463
