13
Coordinates from ORCA-job run
  C   0.92329936855804     -0.15515008267150      0.27508182361163
  C   -0.55018284338929      0.23040138020506      0.50825309659709
  H   1.49859036683218      0.33788976323802      1.07063619069339
  H   -0.90028796887378     -0.19524131522379      1.45410865079348
  C   1.42188828723791      0.34712779138897     -1.00890722339285
  N   1.84336398754009      0.79455668513414     -2.00908687335613
  C   1.11636172193224     -1.60150342933719      0.42051985002299
  N   1.27369016216560     -2.74978936025804      0.60712198740782
  N   -1.47046865277099     -0.36721509500970     -0.55280558282052
  O   -0.95973668945955     -1.09249056679093     -1.39508353871849
  O   -2.65016814841266     -0.07468979103069     -0.42900579439113
  C   -0.72583402033247      1.67724817801246      0.51887675938210
  N   -0.82251557102732      2.84785584234318      0.54129065417063
