13
Coordinates from ORCA-job run
  C   0.70892355686905     -0.59530052853268     -0.16101556260867
  C   -0.64226056108918     -0.08593854539627      0.38779453641238
  H   0.50825016312696     -1.53073107693488     -0.69513880644834
  H   -1.07185297636606     -0.84952441778862      1.04407797135680
  C   1.62359483192620     -0.86031070072701      0.95216092356032
  N   2.33026387709968     -1.08927721529525      1.86168877435283
  C   1.27504346947448      0.37275396364844     -1.10544022568723
  N   1.70097033641076      1.15160901376472     -1.87428721011496
  N   -1.61244707183916      0.02658047958512     -0.78452234288541
  O   -1.66130046332742     -0.96788627233654     -1.49809993915018
  O   -2.26203437166246      1.05472857632071     -0.89409150059000
  C   -0.51711365548317      1.18363543909939      1.08644543395329
  N   -0.38103713513969      2.18866128459288      1.67942794784916
