13
Coordinates from ORCA-job run
  C   0.93451724976666     -0.21946421225329      0.20112701963331
  C   -0.49346789592742      0.24024057631747      0.55293815961620
  H   1.59164301669277      0.20512849586455      0.97248713094321
  H   -0.80202203315677     -0.20221836440236      1.50551158350173
  C   1.37144792856538      0.30900304341945     -1.09472140725905
  N   1.72511794177779      0.78007540592607     -2.11019247649714
  C   1.04882428645752     -1.67932930128381      0.27762966076076
  N   1.13927029869253     -2.84210718073554      0.41174525357042
  N   -1.51944388745183     -0.26106316376278     -0.46079457799749
  O   -2.66831063207829      0.09187380034685     -0.24179334176296
  O   -1.11237201045603     -0.97807619023117     -1.36429737424776
  C   -0.58290080026381      1.69293664498659      0.62950807933018
  N   -0.63230346261849      2.86300044580797      0.72085229040860
