12
Coordinates from ORCA-job run
  C   0.89061175626384     -0.41390429313547     -0.11125055327364
  C   -0.36146554714345      0.06803336398782     -0.03508268321133
  H   1.11654985918421     -1.43988011588503     -0.37245204041739
  N   2.09246698936735      0.38936029833058      0.07422390114017
  O   3.12008049650165     -0.10241778225113     -0.39433913602379
  O   2.00565551478304      1.46209738007487      0.66414008914642
  C   -1.55270157231895     -0.82011682734038     -0.27273852224657
  H   -2.19911120236859     -0.82027974757909      0.60798968211670
  H   -2.14039262579097     -0.44251343764715     -1.11275817439627
  H   -1.24439627779549     -1.84405528590625     -0.48694754254943
  C   -0.66504530491981      1.43743570299061      0.25974037914834
  N   -1.06125208576281      2.52524074436062      0.47147460056680
