12
Coordinates from ORCA-job run
  C   0.84774371027641     -0.27118910816313      0.35220889141572
  C   -0.35148855387590      0.04439061230917     -0.16592273246482
  H   1.00774699541895     -1.12768965797742      0.99468532360034
  N   2.08223183785676      0.46070564657937      0.09662726116064
  O   2.03104208391399      1.52199601515903     -0.51708393784307
  O   3.10082592631821     -0.07438155209263      0.53773887966356
  C   -1.56995505736946     -0.78316921150307      0.14414151214855
  H   -1.99608432360988     -1.18160281757791     -0.77964862930199
  H   -2.33315310994860     -0.16069259404152      0.61717776131877
  H   -1.32535760365809     -1.61218263762989      0.80911387621502
  C   -0.57618251652985      1.16022818820329     -1.03728762480570
  N   -0.91736938879255      2.02358711673469     -1.76075058110702
