12
Coordinates from ORCA-job run
  C   0.87772448670493      0.52545701637378      0.35957812392423
  C   -0.40690688066851      0.41855600128784     -0.03347095300349
  H   1.29437570062565      1.40369616226858      0.83877449142483
  N   1.83075416983184     -0.56937595046103      0.25491741991005
  O   2.73321166502737     -0.55952646853203      1.09194946979817
  O   1.68591736601575     -1.39823874438686     -0.64251917750866
  C   -1.10221355483981     -0.77834416456961     -0.62054518329309
  H   -0.64146390204393     -1.71283713692762     -0.30947422932220
  H   -2.15163433519311     -0.76311332078737     -0.32303286861421
  H   -1.05780821017945     -0.73770022152849     -1.71200184113062
  C   -1.19884481137059      1.60373908873286      0.13653528640113
  N   -1.86311169391014      2.56868773852993      0.24928946141386
