12
Coordinates from ORCA-job run
  C   0.87030719257559      0.61170371034870      0.22687299272700
  C   -0.41022408072159      0.41315185791522     -0.14453041944189
  H   1.31661209497307      1.58802029840646      0.36567293998884
  N   1.82665466458162     -0.46939877828291      0.40292683715562
  O   3.00728035615665     -0.15741822640184      0.24649119758422
  O   1.40926690644080     -1.58859330822365      0.69762285766838
  C   -1.10218503361408     -0.89506893768799     -0.41776531062513
  H   -1.46809369735542     -1.32504605814103      0.51817580206630
  H   -1.95287225782600     -0.72999482028642     -1.08008960275392
  H   -0.42350209683393     -1.61779208537782     -0.86604951464741
  C   -1.20089182372744      1.60400478219912     -0.27147572187312
  N   -1.87035222464926      2.56543156553214     -0.38685205784891
