12
Coordinates from ORCA-job run
  C   0.86768508039050     -0.10640233408910      0.38591527799459
  C   -0.34992958372718     -0.02167265461910     -0.17655735826795
  H   1.07095236013636     -0.69748271425484      1.26980720335575
  N   2.05003948353376      0.60598121667501     -0.08265611074930
  O   3.02313762318790      0.54345803164607      0.67058617320994
  O   2.00326509691894      1.19874992384621     -1.15588060737397
  C   -1.51919114351667     -0.78066970714003      0.39094355711173
  H   -2.31296816997004     -0.08619299526719      0.67612206027494
  H   -1.92822198856782     -1.45562629483692     -0.36461676926406
  H   -1.22523965543262     -1.36247781072436      1.26525188940917
  C   -0.64162797324687      0.77755557899106     -1.33013590111554
  N   -1.03890112970627      1.38477975977321     -2.25677941458530
