12
Coordinates from ORCA-job run
  C   0.91287892021537      0.60884460307439      0.04795526433893
  C   -0.41143978600821      0.41430007095689     -0.10711753927287
  H   1.37344701461699      1.58354648667183      0.15067696219574
  N   1.86835346179543     -0.47964742822369      0.17904132338770
  O   1.60875544276287     -1.56293483246638     -0.34393347773970
  O   2.88940198533385     -0.20872326771037      0.81092441910028
  C   -1.15311263607874     -0.89078702919017     -0.20393289273024
  H   -1.17544523130109     -1.22524700599334     -1.24432205080897
  H   -2.17936588087791     -0.75583001035938      0.13808346995747
  H   -0.66857986781777     -1.67120929163032      0.37886392949882
  C   -1.19662712119223      1.61161970591340     -0.21132593713069
  N   -1.86826630144856      2.57406799895714     -0.30191347079647
