12
Coordinates from ORCA-job run
  C   0.86194876102754     -0.12402630761289      0.39017166468283
  C   -0.35196714060679     -0.00708804046504     -0.17432964332598
  H   1.03683590702665     -0.66988114236641      1.30861162414395
  N   2.08134001043897      0.48577744761573     -0.12569808770637
  O   2.05507680751355      1.03710843377325     -1.22164426843850
  O   3.06181431334332      0.38697364264960      0.61408946031311
  C   -1.55804520065169     -0.66147544060638      0.44459098612454
  H   -1.29103673342812     -1.20105519964011      1.35390892048346
  H   -2.30978672730963      0.09355275674839      0.68665417228112
  H   -2.00879545866930     -1.36027292540926     -0.26392587655337
  C   -0.60564186036294      0.72863354116881     -1.37815329886500
  N   -0.97274267832154      1.29175323414429     -2.34427565313978
