12
Coordinates from ORCA-job run
  C   0.89514927870513      0.59226488837929      0.18994199678598
  C   -0.39876563527055      0.42193799772590     -0.14631655377258
  H   1.36975574772416      1.55951782971365      0.29954597839821
  N   1.82420737262894     -0.51167453233557      0.37079062435389
  O   1.38170048080997     -1.61382308022477      0.69288704535169
  O   3.00974874582107     -0.23512839487231      0.18824993676364
  C   -1.13714768092902     -0.86989067838258     -0.36907018947418
  H   -1.48655763908253     -1.26580799133830      0.58777914456431
  H   -0.49411117616914     -1.62539803818364     -0.81629490566523
  H   -2.00173574890113     -0.69459929955613     -1.00907190426327
  C   -1.15679109705373      1.63295455400385     -0.28654696203837
  N   -1.80545264828317      2.60764674507061     -0.40889421100409
