12
Coordinates from ORCA-job run
  C   0.86692878838397      0.50201619783887      0.40205003020201
  C   -0.40708425008822      0.41715253306149     -0.02833450152479
  H   1.27635578794415      1.36518929620339      0.91204913895587
  N   1.81696271799339     -0.59515301729555      0.30610216075746
  O   1.68977131661839     -1.41311887115617     -0.60420546561736
  O   2.69889810659024     -0.60124200818236      1.16474902538228
  C   -1.08994612653294     -0.74587395923566     -0.69339170531019
  H   -0.65289974506573     -1.69525619536026     -0.39287748653955
  H   -0.98197221394477     -0.66203402881916     -1.77826388233601
  H   -2.15340501911931     -0.73252154114541     -0.45263337300295
  C   -1.19576731894905      1.60209050710558      0.16009592687941
  N   -1.86784204383014      2.55875108698526      0.29666013215382
