12
Coordinates from ORCA-job run
  C   0.85827489615858     -0.26426150232010      0.33504395118433
  C   -0.35371597389719      0.04161198509464     -0.15859643782294
  H   1.03757220257804     -1.11714535102593      0.97723741749101
  N   2.08236546275719      0.47426874605963      0.04980917984703
  O   2.01112977145281      1.53255266325172     -0.56706949526315
  O   3.11349801751591     -0.05220145556981      0.47176203755732
  C   -1.56014955659806     -0.79215854291475      0.18062180629042
  H   -2.31696219246031     -0.17228172500439      0.66716682071557
  H   -1.29644201189944     -1.61689788850951      0.84361153464319
  H   -2.00340516067108     -1.19703219428885     -0.73225770893306
  C   -0.60451807482609      1.15261009840529     -1.02902620754548
  N   -0.96664738011037      2.01093516682208     -1.74830289816423
