12
Coordinates from ORCA-job run
  C   0.86266168533221     -0.28658291206686      0.30764398622559
  C   -0.35530940657637      0.05113201479022     -0.14913531105762
  H   1.03258174758853     -1.11613861517357      0.98211707666133
  N   2.10328957088355      0.39067734603843     -0.04962106213215
  O   2.05506007782319      1.39178002029485     -0.75733809296134
  O   3.12381289682785     -0.12453759504716      0.41047736751182
  C   -1.57927116947935     -0.71732790661710      0.27165602048324
  H   -2.28950969502963     -0.04787292887066      0.76269506081735
  H   -2.07616807875649     -1.13823890010679     -0.60564081653215
  H   -1.32167870314080     -1.52615769193389      0.95629513802228
  C   -0.59765438559706      1.13789784640790     -1.05199144297817
  N   -0.95781453987563      1.98436932228464     -1.78615792406020
