12

C	0.0	0.0	0.0
C	-0.543567	0.00996	-1.41091
Cl	1.800298	0.0	0.0
H	-1.638465	0.035931	-1.254725
H	-0.289039	0.927796	0.493408
H	-0.237225	-0.89498	-1.946222
H	-0.192466	0.8836	-1.967923
C	-0.543569	-1.164247	0.797049
H	-0.237205	-2.114013	0.346046
H	-0.192489	-1.137633	1.83282
H	-1.638466	-1.020243	0.731244
F	-3.001118	0.0	0.0
