12

C	0.0	0.0	0.0
C	-0.365342	-0.010917	-1.551796
F	1.374069	0.0	0.0
H	-1.483288	-0.186013	-1.638813
H	-0.222038	-0.901929	0.54016
H	-0.219881	0.914087	0.524656
C	0.13304	-1.16053	-2.211302
N	0.3941	-2.145167	-2.798388
N	-0.0627	1.272472	-2.160778
H	-0.457824	1.220413	-3.095182
H	-0.611147	1.980783	-1.666214
Cl	-2.145059	0.0	0.0
