12

C	0.0	0.0	0.0
C	-0.575705	-0.400296	-1.360022
F	1.374064	0.0	0.0
H	-1.494892	-0.959135	-1.149943
H	-0.332021	-0.709696	0.760136
H	-0.358821	0.996705	0.253791
C	0.347214	-1.287537	-2.075191
N	1.03943	-2.028028	-2.668543
N	-0.859457	0.801382	-2.160086
H	-1.712895	1.170749	-1.737086
H	-1.12834	0.503741	-3.092474
Cl	-3.468517	0.0	0.0
