12

C	0.0	0.0	0.0
C	-0.431357	-0.061419	-1.481038
F	1.376995	0.0	0.0
H	0.495907	-0.294017	-2.016111
H	-0.360085	-0.899059	0.499269
H	-0.357658	0.891342	0.513386
C	-0.825304	1.279625	-1.977402
N	-1.045257	2.339626	-2.432804
N	-1.370079	-1.141052	-1.725897
H	-1.599636	-1.160246	-2.712746
H	-2.236922	-0.92227	-1.221319
Cl	-3.732586	0.0	0.0
