12

C	0.0	0.0	0.0
C	-0.225143	0.03612	-1.524536
F	1.389023	0.0	0.0
H	0.394799	0.893086	-1.841555
H	-0.379524	-0.914281	0.445175
H	-0.379629	0.880595	0.509666
C	-1.514667	0.288087	-2.185922
N	-2.19054	0.527165	-3.121016
N	0.295554	-1.231199	-2.068878
H	0.188728	-1.218636	-3.076419
H	1.285136	-1.270414	-1.857742
Cl	-3.1591	0.0	0.0
