12

C	0.0	0.0	0.0
C	-0.500016	-0.214306	-1.420787
F	1.38508	0.0	0.0
H	-1.575119	-0.412432	-1.327253
H	-0.365735	0.957433	0.371723
H	-0.347069	-0.798809	0.657298
C	0.158914	-1.390983	-2.00765
N	0.686081	-2.335179	-2.463839
N	-0.318966	0.935122	-2.308407
H	-1.051884	1.599586	-2.084705
H	0.576788	1.368267	-2.109368
Cl	-3.432863	0.0	0.0
