12

C	0.0	0.0	0.0
C	-0.446769	0.135764	-1.464815
F	1.381076	0.0	0.0
H	0.419493	-0.203689	-2.044453
H	-0.352565	-0.962238	0.372518
H	-0.359011	0.810099	0.634483
C	-0.6291	1.563179	-1.831435
N	-0.75974	2.67211	-2.196013
N	-1.558405	-0.741733	-1.768088
H	-2.377339	-0.509496	-1.190724
H	-1.835116	-0.61432	-2.734613
Cl	-4.093469	0.0	0.0
