15

C	0.0	0.0	0.0
C	-0.564398	-0.431161	-1.416749
Cl	1.787695	0.0	0.0
H	-1.486914	-0.970843	-1.208185
C	-0.42436	1.366631	0.303355
N	-0.562494	2.514584	0.517596
C	-0.403117	-0.929681	1.060312
N	-0.558634	-1.690486	1.942492
N	0.406529	-1.430934	-1.991423
O	0.436727	-2.520534	-1.421944
O	1.105532	-1.099665	-2.942387
N	-0.832609	0.605001	-2.335748
H	-1.723188	1.015168	-2.069653
H	-0.105542	1.30819	-2.370855
Cl	-3.208707	0.0	0.0
