15

C	0.0	0.0	0.0
C	-0.534849	-0.2063	-1.430642
Cl	1.792461	0.0	0.0
H	-1.624339	-0.335482	-1.289218
C	-0.407919	1.329873	0.467741
N	-0.610912	2.419406	0.857443
C	-0.415638	-1.008856	0.983097
N	-0.559038	-1.779609	1.859017
N	0.013042	-1.52159	-1.967728
O	-0.149531	-2.518714	-1.273141
O	0.559881	-1.503987	-3.069882
N	-0.236193	0.904295	-2.249391
H	0.667482	0.811191	-2.693022
H	-0.950304	1.025683	-2.95243
Cl	-3.31968	0.0	0.0
