15

C	0.0	0.0	0.0
C	-0.540418	-0.45016	-1.41402
Cl	1.787895	0.0	0.0
H	-1.510302	-0.906411	-1.218332
C	-0.421928	1.375427	0.270505
N	-0.56744	2.52521	0.4699
C	-0.412261	-0.901422	1.079186
N	-0.549718	-1.643579	1.980359
N	0.364281	-1.549415	-1.913344
O	1.119035	-1.317623	-2.851119
O	0.262796	-2.620271	-1.319177
N	-0.679302	0.569974	-2.381532
H	0.102915	1.214027	-2.38849
H	-1.548242	1.055293	-2.184593
Cl	-3.198964	0.0	0.0
