15

C	0.0	0.0	0.0
C	-0.533129	-0.127191	-1.440594
Cl	1.792998	0.0	0.0
H	-1.623133	-0.260336	-1.307406
C	-0.405182	1.303688	0.540721
N	-0.603748	2.372338	0.986424
C	-0.416556	-1.060869	0.926636
N	-0.55939	-1.875736	1.761804
N	0.011806	-1.414892	-2.044893
O	-0.160757	-2.447485	-1.406848
O	0.56745	-1.339808	-3.140332
N	-0.228724	1.023671	-2.198732
H	0.678676	0.954122	-2.640288
H	-0.938914	1.18404	-2.898999
Cl	-3.318049	0.0	0.0
