15

C	0.0	0.0	0.0
C	-0.531159	-0.173158	-1.436915
Cl	1.792422	0.0	0.0
H	-1.621116	-0.29905	-1.30088
C	-0.410144	1.317988	0.499549
N	-0.59963	2.396153	0.926107
C	-0.416115	-1.036139	0.955235
N	-0.548077	-1.836171	1.806661
N	0.011805	-1.481651	-1.994033
O	-0.224628	-2.49986	-1.352966
O	0.633568	-1.437363	-3.056159
N	-0.219222	0.950236	-2.232757
H	-0.941619	1.101898	-2.921728
H	0.676438	0.849123	-2.690201
Cl	-3.31556	0.0	0.0
