15

C	0.0	0.0	0.0
C	-0.619023	-0.077379	-1.47948
Cl	1.784876	0.0	0.0
H	-0.669466	-1.131357	-1.754867
C	-0.418662	1.244096	0.648186
N	-0.68954	2.260529	1.172102
C	-0.461382	-1.161998	0.753902
N	-0.766548	-2.140445	1.329073
N	0.401742	0.543312	-2.403981
O	1.001198	-0.197038	-3.178357
O	0.540439	1.759425	-2.31196
N	-1.837208	0.573808	-1.691456
H	-2.65755	0.15962	-1.210155
H	-1.790093	1.550992	-1.42801
Cl	-4.338871	0.0	0.0
