16

C	-0.538574	0.003635	-1.41438
C	0.0	0.0	0.0
F	0.049421	-0.962339	-2.156407
H	1.0911	0.0	0.0
H	-1.619966	-0.117716	-1.457968
N	-0.268157	1.335293	-2.080525
O	-1.051281	2.233156	-1.772185
O	0.65396	1.415888	-2.875421
N	-0.452864	-1.285313	0.635937
O	0.136257	-1.629964	1.653805
O	-1.415111	-1.882749	0.141683
C	-0.488232	1.134561	0.886699
H	-0.069498	2.079149	0.543857
H	-1.579093	1.210494	0.896601
H	-0.117625	0.95103	1.895598
Cl	3.284004	0.0	0.0
