16

C	-0.403465	0.258078	-1.437539
C	0.0	0.0	0.0
F	0.068959	1.462148	-1.837979
H	1.098487	0.0	0.0
H	-0.064686	-0.527641	-2.110083
N	-1.915667	0.3052	-1.553334
O	-2.475149	-0.790155	-1.542981
O	-2.465492	1.399708	-1.606314
N	-0.37916	-1.407468	0.34707
O	-0.981017	-1.6057	1.402329
O	-0.021618	-2.285586	-0.434458
C	-0.55687	1.002477	0.978439
H	-0.110661	0.83818	1.957838
H	-0.281951	2.00214	0.640283
H	-1.642169	0.937375	1.071736
Cl	3.247668	0.0	0.0
