16

C	-0.535477	-0.074936	-1.41477
C	0.0	0.0	0.0
F	0.156328	-0.96274	-2.162679
H	1.092399	0.0	0.0
H	-1.596702	-0.314953	-1.457364
N	-0.418639	1.280474	-2.076391
O	-1.365647	2.041611	-1.873296
O	0.574177	1.517584	-2.748268
N	-0.430737	-1.250859	0.713917
O	-1.14745	-2.061136	0.120061
O	-0.043393	-1.381235	1.869732
C	-0.47395	1.197128	0.807254
H	-0.041224	2.108784	0.396615
H	-1.562972	1.291963	0.815651
H	-0.101617	1.082039	1.824118
Cl	3.26315	0.0	0.0
