16

C	-0.535683	-0.0565	-1.414139
C	0.0	0.0	0.0
F	-1.90883	-0.03455	-1.438291
H	1.089118	0.0	0.0
N	-0.083665	1.252815	-2.088513
O	-0.872732	2.189071	-2.047254
O	1.042557	1.25597	-2.562701
C	-0.063738	-1.138885	-2.281496
N	0.261968	-1.945779	-3.070255
N	-0.405747	-1.227793	0.714151
O	-0.381105	-1.214887	1.94251
O	-0.619971	-2.237229	0.026611
N	-0.339247	1.17618	0.709913
H	-1.140843	1.677238	0.360431
H	0.481246	1.766005	0.795049
H	2.474512	0.0	0.0
