16

C	-0.526523	0.005835	-1.418852
C	0.0	0.0	0.0
F	-0.008316	1.085328	-2.079112
H	1.09029	0.0	0.0
N	-0.058599	-1.188055	-2.255669
O	-0.766662	-1.478816	-3.216732
O	1.026722	-1.668279	-1.971835
C	-1.993893	0.080488	-1.48781
N	-3.159907	0.22608	-1.47645
N	-0.469311	-1.181397	0.684725
O	-0.945625	-2.119349	0.00704
O	-0.284576	-1.230343	1.912793
N	-0.315769	1.224025	0.6588
H	0.472194	1.466168	1.253015
H	-1.151111	1.135711	1.22424
H	2.405143	0.0	0.0
