16

C	-0.603523	0.028918	-1.386911
C	0.0	0.0	0.0
F	-0.118463	1.11616	-2.059688
H	1.090478	0.0	0.0
N	-0.196642	-1.152702	-2.267941
O	0.947196	-1.556815	-2.131338
O	-1.011403	-1.514666	-3.112398
C	-2.071637	0.112877	-1.356653
N	-3.233257	0.266844	-1.268518
N	-0.459134	-1.164361	0.703323
O	-0.28112	-1.195302	1.934214
O	-0.915911	-2.118899	0.034764
N	-0.263543	1.235214	0.676318
H	-0.957633	1.104357	1.400677
H	0.61211	1.520061	1.112765
H	2.372528	0.0	0.0
