16

C	-0.538066	0.01565	-1.412432
C	0.0	0.0	0.0
F	-1.909844	0.127194	-1.417167
H	1.089096	0.0	0.0
N	-0.003488	1.313695	-2.043705
O	1.131019	1.256418	-2.498007
O	-0.734799	2.295848	-1.987586
C	-0.16423	-1.054413	-2.339224
N	0.05316	-1.824517	-3.19955
N	-0.400249	-1.261627	0.657977
O	-0.579515	-1.263539	1.874742
O	-0.394666	-2.279416	-0.052378
N	-0.351414	1.14556	0.748974
H	-1.162313	1.646844	0.420851
H	0.460309	1.74332	0.854158
H	2.477507	0.0	0.0
