16

C	-0.541049	-0.042224	-1.411348
C	0.0	0.0	0.0
F	-1.901061	-0.212851	-1.430832
H	1.089622	0.0	0.0
N	-0.264456	1.339595	-2.024329
O	-1.215055	2.094431	-2.146985
O	0.902495	1.551305	-2.31919
C	0.061922	-1.016827	-2.327201
N	0.460957	-1.750678	-3.153242
N	-0.380555	-1.231966	0.681235
O	-0.644898	-1.170883	1.89238
O	-0.288825	-2.288183	0.035849
N	-0.370335	1.19723	0.668641
H	-1.22246	1.076543	1.200078
H	0.386336	1.43365	1.304194
H	2.4399	0.0	0.0
