16

C	-0.619724	0.008776	-1.387516
C	0.0	0.0	0.0
F	-0.285697	1.175535	-2.012337
H	1.097893	0.0	0.0
N	-0.080653	-1.0777	-2.326412
O	-0.885952	-1.821681	-2.873331
O	1.129381	-1.04563	-2.498699
C	-2.086498	-0.096513	-1.337217
N	-3.257592	-0.098244	-1.235413
N	-0.381933	-1.196333	0.693683
O	-0.573217	-2.219801	0.003388
O	-0.356712	-1.18466	1.937957
N	-0.313162	1.211336	0.69048
H	-0.958225	1.019143	1.446909
H	0.559499	1.545326	1.096476
H	2.368835	0.0	0.0
