17

C	-0.508737	-0.000714	-1.440461
C	0.0	0.0	0.0
Cl	-2.218454	-0.471363	-1.573601
H	1.088764	0.0	0.0
C	-0.288373	1.304705	-2.178054
H	-0.934391	2.075196	-1.755811
H	0.755067	1.617858	-2.094793
H	-0.550392	1.169849	-3.227843
N	0.229663	-1.137161	-2.174112
O	0.88047	-1.894274	-1.458863
O	0.180863	-1.100788	-3.397746
C	-0.531023	-1.11385	0.764685
N	-0.982859	-2.029501	1.395662
N	-0.415502	1.297902	0.639069
O	0.49397	2.138591	0.748102
O	-1.585212	1.426118	0.986274
Cl	2.674187	0.0	0.0
