17

C	-0.384468	0.099265	-1.480848
C	0.0	0.0	0.0
Cl	-2.155171	0.085105	-1.711291
H	1.087957	0.0	0.0
C	0.245218	1.291266	-2.163181
H	0.071399	1.214921	-3.235212
H	1.317191	1.284243	-1.942208
H	-0.191316	2.213687	-1.787963
N	0.133155	-1.16903	-2.185529
O	0.503821	-2.097652	-1.481133
O	0.114477	-1.148193	-3.409611
C	-0.586198	-1.121273	0.713716
N	-1.06295	-1.997595	1.335537
N	-0.438502	1.277906	0.684444
O	-1.508873	1.26563	1.292523
O	0.304441	2.244768	0.557694
Cl	3.169039	0.0	0.0
