15
Coordinates from ORCA-job run
  C   -0.55391083281050     -0.02937518487560     -0.18073795008386
  C   0.77104347126591      0.12899802837580      0.03679542925453
  C   -1.30674836001397      0.15555397689070     -1.45353606130215
  H   -2.15939547679020      0.82056945710216     -1.29123789947388
  H   -0.66504555077753      0.58223740523467     -2.22366553735036
  H   -1.69755222438868     -0.80367580766155     -1.79810089368598
  N   -1.38622413337831     -0.49277621287508      0.93807064847997
  O   -2.18314015068264     -1.39510724332587      0.68393680196096
  O   -1.24533066241199      0.05680738876572      2.03007197132123
  C   1.55910413718250      0.58567865884758     -1.06945011584056
  N   2.23389104422816      0.96210408735287     -1.95813088368394
  C   1.51300584879180     -0.10566168437225      1.32687178933183
  H   1.02314902941364     -0.85319512050452      1.94863906368260
  H   1.56456134203335      0.82245464233132      1.90125768875424
  H   2.53059251833846     -0.43261239128596      1.10921594863536
