15
Coordinates from ORCA-job run
  C   -0.60388216862848      0.11158060296092     -0.02857702372038
  C   0.69798406521027      0.25919469225466      0.29916282180300
  C   -1.22370713499632     -0.87404657035210     -0.96044167233695
  H   -1.76697099101009     -1.63486419216885     -0.39648667711296
  H   -1.94773315823771     -0.36814311231512     -1.60389116676073
  H   -0.47959450200910     -1.35556430931032     -1.59078958048337
  N   -1.60066063977890      0.96584864013580      0.64335378476828
  O   -1.37626466154388      2.17045185090385      0.72871770455543
  O   -2.60527017750597      0.38489510662266      1.05266870941604
  C   1.12036685888287      1.23700278515527      1.25975722216161
  N   1.58909524154325      1.97981871667156      2.04359540036429
  C   1.82411282084706     -0.56802040124504     -0.26262927585606
  H   1.47178959913702     -1.36543495644684     -0.91337488268922
  H   2.39554914716236     -1.01455183040040      0.55446015754235
  H   2.50718570092761      0.07283297753393     -0.82652552165131
