15
Coordinates from ORCA-job run
  C   -0.57524801120722      0.17195202828495     -0.11863076294278
  C   0.74125182216006      0.26792535533102      0.16441685374065
  C   -1.36713840501564     -1.03686357205450     -0.48333656533215
  H   -2.00718945409862     -1.32921446596196      0.35058496443813
  H   -2.01614340658951     -0.82116311666483     -1.33653394284641
  H   -0.72443188846120     -1.87643213693837     -0.74069768764432
  N   -1.40925449570742      1.37921466432363      0.00810134705868
  O   -1.04124632829722      2.39970773127373     -0.56998290748834
  O   -2.43549765496305      1.25004606602226      0.67383393360369
  C   1.31626486369966      1.51247471651190      0.58245281941754
  N   1.89087232473196      2.47185672204222      0.95042309739999
  C   1.71035864836818     -0.88433656290611      0.13302408116833
  H   2.60985670741955     -0.58478999912792     -0.41141010973009
  H   1.29421248726562     -1.76605450558253     -0.35175223447038
  H   2.01433279069484     -1.15432292455350      1.14950711362746
