15
Coordinates from ORCA-job run
  C   -0.53633721826123     -0.01700446273707     -0.23374909210239
  C   0.76908832722521      0.07089525714332      0.10421744842325
  C   -1.17410497993022      0.35182033075887     -1.53001335039400
  H   -1.78473114574655     -0.47948286849008     -1.89392698687129
  H   -1.83330812569781      1.21028675469708     -1.39314885942362
  H   -0.41821982536905      0.58983165348779     -2.27873446005705
  N   -1.49056434465252     -0.47576783561829      0.78428917922331
  O   -1.24590571909790     -1.52486037742811      1.37855261413855
  O   -2.48324670219600      0.23253541138649      0.95043777273082
  C   1.67906684648202      0.52245183900601     -0.90667650335955
  N   2.46270144720309      0.87389897123224     -1.71206792767991
  C   1.38658082960143     -0.26749739670338      1.43540065958240
  H   1.87905254292949     -1.24225011028119      1.37073465503296
  H   0.64795576859911     -0.32283194338591      2.23268140754174
  H   2.14197229891092      0.47797477693222      1.69100344321481
