15
Coordinates from ORCA-job run
  C   -0.52728234151268     -0.03903466218396     -0.24616466185046
  C   0.76491615832146      0.10434684968950      0.12151854933724
  C   -1.14003948498900      0.21604201776211     -1.58110474695765
  H   -1.78680658680011      1.09384211185520     -1.52522035968119
  H   -0.36726129911396      0.38151945816360     -2.33158369827402
  H   -1.75225622223701     -0.63356069265458     -1.89040723085457
  N   -1.49929419575518     -0.43300766781264      0.77891580236562
  O   -2.48145460342974      0.29766367006145      0.90046642373458
  O   -1.27919080317266     -1.46011943552679      1.41881082470388
  C   1.70123980181301      0.47170295042713     -0.89822645021266
  N   2.49355782972927      0.76532737650381     -1.71819573663519
  C   1.34719517152129     -0.13569142579035      1.49023386831829
  H   0.58656578474052     -0.16575262770828      2.26738390219274
  H   2.07913197987875      0.63889271877370      1.72862732163238
  H   1.86197881100606     -1.10217064155991      1.48294619218101
