15
Coordinates from ORCA-job run
  C   -0.60755271483253      0.09300669029571      0.01720058492184
  C   0.71195600279144      0.29701160278678      0.22067999331501
  C   -1.28388393536886     -1.09080179543211     -0.58736507867901
  H   -1.64767420938010     -0.84656586914977     -1.58745952341711
  H   -2.15223541994569     -1.36760365991161      0.01532873127401
  H   -0.61708135311770     -1.94786825127396     -0.64637358549294
  N   -1.54833432698345      1.17709463201608      0.35501281912529
  O   -1.42776846578410      1.73963674835293      1.44021143650893
  O   -2.40621184412184      1.41628944863701     -0.49412513348710
  C   1.20047257250473      1.52546391329617      0.77704436398470
  N   1.72343779806890      2.49208758185624      1.19903662924621
  C   1.79575324806847     -0.69229033487740     -0.11807156393824
  H   2.30207618419620     -1.01314973948229      0.79623838695944
  H   2.54382899454566     -0.21433067570863     -0.75467368848425
  H   1.41321746935888     -1.56998029140516     -0.63468437183678
