15
Coordinates from ORCA-job run
  C   -0.52815598750724      0.01769441823352     -0.23827463792902
  C   0.77912776723581      0.05810512805973      0.09801566124044
  C   -1.16648723166511      0.37527801950489     -1.53568445728820
  H   -1.66872956584028     -0.49944894548170     -1.95453358928178
  H   -0.42597102851760      0.74406065973521     -2.24485312897979
  H   -1.92145588706263      1.15110657177805     -1.37924235138495
  N   -1.47327308619645     -0.46913269139645      0.77625250808421
  O   -2.25185979229355     -1.35225233537870      0.41935068690077
  O   -1.43507003006179      0.05197450798796      1.89054519814985
  C   1.69167417548518      0.56505555242293     -0.88329551033210
  N   2.46301455649928      0.99493981670876     -1.66210931582201
  C   1.36959737781496     -0.33926668911975      1.42634871813122
  H   2.40199192072014     -0.66050603697674      1.28487273097004
  H   0.80839262262543     -1.15011619876549      1.88990296143032
  H   1.35720418876388      0.51150822268778      2.11170452611100
