15
Coordinates from ORCA-job run
  C   -0.60532657882311      0.09282244577212      0.01989706223556
  C   0.71575933676980      0.29948398687772      0.20786860265325
  C   -1.29016043536448     -1.09816931689918     -0.55992703062701
  H   -1.66992814554535     -0.86386348666510     -1.55644468346778
  H   -0.62536784751375     -1.95679898248060     -0.61951095642683
  H   -2.14915488950371     -1.36742365004379      0.05982204271865
  N   -1.54174391252854      1.18218007461955      0.35187251975273
  O   -1.43314361858210      1.73293789243579      1.44453123634318
  O   -2.38385570967084      1.43601171438344     -0.50847830637015
  C   1.20542058666702      1.53550741420672      0.74581708371923
  N   1.72344640945850      2.51089192798011      1.15348896188660
  C   1.79612597902846     -0.69531037987709     -0.12597270025548
  H   2.28816175070348     -1.03016175745335      0.79132912069308
  H   2.55581057313322     -0.21668491472678     -0.74840756852804
  H   1.41295650177137     -1.56442296812956     -0.65688538432698
