15
Coordinates from ORCA-job run
  C   -0.56483894207218      0.01364094586942     -0.10357233634235
  C   0.70396018622568     -0.08351563796089      0.34858817417552
  C   -1.79483645738518     -0.62232742563582      0.45549891068237
  H   -2.60226625719463      0.11148415400185      0.54320366578266
  H   -1.59780661239939     -1.05186214327868      1.43774131839407
  H   -2.13556776125764     -1.41123232344843     -0.21440922705828
  N   -0.80747524771487      0.76005292861948     -1.34260778916509
  O   -1.43743424446428      0.17793741338503     -2.22384773275060
  O   -0.40859843511598      1.92431150145559     -1.38835557499999
  C   0.89433594552799     -0.82803455625221      1.55968043922556
  N   1.06214749940575     -1.46040035257285      2.53969851041798
  C   1.93311040319407      0.50520088262252     -0.28946490377429
  H   2.75020157483425     -0.21629564919789     -0.24282637562555
  H   2.24314504409291      1.40427334997129      0.24827369228424
  H   1.76192330432350      0.77776691242160     -1.32960077124625
