15
Coordinates from ORCA-job run
  C   -0.59604014300316      0.14774062914870     -0.04404940749980
  C   0.72364292585506      0.28127530392210      0.21228695309709
  C   -1.30686459820789     -1.01284411736118     -0.65438514821142
  H   -2.01876012955244     -0.65659562273997     -1.40277086584134
  H   -0.61441507361753     -1.69859197216755     -1.13774866446655
  H   -1.87828314143654     -1.54873171740550      0.10612858799118
  N   -1.51103834881855      1.22630326359130      0.37231149696368
  O   -2.55316723290353      0.85633887475940      0.91251667476067
  O   -1.18941343021217      2.38969643354341      0.14425699170047
  C   1.25209649097487      1.45766792184957      0.83940928191198
  N   1.80332903183798      2.35310397141033      1.36899838058232
  C   1.76312449390419     -0.75869377735576     -0.11927216236215
  H   2.44513245351379     -0.87872699729553      0.72477873527897
  H   1.32212688742509     -1.72783001582451     -0.34591740680757
  H   2.35752981424084     -0.43111217807483     -0.97754344709753
