15
Coordinates from ORCA-job run
  C   -0.56368604666683     -0.04500514830804     -0.14296836395581
  C   0.70339605243749     -0.11767889735785      0.32272737182367
  C   -1.76328011008201     -0.79226681320737      0.32967814160515
  H   -2.26033481513563     -1.27619774155154     -0.51548367683033
  H   -2.47803235887591     -0.10203340214245      0.78163480985865
  H   -1.48315498376226     -1.55131039811049      1.05924475651656
  N   -0.84997062413449      0.91893474645152     -1.21444819281559
  O   -0.09218789919812      0.94804163074764     -2.18357652655975
  O   -1.85077988980284      1.61821275390998     -1.06182747819031
  C   0.95746733181909     -1.06760088386757      1.36503134001684
  N   1.19907892565003     -1.83981136753086      2.22065240217129
  C   1.88988420450246      0.68205198539758     -0.14917066762831
  H   1.59512636205461      1.64973202043933     -0.55190022357868
  H   2.58093409880323      0.83553326180917      0.68061276189350
  H   2.41453975239117      0.13939825332094     -0.93920645432689
