13

C	0.0	0.0	0.0
C	-0.501026	-0.053717	-1.427299
F	1.395661	0.0	0.0
H	-0.115927	-0.964438	-1.896913
H	-0.143559	0.814791	-1.988302
H	-1.598967	-0.062354	-1.321545
C	-0.386108	1.281068	0.635414
N	-0.503122	2.32449	1.158784
C	-0.501755	-1.169279	0.820271
H	-1.599812	-1.086922	0.753046
H	-0.139631	-1.095083	1.849841
H	-0.12203	-2.094251	0.374022
F	-2.858603	0.0	0.0
