13

C	0.0	0.0	0.0
C	-0.516363	0.012162	-1.422164
F	1.39566	0.0	0.0
H	-0.172376	-0.894916	-1.929767
H	-0.141929	0.889091	-1.957725
H	-1.613573	0.025175	-1.301395
C	-0.391803	1.2522	0.68819
N	-0.54198	2.273912	1.246206
C	-0.5164	-1.194673	0.771478
H	-0.171965	-2.108928	0.277238
H	-1.6136	-1.085737	0.717443
H	-0.142498	-1.177659	1.799166
F	-2.887956	0.0	0.0
