16

C	-0.219377	0.227062	-1.516246
C	0.0	0.0	0.0
F	-0.099896	-1.010085	-2.166632
H	1.09897	0.0	0.0
N	-1.560006	0.653956	-1.841127
H	-1.667743	0.614131	-2.849256
H	-1.658525	1.618706	-1.548974
N	0.820075	1.115779	-1.889064
H	0.903	1.160972	-2.897035
H	1.701025	0.807684	-1.442248
N	-0.588048	-1.274633	0.472799
O	0.008356	-2.304589	0.172604
O	-1.627545	-1.228835	1.137257
C	-0.531249	1.120847	0.746418
N	-0.926418	2.065122	1.32369
F	2.569273	0.0	0.0
