16

C	-0.230095	-0.112171	-1.521372
C	0.0	0.0	0.0
F	-0.188463	1.232053	-1.982415
H	1.102895	0.0	0.0
N	0.850037	-0.853852	-2.049416
H	0.919198	-0.719366	-3.050887
H	1.718782	-0.592219	-1.557485
N	-1.547513	-0.560166	-1.904706
H	-1.549274	-1.570159	-1.836333
H	-1.695817	-0.289032	-2.870447
N	-0.423928	-1.200422	0.766572
O	-0.4564	-1.086341	1.990878
O	-0.655873	-2.245457	0.161415
C	-0.586587	1.181797	0.590055
N	-1.040374	2.153744	1.069444
F	2.549311	0.0	0.0
