14

C	-0.469938	0.098545	-1.445922
C	0.0	0.0	0.0
Cl	-2.219796	0.323502	-1.588267
H	1.09377	0.0	0.0
H	0.030737	0.943876	-1.910978
N	-0.048666	-1.126729	-2.220898
O	-0.776385	-2.114064	-2.194699
O	1.03833	-1.031335	-2.781604
C	-0.501039	-1.211947	0.660588
N	-0.918752	-2.126332	1.269533
N	-0.377461	1.232382	0.684531
H	-1.274687	1.141566	1.143288
H	0.333919	1.434447	1.376316
Br	3.389564	0.0	0.0
