14

C	-0.58313	0.015752	-1.404737
C	0.0	0.0	0.0
Cl	0.069936	-1.260728	-2.433021
H	1.095453	0.0	0.0
H	-1.668839	-0.072762	-1.381777
N	-0.328586	1.349106	-2.064749
O	-1.164785	1.689253	-2.90131
O	0.676477	1.970377	-1.747842
C	-0.460265	-1.221957	0.65907
N	-0.853784	-2.171176	1.227923
N	-0.51557	1.191984	0.695822
H	-0.890932	0.939919	1.600664
H	0.279052	1.803615	0.848083
Br	3.444353	0.0	0.0
