14

C	-0.463937	0.090907	-1.442674
C	0.0	0.0	0.0
Cl	-2.223046	0.272318	-1.573748
H	1.093766	0.0	0.0
H	0.010169	0.94929	-1.904744
N	-0.032816	-1.110499	-2.242918
O	-0.610319	-2.171918	-2.037703
O	0.889411	-0.920374	-3.032406
C	-0.508044	-1.18897	0.690784
N	-0.943076	-2.076176	1.32564
N	-0.366566	1.24906	0.664774
H	0.386376	1.494991	1.29632
H	-1.223108	1.147672	1.192643
Br	3.380357	0.0	0.0
