14

C	-0.382264	0.104664	-1.477893
C	0.0	0.0	0.0
Cl	-2.127524	0.355543	-1.722583
H	1.094942	0.0	0.0
H	0.149988	0.942831	-1.922743
N	0.041952	-1.108869	-2.267979
O	-0.578428	-2.14969	-2.087105
O	0.999675	-0.946965	-3.017623
C	-0.555762	-1.193833	0.638681
N	-1.012858	-2.119203	1.198412
N	-0.360497	1.186249	0.759105
H	-1.246531	1.575417	0.467863
H	0.379351	1.869763	0.662632
Br	3.375659	0.0	0.0
