14

C	-0.589959	-0.035941	-1.405973
C	0.0	0.0	0.0
Cl	0.112471	-1.312832	-2.393415
H	1.093369	0.0	0.0
H	-1.671087	-0.161149	-1.389108
N	-0.379391	1.301876	-2.064089
O	-1.40415	1.896354	-2.396695
O	0.768006	1.689005	-2.205093
C	-0.454846	-1.20055	0.712952
N	-0.867725	-2.11164	1.329629
N	-0.428475	1.23677	0.647987
H	0.357762	1.606644	1.165577
H	-1.203152	1.088864	1.279053
Br	3.424052	0.0	0.0
