18

C	-0.345555	-0.003539	-1.46812
C	0.0	0.0	0.0
Cl	-2.134551	0.093154	-1.783414
H	1.10745	0.0	0.0
N	0.210799	1.263357	-2.143898
O	0.417052	1.204144	-3.352861
O	0.377738	2.25341	-1.445411
C	0.235208	-1.202637	-2.173374
H	-0.255307	-2.108789	-1.820418
H	1.302835	-1.233724	-1.923001
H	0.094463	-1.113869	-3.248006
C	-0.367282	-1.315154	0.695779
H	-1.413153	-1.597598	0.543442
H	-0.188844	-1.198791	1.76645
H	0.293892	-2.110408	0.346898
C	-0.556449	1.105996	0.756586
N	-1.018882	1.91879	1.470389
H	2.647962	0.0	0.0
