18

C	-0.51803	0.097279	-1.438572
C	0.0	0.0	0.0
Cl	0.072796	1.602894	-2.173722
H	1.106729	0.0	0.0
N	0.069968	-1.081856	-2.230778
O	-0.526567	-2.149465	-2.072371
O	1.058653	-0.918981	-2.926941
C	-2.026815	0.047714	-1.592605
H	-2.457946	0.903412	-1.072008
H	-2.420328	-0.875337	-1.171082
H	-2.300836	0.101572	-2.649217
C	-0.347004	-1.296787	0.737155
H	0.169653	-2.134994	0.269282
H	-1.418124	-1.509942	0.790695
H	0.047119	-1.202368	1.752085
C	-0.498948	1.139411	0.744507
N	-0.902193	2.039108	1.388216
H	2.645539	0.0	0.0
