18

C	-0.561756	0.129658	-1.416027
C	0.0	0.0	0.0
Cl	0.198334	1.511674	-2.241723
H	1.105905	0.0	0.0
N	-0.164394	-1.144227	-2.171563
O	0.942446	-1.211173	-2.682537
O	-0.999868	-2.051097	-2.148349
C	-2.067072	0.291951	-1.503949
H	-2.570396	-0.526005	-0.99121
H	-2.339708	1.238038	-1.036392
H	-2.387348	0.305591	-2.54799
C	-0.347223	-1.316896	0.698738
H	0.078506	-1.270837	1.703682
H	-1.418651	-1.521276	0.771301
H	0.148088	-2.142973	0.184888
C	-0.462825	1.13209	0.779704
N	-0.828271	2.042089	1.431663
H	2.648661	0.0	0.0
