18

C	-0.5649	-0.102273	-1.416806
C	0.0	0.0	0.0
Cl	0.251043	1.069297	-2.480845
H	1.105918	0.0	0.0
N	-0.228972	-1.507787	-1.926227
O	-1.116316	-2.35076	-1.776216
O	0.886545	-1.723774	-2.374189
C	-2.062508	0.109173	-1.535193
H	-2.598356	-0.566703	-0.871792
H	-2.390981	-0.06739	-2.560369
H	-2.287829	1.139303	-1.261886
C	-0.345766	-1.191214	0.897492
H	0.185644	-2.074888	0.538643
H	-1.414557	-1.409282	0.969996
H	0.043956	-0.972827	1.894706
C	-0.463242	1.241717	0.58843
N	-0.829004	2.242368	1.090431
H	2.643066	0.0	0.0
