12

C	0.0	0.0	0.0
C	-0.189759	-0.082385	-1.544979
Br	1.942527	0.0	0.0
H	0.257922	-1.020529	-1.887529
H	-0.265979	0.992097	0.362831
H	0.306968	0.771424	-2.005066
C	-0.886826	-0.983174	0.663236
N	-0.965422	-1.983501	1.315017
N	-1.569226	-0.076795	-2.128846
O	-2.066963	-1.170572	-2.400231
O	-2.035574	1.015538	-2.46593
H	-1.962304	0.0	0.0
