12

C	0.0	0.0	0.0
C	-0.526765	-0.03263	-1.41108
Br	1.947874	0.0	0.0
H	-1.669087	-0.09164	-1.151871
H	-0.340569	0.938028	0.439722
H	-0.282273	0.875579	-1.958787
C	-0.442502	-1.090272	0.876063
N	-0.579893	-1.946263	1.671584
N	-0.070246	-1.158057	-2.196314
O	0.097158	-2.245281	-1.629663
O	0.049495	-0.986585	-3.41786
H	-2.65263	0.0	0.0
