12

C	0.0	0.0	0.0
C	-0.554319	0.014148	-1.400966
Br	1.951558	0.0	0.0
H	-1.700328	-0.06045	-1.09459
H	-0.329054	0.927737	0.480295
H	-0.334486	0.941072	-1.915574
C	-0.434627	-1.116054	0.851746
N	-0.596145	-1.988244	1.621534
N	-0.100169	-1.076865	-2.23791
O	0.06189	-0.840718	-3.444731
O	0.041313	-2.188742	-1.71867
H	-2.686446	0.0	0.0
