12

C	0.0	0.0	0.0
C	-0.472846	0.053752	-1.436891
Br	1.948023	0.0	0.0
H	-0.13986	-0.792652	-2.033084
H	-0.348389	0.89058	0.520998
H	-1.600073	0.084233	-1.24991
C	-0.473234	-1.201499	0.685657
N	-0.574559	-2.21817	1.271081
N	-0.038104	1.275024	-2.099684
O	-0.04815	2.321153	-1.440472
O	0.234621	1.213609	-3.306498
H	-2.576007	0.0	0.0
