12

C	0.0	0.0	0.0
C	-0.399778	-0.167042	-1.476882
Br	1.950016	0.0	0.0
H	0.483146	-0.375693	-2.092424
H	-0.266894	0.984109	0.364178
H	-1.153189	-0.929144	-1.62267
C	-0.614363	-1.02952	0.836241
N	-0.640163	-1.957284	1.576383
N	-0.960134	1.077747	-2.078994
O	-0.58706	2.161056	-1.639532
O	-1.685977	0.931894	-3.060256
H	-2.127779	0.0	0.0
