12

C	0.0	0.0	0.0
C	-0.55047	-0.001992	-1.399415
Br	1.948762	0.0	0.0
H	-0.317046	0.915597	-1.934292
H	-0.341666	0.929728	0.462105
H	-1.684254	-0.067984	-1.131961
C	-0.437267	-1.105888	0.860577
N	-0.574731	-1.974381	1.643101
N	-0.077333	-1.098322	-2.216432
O	0.093566	-0.874248	-3.426262
O	0.071211	-2.204811	-1.68072
H	-2.748357	0.0	0.0
