12

C	0.0	0.0	0.0
C	-0.439082	-0.442567	-1.39148
Br	1.941131	0.0	0.0
H	-0.090206	0.268206	-2.138268
H	-0.367419	1.016219	0.138223
H	-1.551482	-0.464266	-1.284512
C	-0.482979	-0.827875	1.10849
N	-0.573617	-1.490344	2.079489
N	0.074872	-1.761529	-1.801187
O	0.735612	-1.823551	-2.846096
O	-0.253467	-2.73679	-1.118605
H	-2.584539	0.0	0.0
