17
Coordinates from ORCA-job run
  C   -0.84241762702883     -0.47184507404974      0.10290170397660
  C   0.66136811538712     -0.22960637701708      0.31423943844038
  H   -1.17861637749209     -1.27514836123041      0.77602042169603
  H   1.15409976441255     -1.20619979222549      0.24165090810728
  N   -1.00861879404739     -1.10762801694317     -1.26521074815006
  O   -0.45558691075909     -2.19893395716537     -1.39792979318329
  O   -1.65650254222705     -0.52438888954037     -2.12473750891037
  N   -1.55421679756837      0.75686545329850      0.18062163793548
  H   -1.19668846581279      1.26022612706954      0.98460409553764
  H   -2.55129652610858      0.61847218792874      0.26514728965553
  N   0.80132040002773      0.38625411882675      1.63714509803580
  H   1.71066696144768      0.82460596881372      1.71675240991230
  H   0.74297086809252     -0.32177494304606      2.36067905528142
  C   1.23033713851363      0.69943397205202     -0.74699558416268
  H   0.72977608744213      1.66715182231197     -0.71988602032852
  H   2.30108020809334      0.84428117803270     -0.57677210112750
  H   1.11232449762750      0.27723458288375     -1.74623030271604
