17
Coordinates from ORCA-job run
  C   -0.72857245438979     -0.28073809603697     -0.45487260091518
  C   0.40138449746808      0.31945928082635      0.38125413209628
  H   -0.47166467465884     -0.26756614921818     -1.51693638014541
  H   0.04444838611224      0.32649532060367      1.41756744681331
  N   -1.90689085718593      0.64931328476486     -0.33274366972953
  O   -2.39537529029642      0.73797907377813      0.78998190104982
  O   -2.29409075549925      1.22904044594925     -1.34007709818464
  N   -1.18742621017802     -1.59124456808954     -0.08816170384743
  H   -0.63448396699434     -2.31331696468994     -0.52511015682732
  H   -1.19081155941013     -1.71371832958977      0.91581127689407
  N   0.56984133870179      1.71024125164956     -0.02144089180460
  H   1.07010426969304      1.76587100907301     -0.90182083211126
  H   1.10615511062234      2.21789598456782      0.67040409601061
  C   1.65936341291642     -0.53984343912248      0.27422010385106
  H   1.99726232576556     -0.59185542328843     -0.76648848657562
  H   1.49839363205145     -1.55857934762227      0.63456537325032
  H   2.46536279528180     -0.09943333355509      0.86584749017552
