17
Coordinates from ORCA-job run
  C   -0.65898834155097     -0.34632541077788     -0.40775775983714
  C   0.48382485101873      0.29788008643187      0.37128012855563
  H   -0.46431822826995     -0.32130552194880     -1.48295695540132
  H   0.20374143858999      0.24532014676126      1.43023949910015
  N   -1.87313247553481      0.55383163555574     -0.23022543326263
  O   -2.28292061517340      1.16829099518610     -1.20903647354189
  O   -2.36238894670791      0.57912699251251      0.89699775137517
  N   -0.90461391053094     -1.68350883217842      0.02308438649900
  H   -1.22842290074786     -1.67819144462564      0.98336258497305
  H   -1.60301617865595     -2.13542420611630     -0.55338579802878
  N   0.52896863443990      1.71223682891400      0.01878247131436
  H   1.09712080071796      2.21970447038637      0.68493332442339
  H   0.95157158484019      1.83095589674711     -0.89569156451810
  C   1.78076349577530     -0.47203719148200      0.14157181767727
  H   2.06112677925065     -0.42583543275218     -0.91602895515768
  H   2.58963089346126     -0.02292036557884      0.72371838303896
  H   1.68105311907782     -1.52079864703491      0.42211259279054
