13

C	-0.56574	-0.011109	-1.409982
C	0.0	0.0	0.0
Br	0.041977	1.522871	-2.490287
H	1.093336	0.0	0.0
H	-1.654206	0.101937	-1.404122
H	-0.315422	-0.947158	0.458611
C	-0.2548	-1.233764	-2.144698
N	-0.046681	-2.249723	-2.697058
C	-0.508859	1.175514	0.821545
H	-1.60371	1.216342	0.880968
H	-0.147734	2.117758	0.405004
H	-0.109532	1.099157	1.835835
H	2.951242	0.0	0.0
