13

C	-0.558154	-0.042457	-1.411565
C	0.0	0.0	0.0
Br	-0.041546	1.549034	-2.449021
H	1.093181	0.0	0.0
H	-1.651577	-0.003951	-1.409959
H	-0.343707	0.933052	0.460283
C	-0.17286	-1.233125	-2.164498
N	0.047439	-2.215229	-2.770808
C	-0.47916	-1.207349	0.801212
H	-0.081935	-2.132022	0.374786
H	-0.086888	-1.131775	1.818439
H	-1.571882	-1.287402	0.85568
H	2.954527	0.0	0.0
