13

C	-0.376997	-0.03512	-1.462375
C	0.0	0.0	0.0
Br	-2.275771	-0.565562	-1.777124
H	1.096479	0.0	0.0
H	0.204155	-0.804293	-1.974906
H	-0.30611	-0.953892	0.443264
C	-0.18881	1.237487	-2.149969
N	-0.056298	2.266513	-2.701562
C	-0.557158	1.177695	0.776819
H	-0.209607	1.121243	1.811478
H	-1.651923	1.203317	0.779577
H	-0.187234	2.119844	0.364576
H	2.903712	0.0	0.0
