13

C	-0.445524	0.017044	-1.454891
C	0.0	0.0	0.0
Br	-0.076545	-1.674893	-2.393353
H	1.093719	0.0	0.0
H	0.147206	0.757625	-1.998594
H	-0.301048	0.977008	0.405148
C	-1.868201	0.297566	-1.623169
N	-3.013905	0.54548	-1.714767
C	-0.58094	-1.120195	0.843902
H	-1.67673	-1.133267	0.840517
H	-0.219366	-2.089755	0.49683
H	-0.241446	-0.99865	1.875773
H	2.947637	0.0	0.0
