19

C	0.0	0.0	0.0
C	-0.425955	-0.183513	-1.496515
F	1.398805	0.0	0.0
H	0.539549	-0.234596	-2.016722
C	-0.361314	1.343556	0.509424
N	-0.502174	2.430953	0.928806
C	-0.519562	-1.027521	0.979094
H	-1.614725	-0.915693	0.934733
H	-0.129928	-0.804155	1.976292
H	-0.196008	-2.0276	0.685913
C	-1.228458	0.997965	-2.046171
H	-1.451942	0.826725	-3.106535
H	-2.157001	1.030834	-1.463786
H	-0.681528	1.941971	-1.9656
C	-1.209682	-1.470423	-1.750086
H	-0.653651	-2.366837	-1.456398
H	-2.146287	-1.372418	-1.191413
H	-1.420898	-1.550826	-2.82326
F	-2.941035	0.0	0.0
