19

C	0.0	0.0	0.0
C	-0.417931	-0.085788	-1.506292
F	1.398936	0.0	0.0
H	0.549465	-0.107285	-2.025371
C	-0.364947	1.305157	0.596362
N	-0.506509	2.365029	1.080834
C	-0.513446	-1.09435	0.907955
H	-0.119381	-0.939224	1.916523
H	-0.185417	-2.070436	0.545512
H	-1.609112	-0.984299	0.875127
C	-1.215416	1.131394	-1.980972
H	-0.666543	2.066564	-1.8355
H	-2.144726	1.127449	-1.401222
H	-1.431694	1.028418	-3.049925
C	-1.204329	-1.351844	-1.846119
H	-0.655879	-2.269194	-1.609526
H	-2.142546	-1.286601	-1.284843
H	-1.410813	-1.362763	-2.922228
F	-2.928226	0.0	0.0
