19

C	0.0	0.0	0.0
C	-0.519336	0.16878	-1.429892
F	1.39887	0.0	0.0
H	-1.608971	0.24735	-1.252815
C	-0.389164	1.18402	0.801228
N	-0.54314	2.152521	1.446901
C	-0.510618	-1.249414	0.685174
H	-1.607866	-1.162293	0.596873
H	-0.110205	-2.13444	0.185577
H	-0.187051	-1.258863	1.729827
C	-0.214106	-1.065363	-2.27461
H	0.847418	-1.335671	-2.229592
H	-0.810963	-1.920293	-1.952186
H	-0.465693	-0.868182	-3.321721
C	0.053618	1.425638	-2.077603
H	1.141891	1.361899	-2.186727
H	-0.379792	1.561919	-3.073664
H	-0.179435	2.318412	-1.491556
F	-2.873458	0.0	0.0
