19

C	0.0	0.0	0.0
C	-0.418593	0.272803	-1.482712
F	1.398257	0.0	0.0
H	0.548794	0.375208	-1.992228
C	-0.364919	1.126376	0.890388
N	-0.507085	2.029363	1.627143
C	-0.515194	-1.277242	0.623422
H	-0.18229	-2.140966	0.044578
H	-1.611218	-1.164374	0.612521
H	-0.126667	-1.362018	1.642547
C	-1.211862	1.569447	-1.650205
H	-1.435523	1.723838	-2.71172
H	-2.138237	1.433832	-1.081494
H	-0.653809	2.439612	-1.291816
C	-1.205894	-0.874608	-2.11545
H	-2.152821	-0.933129	-1.566966
H	-1.393452	-0.63652	-3.169047
H	-0.66821	-1.827241	-2.085254
F	-2.931656	0.0	0.0
