13
Coordinates from ORCA-job run
  C   0.66063694078303     -0.23775715758127      0.38733457861578
  C   -0.81169489231695     -0.59191719064448      0.31973994308861
  Cl  1.33751768176072     -1.02639884199039      1.82595939504120
  H   -0.94319728271399     -1.67015655308418      0.23293235075846
  H   -1.32651632948300     -0.22078566138539      1.20510365072196
  N   0.83388901024119      1.27976095622369      0.60474647685770
  O   1.82231177859990      1.79083923797312      0.10754776681619
  O   -0.01498854048169      1.80641136144929      1.30610764957647
  C   1.40235246026360     -0.64524550302429     -0.79538875774158
  N   1.97394873856336     -1.05010275775678     -1.73923254463774
  N   -1.47604818435218      0.03294440576287     -0.86728847787741
  O   -2.60703215311869     -0.36442410443063     -1.10991739583755
  O   -0.85017922774528      0.89683180848845     -1.47664463538208
