13
Coordinates from ORCA-job run
  C   0.49043962116525      0.03724348977141      0.36560240228105
  C   -0.81894025091904      0.29115387230557     -0.36762391753791
  Cl  0.19879139982784     -0.18022993226147      2.09505580269067
  H   -0.63482270619509      0.41843997378931     -1.43485136843565
  H   -1.32032310856553      1.15724352164169      0.05385093408472
  N   1.38001681258213      1.30547634331473      0.21632855893412
  O   2.52925488054557      1.19096329256476      0.60450047378409
  O   0.84162810054027      2.29747642224276     -0.25512460003939
  C   1.26940056900071     -1.07218598010332     -0.16435151779769
  N   1.93077317071912     -1.93895920419801     -0.60431816872369
  N   -1.73029739077312     -0.88154417517712     -0.20546719011806
  O   -1.36872995629103     -1.93211871307789     -0.72781949693973
  O   -2.76719114163708     -0.69295891081243      0.42321808781746
