14
Coordinates from ORCA-job run
  C   -0.14196587308342     -0.26156850614648      0.43130960576502
  C   1.17583631412889     -0.35740446601429     -0.34514953874122
  Cl  0.25931968301716     -0.97909893094827      2.09643707719541
  H   1.96956817960376      0.14433859010182      0.21271066089230
  H   1.46751244774315     -1.40707041318114     -0.44582322730701
  C   -0.57934014949950      1.17056018506334      0.66437175116619
  H   0.19839982390725      1.73364558146644      1.18097761625226
  H   -0.79637267406396      1.64167936310478     -0.29657939398513
  H   -1.47963549709877      1.19150026635684      1.28201558978945
  N   -1.14891002585516     -0.98857090991431     -0.24526683260246
  H   -2.04511435699506     -0.91311856105513      0.21820769221264
  H   -0.91132920184611     -1.96666642682064     -0.35284340934837
  C   1.05748039127068      0.24556884188823     -1.67156276508867
  N   0.97455093877108      0.74720538609881     -2.72880482620041
