14
Coordinates from ORCA-job run
  C   -0.07452405346909     -0.08896632184580      0.38784928103474
  C   0.94535326753097      0.16762860868573     -0.72580185627395
  Cl  0.82718656477262     -0.51691373637412      1.88285145947845
  H   0.40718637637027      0.49180552724540     -1.62450254293189
  H   1.61112939560167      0.98250633095646     -0.43113138738709
  C   -0.86665872043613      1.18091135729166      0.67698010847969
  H   -0.21395489573737      2.00807529793844      0.96353118475430
  H   -1.43211575013180      1.46766037129214     -0.21528721520179
  H   -1.57172017935663      1.00174648300531      1.49076478857802
  N   -0.86852815587957     -1.24204818386842      0.02929604870931
  H   -1.41313679232202     -1.03751237628806     -0.80218639102487
  H   -1.50608693505134     -1.47873937158661      0.78062887604188
  C   1.74347499502884     -1.00965548044584     -1.05798401334252
  N   2.41139488307959     -1.92649850600628     -1.35600834091427
