14
Coordinates from ORCA-job run
  C   -0.13280738610755     -0.02690222102960      0.33662411532748
  C   0.93480639721138      0.23144967975068     -0.73109435949752
  Cl  0.78908902281835     -0.42999229859973      1.89242619695739
  H   1.64275007328735      0.98154847499748     -0.37358973217885
  H   0.43294890108052      0.61809345677343     -1.62321847902861
  C   -0.92902218311348      1.23312174273293      0.61862277583931
  H   -1.64298169311486      1.05484432550838      1.42508663896238
  H   -0.27185814511083      2.04785631438508      0.92388986557774
  H   -1.47823828017239      1.51827278255612     -0.28163505356965
  N   -0.98835581002869     -1.07603665969941     -0.08090589421412
  H   -1.72785535851245     -1.23697891822179      0.59130081303330
  H   -0.48405681561905     -1.94300718547351     -0.22698266321302
  C   1.65594308904499     -0.98591321440083     -1.09179307846859
  N   2.19963818833669     -1.98535627927923     -1.37873114552724
