14
Coordinates from ORCA-job run
  C   -0.14161176533704     -0.05105395552952      0.33277196069363
  C   0.96158778043139      0.23259569131866     -0.69131100707669
  Cl  0.71856842266149     -0.66973346223211      1.85180173683535
  H   0.50437765535984      0.73842900895131     -1.54715542816640
  H   1.71377747990351      0.89172908086350     -0.25357075291501
  C   -0.85325456111082      1.22903368483827      0.72746337815883
  H   -1.36454100520882      1.63786657082749     -0.14697082045338
  H   -1.59263921195031      1.02499045101670      1.50439602204900
  H   -0.14667881222272      1.96170885800485      1.11813197882067
  N   -1.06077465180619     -0.99022076046598     -0.19736049950837
  H   -1.82279148463589     -1.16197863108912      0.44639480156289
  H   -0.61579418843941     -1.87327130142026     -0.41996371731767
  C   1.60439664020492     -0.99116020817231     -1.16237175448779
  N   2.09637770215004     -1.97893502691149     -1.56125589819508
