14
Coordinates from ORCA-job run
  C   -0.25027689312640     -0.28746960196024      0.24572584074902
  C   0.72858972518600     -0.36923849465279     -0.93031501821501
  Cl  0.56117269360409     -1.15988474185236      1.65466160719655
  H   0.23910915110816      0.07961619314646     -1.79968700536337
  H   0.93463166317693     -1.41790203410014     -1.16315280818691
  C   -0.50920977814593      1.13721384266420      0.69161100592094
  H   -1.19824977013816      1.14492867207190      1.53868050433617
  H   0.41513051887659      1.62480287823793      0.99978659321440
  H   -0.95917452642498      1.69264272427797     -0.13489554683876
  N   -1.46485326848735     -0.91423798720866     -0.15093862868417
  H   -2.16154877308377     -0.84706192049816      0.58106961170623
  H   -1.32251347205649     -1.89428613901269     -0.36540351816551
  C   1.99048459645513      0.31836557136102     -0.67792117256199
  N   2.99670813305617      0.89051103752556     -0.48722146510758
