14
Coordinates from ORCA-job run
  C   -0.14022992292443     -0.21108820825160      0.56561618963557
  C   1.18816459679402     -0.33506877989743     -0.21471414258740
  Cl  0.26528430840264     -0.70977491933496      2.25076760103577
  H   1.94908295303813      0.32540055049219      0.20972580631537
  H   1.56009814131926     -1.36058487715767     -0.13569412378304
  C   -0.64344595190003      1.21944921737139      0.58884795562423
  H   -1.54683089376222      1.26949329029778      1.19611518459165
  H   -0.87998856913636      1.54927451314827     -0.42700703152600
  H   0.10855247448760      1.88912840271939      1.00793946276987
  N   -1.18813165471385     -1.07972237336562      0.10005518022309
  H   -1.52220359220385     -0.77169418401854     -0.80610290763493
  H   -0.87109133361803     -2.03941680232016      0.02984084532961
  C   0.97580707409968     -0.00698742122792     -1.62238404864319
  N   0.74593237011744      0.26059159154488     -2.74200597135057
