15

C	-0.404209	0.023995	-1.442267
C	0.0	0.0	0.0
F	0.007404	1.158238	-2.071536
H	1.095153	0.0	0.0
H	-0.360872	-0.940997	0.424284
N	0.24732	-1.160317	-2.168807
O	-0.111193	-2.264065	-1.772745
O	1.035881	-0.919404	-3.066212
C	-1.858462	-0.111831	-1.682119
N	-3.023435	-0.16973	-1.825894
C	-0.536567	1.208712	0.750949
H	-0.130233	2.124759	0.31855
H	-0.183553	1.159163	1.783436
H	-1.631668	1.278278	0.764208
F	2.60288	0.0	0.0
