15

C	-0.39737	0.005499	-1.438674
C	0.0	0.0	0.0
F	0.057777	-1.088052	-2.106857
H	1.094073	0.0	0.0
H	-0.348016	0.937587	0.444383
N	-1.938215	-0.049886	-1.562433
O	-2.448961	-1.118836	-1.870641
O	-2.533904	0.976371	-1.248734
C	0.019711	1.217255	-2.161775
N	0.331937	2.185497	-2.747458
C	-0.526432	-1.218265	0.743142
H	-0.04641	-1.250181	1.723489
H	-1.613623	-1.222603	0.888047
H	-0.243337	-2.131706	0.216459
F	2.595752	0.0	0.0
