15

C	-0.405793	0.033641	-1.442508
C	0.0	0.0	0.0
F	0.035189	1.155914	-2.0723
H	1.095088	0.0	0.0
H	-0.365594	-0.940065	0.421159
N	0.212687	-1.167852	-2.166489
O	-0.197404	-2.260654	-1.788669
O	1.033762	-0.949663	-3.040278
C	-1.862409	-0.062596	-1.679097
N	-3.02865	-0.083259	-1.823031
C	-0.526505	1.209677	0.757037
H	-1.620804	1.27898	0.790183
H	-0.1276	2.124456	0.315566
H	-0.15372	1.16227	1.782532
F	2.605789	0.0	0.0
