15

C	-0.477432	-0.028101	-1.412353
C	0.0	0.0	0.0
F	-1.842941	-0.206559	-1.536796
H	1.092026	0.0	0.0
H	-0.332695	-0.950824	0.434942
N	-0.18316	1.317351	-2.083504
O	-1.079016	2.153491	-2.047934
O	0.937651	1.461477	-2.552456
C	0.170025	-1.070293	-2.223228
N	0.581923	-1.958535	-2.869798
C	-0.523591	1.188637	0.794166
H	-0.262262	1.03795	1.844251
H	-1.605226	1.335657	0.718275
H	-0.022625	2.105575	0.475544
F	2.592507	0.0	0.0
