15

C	-0.422144	-0.059012	-1.44036
C	0.0	0.0	0.0
F	-0.138866	1.111825	-2.077479
H	1.094183	0.0	0.0
H	-0.368562	0.969773	0.354638
N	0.35054	-1.158361	-2.178835
O	0.012581	-2.303745	-1.89406
O	1.216658	-0.821818	-2.964973
C	-1.854587	-0.350377	-1.663914
N	-3.011411	-0.517331	-1.787689
C	-0.508177	-1.135786	0.87504
H	-0.044353	-2.077426	0.581796
H	-1.597314	-1.262508	0.85955
H	-0.200133	-0.931967	1.903312
F	2.598761	0.0	0.0
