16

C	-0.351676	-0.035075	-1.510297
C	0.0	0.0	0.0
Br	0.0614	1.847672	-2.218374
H	1.097265	0.0	0.0
N	0.472254	-1.018151	-2.080398
H	0.369524	-1.072815	-3.084938
H	1.452158	-0.886636	-1.824482
C	-1.820197	-0.257728	-1.807724
H	-1.994389	-0.224381	-2.8855
H	-2.110303	-1.241581	-1.429491
H	-2.431078	0.514068	-1.337431
C	-0.454082	-1.246005	0.623531
N	-0.836759	-2.24351	1.112406
C	-0.556966	1.135568	0.724452
N	-1.044497	2.00882	1.340497
Br	3.35932	0.0	0.0
