16

C	-0.450963	0.216383	-1.466459
C	0.0	0.0	0.0
Br	0.013543	-1.40075	-2.479119
H	1.102054	0.0	0.0
N	-1.895227	0.335207	-1.516074
H	-2.164728	1.186965	-1.029882
H	-2.190911	0.419188	-2.482816
C	0.338573	1.372867	-2.065671
H	1.412	1.202527	-1.95358
H	0.070678	2.296228	-1.540974
H	0.086215	1.484939	-3.122563
C	-0.530472	-1.22418	0.593496
N	-0.957277	-2.193119	1.102345
C	-0.445257	1.153915	0.786804
N	-0.834007	2.104496	1.358156
Br	3.381642	0.0	0.0
