16

C	-0.522896	0.015987	-1.455287
C	0.0	0.0	0.0
Br	0.117528	-1.613304	-2.400234
H	1.098303	0.0	0.0
N	-1.967819	0.068723	-1.490189
H	-2.338538	-0.789564	-1.077285
H	-2.278042	0.08412	-2.463038
C	0.065418	1.201602	-2.222717
H	1.159342	1.194889	-2.169664
H	-0.232362	1.155955	-3.278051
H	-0.310102	2.139217	-1.794391
C	-0.429495	-1.242023	0.741529
N	0.130856	-2.29979	0.854622
C	-0.411194	1.242256	0.777573
N	-0.023916	1.637257	1.843285
Br	2.713704	0.0	0.0
