16

C	-0.242857	0.012367	-1.540041
C	0.0	0.0	0.0
Br	-2.18757	0.160271	-1.88927
H	1.099581	0.0	0.0
N	0.403667	1.13496	-2.165805
H	0.085882	2.003596	-1.746912
H	1.405466	1.047499	-1.978082
C	0.276974	-1.277691	-2.14327
H	1.340095	-1.362093	-1.891694
H	0.158264	-1.23169	-3.226036
H	-0.255271	-2.146311	-1.751772
C	-0.523641	-1.177594	0.677629
N	-0.944412	-2.128712	1.225176
C	-0.466763	1.22786	0.632405
N	-0.818696	2.234926	1.12484
Br	3.352112	0.0	0.0
