16

C	-0.093598	0.033763	-1.518942
C	0.0	0.0	0.0
Br	-1.969519	0.281986	-2.1529
H	1.092317	0.0	0.0
H	-0.432301	-0.889133	0.453573
N	0.734405	1.061979	-2.117577
H	1.642093	0.914557	-1.65589
H	0.392921	1.956709	-1.785425
C	0.417275	-1.312228	-2.003174
H	0.456863	-1.311785	-3.09213
H	1.427207	-1.401934	-1.586811
H	-0.204115	-2.136877	-1.650815
N	-0.533337	1.152761	0.72488
O	-0.489488	2.271173	0.20759
O	-0.976236	0.946788	1.859187
F	2.612713	0.0	0.0
