16

C	-0.35477	0.090945	-1.482702
C	0.0	0.0	0.0
Br	-0.088873	-1.874248	-2.114298
H	1.088466	0.0	0.0
H	-0.460502	-0.852944	0.49138
N	-1.685836	0.498711	-1.719286
H	-2.346653	-0.091504	-1.229709
H	-1.905536	0.510398	-2.706744
C	0.677382	0.885469	-2.25694
H	0.51737	1.942823	-2.033962
H	0.595582	0.714284	-3.330534
H	1.6571	0.593203	-1.867589
N	-0.491568	1.198244	0.709643
O	-1.249442	1.026875	1.67189
O	-0.113441	2.305035	0.329219
F	2.606659	0.0	0.0
