16

C	-0.434023	0.031566	-1.468888
C	0.0	0.0	0.0
Br	-0.103097	-1.768803	-2.241789
H	1.088192	0.0	0.0
H	-0.389924	0.920772	0.450416
N	-1.821086	0.343919	-1.758671
H	-2.405938	-0.204986	-1.133614
H	-1.962607	1.320339	-1.511109
C	0.519512	1.006798	-2.143319
H	0.399182	0.982333	-3.22834
H	1.538887	0.75756	-1.822449
H	0.287574	2.019922	-1.784322
N	-0.6437	-1.095458	0.751686
O	-1.866927	-1.000059	0.949498
O	0.032111	-2.04522	1.130924
F	2.634418	0.0	0.0
