16

C	-0.084617	0.000198	-1.521599
C	0.0	0.0	0.0
Br	-1.964069	0.247815	-2.147104
H	1.09305	0.0	0.0
H	-0.405713	0.920308	0.416159
N	0.699105	1.141063	-1.977996
H	0.318525	1.981712	-1.550401
H	1.616471	0.981487	-1.530427
C	0.504038	-1.234778	-2.170099
H	1.497253	-1.33717	-1.721665
H	0.589798	-1.055992	-3.241987
H	-0.077201	-2.129957	-1.972604
N	-0.601313	-1.101253	0.755337
O	-0.455484	-2.260502	0.363371
O	-1.204803	-0.80361	1.791953
F	2.622388	0.0	0.0
