16

C	0.0	0.0	0.0
C	-0.170473	0.042823	-1.593076
F	1.386963	0.0	0.0
H	0.537809	-0.738183	-1.901909
C	-0.654015	1.149869	0.621554
N	-0.598723	2.22728	1.132967
C	-0.523177	-1.249299	0.566299
N	-0.550038	-2.334	1.043161
N	0.344587	1.309263	-2.113607
H	1.243852	1.489623	-1.682483
H	-0.276798	2.049968	-1.79559
C	-1.493104	-0.255187	-2.269048
H	-1.29171	-0.327031	-3.346067
H	-2.221701	0.53639	-2.084833
H	-1.92841	-1.185811	-1.91017
H	-2.061008	0.0	0.0
