16

C	0.0	0.0	0.0
C	-0.324968	0.128128	-1.537833
F	1.383659	0.0	0.0
H	0.65749	0.382548	-1.94931
C	-0.437583	1.16189	0.790151
N	-0.475644	2.118224	1.478624
C	-0.498393	-1.235367	0.61546
N	-0.514935	-2.308873	1.111511
N	-1.202485	1.254942	-1.829158
H	-2.054837	1.037356	-1.295619
H	-1.417103	1.227942	-2.822176
C	-0.759888	-1.203854	-2.14455
H	-1.741292	-1.471648	-1.751656
H	-0.048274	-2.006369	-1.923143
H	-0.819261	-1.09396	-3.233644
H	-2.306646	0.0	0.0
