16

C	0.0	0.0	0.0
C	-0.421247	0.134318	-1.498762
F	1.376036	0.0	0.0
H	-1.396632	0.62038	-1.474104
C	-0.45662	1.195984	0.744029
N	-0.466271	2.223981	1.323607
C	-0.514804	-1.209343	0.653491
N	-0.498692	-2.252048	1.212067
N	-0.501392	-1.212036	-2.061994
H	-0.650512	-1.12381	-3.06278
H	-1.350806	-1.619062	-1.671864
C	0.576212	0.98186	-2.271401
H	0.166044	1.188647	-3.266394
H	1.53383	0.469879	-2.382843
H	0.738698	1.941172	-1.773172
H	-2.392419	0.0	0.0
