15

C	0.0	0.0	0.0
C	-0.473717	-0.201977	-1.446414
Cl	1.754723	0.0	0.0
H	0.076208	-1.04388	-1.862864
H	-0.385688	0.904936	0.461567
N	-0.444072	-1.162662	0.846289
O	-0.686396	-0.91559	2.021724
O	-0.470427	-2.266354	0.310799
N	0.04281	1.009634	-2.209671
O	-0.209612	2.111657	-1.72973
O	0.623727	0.806248	-3.271091
N	-1.847899	-0.324744	-1.705406
H	-2.151191	-1.286765	-1.700637
H	-2.501973	0.189679	-1.107521
Cl	-4.409855	0.0	0.0
