17

C	-0.471631	-0.005055	-1.427571
C	0.0	0.0	0.0
Cl	-2.494145	-0.144717	-1.395328
H	1.095942	0.0	0.0
N	-0.110342	1.14055	-2.099899
H	-0.555016	1.263495	-2.996886
H	-0.207407	1.929076	-1.46645
C	-0.155009	-1.220291	-2.175291
N	0.088	-2.193848	-2.789164
C	-0.444558	-1.201371	0.810218
H	-1.520915	-1.190677	1.020996
H	-0.199279	-2.135638	0.295236
H	0.113378	-1.19576	1.752042
N	-0.352904	1.29823	0.578256
H	0.426488	1.575769	1.165071
H	-1.196681	1.237202	1.140134
F	2.584326	0.0	0.0
