17

C	-0.578319	0.022584	-1.409834
C	0.0	0.0	0.0
Cl	0.239318	-1.310906	-2.410326
H	1.094051	0.0	0.0
N	-2.003011	-0.131523	-1.428405
H	-2.348667	-0.106396	-2.381161
H	-2.23864	-1.031379	-1.027888
C	-0.243863	1.273973	-2.102211
N	-0.001121	2.235616	-2.730489
C	-0.448023	-1.223579	0.78846
H	-1.506879	-1.180454	1.08506
H	-0.266098	-2.151936	0.239706
H	0.15911	-1.261754	1.696394
N	-0.379877	1.266969	0.625399
H	-1.180089	1.168219	1.238567
H	0.421676	1.586208	1.155543
F	2.631134	0.0	0.0
