17

C	-0.579114	0.051958	-1.408968
C	0.0	0.0	0.0
Cl	0.234544	1.336818	-2.364515
H	1.094024	0.0	0.0
N	-0.403489	-1.19033	-2.134384
H	-0.799098	-1.093505	-3.063126
H	-0.904246	-1.925571	-1.646813
C	-2.010773	0.437206	-1.339894
N	-3.170609	0.611055	-1.247242
C	-0.453173	-1.248285	0.746016
H	-0.022834	-1.201067	1.749285
H	-1.547316	-1.329365	0.841169
H	-0.054861	-2.15384	0.282379
N	-0.391412	1.239259	0.678959
H	-1.095404	1.074759	1.38858
H	0.445125	1.600794	1.121096
F	2.626717	0.0	0.0
