12

C	0.0	0.0	0.0
C	-0.518668	-0.20552	-1.429008
Cl	1.789105	0.0	0.0
H	-0.231412	0.651705	-2.046581
H	-0.305494	-0.863081	0.589294
H	-1.620253	-0.208766	-1.244756
N	-0.54882	1.164103	0.627385
H	-0.379638	1.960358	0.017331
H	-1.57228	0.926173	0.566672
C	-0.071196	-1.434121	-2.066212
N	0.286762	-2.430225	-2.57732
F	-2.814566	0.0	0.0
