17

C	0.0	0.0	0.0
C	-0.49292	-0.139009	-1.448264
F	1.374162	0.0	0.0
H	-1.532906	-0.478006	-1.406869
N	-0.490959	1.2136	0.560834
H	-1.515451	1.176954	0.479362
H	-0.270682	1.223973	1.551455
C	-0.337959	-1.20328	0.820353
N	-0.473042	-2.07185	1.599982
N	0.29872	-1.252176	-2.07195
O	-0.017747	-2.399448	-1.75642
O	1.214452	-0.961184	-2.841702
C	-0.350097	1.140152	-2.242314
H	-0.556368	0.943295	-3.295323
H	0.652868	1.557181	-2.149057
H	-1.07992	1.858468	-1.869872
Br	-3.639963	0.0	0.0
