17

C	0.0	0.0	0.0
C	-0.319718	-0.088173	-1.515325
F	1.409795	0.0	0.0
H	0.133232	-1.005258	-1.894257
N	-0.519289	1.077496	0.750204
H	-1.473457	0.876556	1.041095
H	-0.512979	1.921935	0.191633
C	-0.396058	-1.281553	0.619733
N	-0.654202	-2.320582	1.100639
N	0.439597	1.000121	-2.212629
O	0.232976	2.159733	-1.85175
O	1.19365	0.674	-3.12598
C	-1.78218	0.018946	-1.864981
H	-2.374612	-0.736756	-1.348888
H	-1.913988	-0.101122	-2.943048
H	-2.200344	0.973452	-1.552875
Br	-4.589836	0.0	0.0
