17

C	0.0	0.0	0.0
C	-0.425995	-0.09857	-1.475269
F	1.409794	0.0	0.0
H	-0.0835	-1.060563	-1.857429
N	-0.564659	1.089609	0.663853
H	-0.360576	1.964014	0.202231
H	-0.361204	1.109651	1.650668
C	-0.369813	-1.26157	0.677149
N	-0.563167	-2.303224	1.183004
N	0.369551	0.900805	-2.26282
O	0.981973	0.488346	-3.244635
O	0.329102	2.07761	-1.902127
C	-1.905549	0.126478	-1.707839
H	-2.150255	-0.08841	-2.750647
H	-2.530533	-0.497787	-1.063734
H	-2.187028	1.149349	-1.467808
Br	-5.036414	0.0	0.0
