17

C	0.0	0.0	0.0
C	-0.509786	-0.054662	-1.44483
F	1.404249	0.0	0.0
H	-1.542935	-0.423375	-1.375642
N	-0.487483	1.16425	0.63316
H	-0.614692	1.065051	1.627651
H	0.066801	1.973246	0.3935
C	-0.384582	-1.188274	0.789333
N	-0.571442	-2.100564	1.503865
N	0.299389	-1.08249	-2.177877
O	1.007753	-0.720718	-3.118159
O	0.210677	-2.240698	-1.773384
C	-0.47996	1.283175	-2.145013
H	-1.229408	1.913801	-1.668346
H	0.508824	1.745924	-2.104944
H	-0.749256	1.155502	-3.193138
Br	-3.742011	0.0	0.0
