17

C	-0.40633	-0.095607	-1.435989
C	0.0	0.0	0.0
F	-1.759731	-0.330108	-1.628953
H	1.095024	0.0	0.0
H	0.154246	-0.871866	-1.958796
N	-0.101388	1.180299	-2.186433
O	-0.964339	2.054946	-2.198155
O	1.002503	1.258532	-2.710734
C	-0.426489	-1.285806	0.702025
H	0.017205	-1.299595	1.701066
H	-0.038705	-2.160987	0.170695
H	-1.51452	-1.387158	0.795225
C	-0.5288	1.238268	0.70699
H	-1.619527	1.33577	0.64895
H	-0.239693	1.185358	1.760477
H	-0.0787	2.146002	0.299436
F	2.636147	0.0	0.0
