17

C	-0.30945	0.011192	-1.465417
C	0.0	0.0	0.0
F	-0.033084	-1.184436	-2.068519
H	1.097535	0.0	0.0
H	0.229966	0.803661	-1.985078
N	-1.777506	0.280609	-1.736576
O	-2.563436	-0.664112	-1.697796
O	-2.096128	1.459682	-1.903508
C	-0.547071	-1.220125	0.718427
H	-1.641454	-1.218554	0.801743
H	-0.24144	-2.136144	0.210601
H	-0.122034	-1.24629	1.725809
C	-0.417355	1.306766	0.659408
H	0.006125	1.331945	1.666987
H	-1.505032	1.436637	0.734581
H	-0.008149	2.16412	0.117916
F	2.634755	0.0	0.0
