15

C	0.0	0.0	0.0
C	-0.396894	-0.114886	-1.486723
F	1.374877	0.0	0.0
H	0.528631	-0.433977	-1.989827
H	-0.337036	-0.879755	0.539669
C	-0.527726	1.207141	0.640807
N	-0.530697	2.257804	1.187271
C	-0.898883	1.148171	-2.144484
H	-1.010523	1.001898	-3.219743
H	-0.175414	1.948769	-1.964395
H	-1.856278	1.41149	-1.697011
N	-1.295351	-1.287829	-1.736891
O	-2.128535	-1.199267	-2.637863
O	-0.984014	-2.343574	-1.181928
H	-2.264176	0.0	0.0
