15

C	0.0	0.0	0.0
C	-0.616489	-0.102651	-1.350592
F	1.365613	0.0	0.0
H	-1.821153	-0.043972	-0.920173
H	-0.364836	-0.866849	0.56593
C	-0.413791	1.203374	0.769479
N	-0.598549	2.121485	1.462352
C	-0.322948	-1.404055	-2.054377
H	-0.765508	-1.411802	-3.041422
H	-0.719035	-2.242226	-1.479921
H	0.767762	-1.543959	-2.157776
N	-0.344623	1.025908	-2.211935
O	0.215951	2.030183	-1.731606
O	-0.748886	0.975418	-3.384801
H	-2.742604	0.0	0.0
