15

C	0.0	0.0	0.0
C	-0.186135	0.040032	-1.547726
F	1.382516	0.0	0.0
H	0.455477	0.865506	-1.865096
H	-0.343914	-0.935761	0.431871
C	-0.701099	1.12978	0.615196
N	-0.669867	2.194542	1.15558
C	-1.502878	0.125497	-2.292886
H	-1.273209	0.176846	-3.368223
H	-2.137537	-0.726085	-2.064967
H	-2.039461	1.017547	-1.981906
N	0.528016	-1.169495	-2.096084
O	0.250604	-2.26882	-1.623012
O	1.308712	-0.991633	-3.033045
H	-2.218176	0.0	0.0
