15

C	0.0	0.0	0.0
C	-0.186265	-0.011306	-1.551418
F	1.380083	0.0	0.0
H	0.46574	0.795847	-1.893601
H	-0.333759	-0.929222	0.456458
C	-0.753151	1.124826	0.568275
N	-0.725239	2.194164	1.104712
C	-1.500008	0.081137	-2.301846
H	-2.023261	0.987235	-2.008332
H	-2.148285	-0.760126	-2.068281
H	-1.264943	0.115111	-3.375147
N	0.508173	-1.244563	-2.06971
O	0.270737	-2.320979	-1.527078
O	1.231781	-1.109445	-3.058702
H	-2.164688	0.0	0.0
