15

C	0.0	0.0	0.0
C	-0.508632	-0.026562	-1.438733
F	1.386013	0.0	0.0
H	-1.602607	-0.116944	-1.405783
H	-0.176731	0.862158	-1.972343
C	-0.399192	1.299085	0.583078
N	-0.568092	2.349219	1.080293
C	-0.486492	-1.143259	0.862341
H	-0.062819	-1.030427	1.862576
H	-1.578238	-1.119404	0.90421
H	-0.155741	-2.089322	0.43431
N	0.075864	-1.18407	-2.163887
O	-0.41921	-2.295013	-1.967171
O	1.031877	-0.956372	-2.909186
Br	-3.809719	0.0	0.0
