15

C	0.0	0.0	0.0
C	-0.542238	0.193481	-1.405378
F	1.384084	0.0	0.0
H	-1.629667	0.062899	-1.398182
H	-0.058709	-0.521238	-2.076839
C	-0.402979	1.115606	0.880765
N	-0.680123	2.014287	1.58271
C	-0.505083	-1.315963	0.554019
H	-0.062037	-1.47827	1.539752
H	-0.203882	-2.128923	-0.112087
H	-1.594951	-1.27645	0.625487
N	-0.27106	1.542241	-1.989468
O	0.689625	2.185	-1.567107
O	-1.013515	1.891315	-2.904719
Br	-3.869155	0.0	0.0
