15

C	0.0	0.0	0.0
C	-0.525717	0.054122	-1.418056
F	1.389205	0.0	0.0
H	-0.315177	-0.88092	-1.934194
H	-1.610188	0.237069	-1.375709
C	-0.379948	1.176196	0.812008
N	-0.550683	2.059855	1.565219
C	-0.482981	-1.268614	0.675919
H	-1.575251	-1.268858	0.692604
H	-0.092575	-1.301503	1.694668
H	-0.108785	-2.131833	0.119615
N	0.124831	1.118933	-2.226221
O	0.228908	2.236335	-1.726992
O	0.498654	0.811193	-3.359004
Br	-3.786487	0.0	0.0
