15

C	0.0	0.0	0.0
C	-0.511241	0.051237	-1.437628
F	1.385685	0.0	0.0
H	-1.595389	-0.11593	-1.42339
H	-0.253076	0.999435	-1.903154
C	-0.396307	1.265579	0.653267
N	-0.568853	2.288776	1.202427
C	-0.479479	-1.18878	0.804805
H	-1.57146	-1.183016	0.82595
H	-0.081383	-1.107087	1.818775
H	-0.118761	-2.107267	0.342614
N	0.153117	-0.995295	-2.258146
O	-0.155412	-2.168725	-2.052887
O	0.975409	-0.619067	-3.095364
Br	-3.793509	0.0	0.0
