15

C	0.0	0.0	0.0
C	-0.526067	0.108337	-1.415296
F	1.389035	0.0	0.0
H	-0.306121	-0.801503	-1.970815
H	-1.612366	0.278674	-1.365569
C	-0.390289	1.136977	0.859078
N	-0.575442	1.993351	1.64007
C	-0.480533	-1.2988	0.620976
H	-0.110076	-2.136055	0.023507
H	-1.573187	-1.299705	0.643132
H	-0.084218	-1.378669	1.634626
N	0.112899	1.212409	-2.180738
O	0.21972	2.305856	-1.632318
O	0.473181	0.957466	-3.3311
Br	-3.791659	0.0	0.0
