17
Coordinates from ORCA-job run
  C   -0.65526011838693      0.26085588161451     -0.22529800234988
  C   0.68945611910075     -0.27838315802858      0.33093876131286
  F   -0.52465368997303      1.64956280404166     -0.22006654374658
  H   0.61858742622667     -1.37306761219265      0.32886558312307
  C   -1.83154836542162     -0.10229069666888      0.65530517248332
  H   -1.92826491502261     -1.18676753267412      0.75468371154954
  H   -1.70754196485325      0.33023149697802      1.64777121776725
  H   -2.73821988633103      0.29839447703508      0.20133686362247
  N   -0.93317311285401     -0.11708849370519     -1.57921474610667
  H   -1.26105387415869     -1.07048012095184     -1.64344326542394
  H   -0.13892209785350      0.01866328641269     -2.18927939874268
  C   0.86907563608255      0.14676318467684      1.72118007450762
  N   1.02248051029040      0.49064385669117      2.83333560403168
  C   1.90113361389001      0.15523890657489     -0.50103876698324
  H   1.92898309057535      1.24168840233503     -0.58507835106260
  H   1.86448990250403     -0.28178811109622     -1.50069862960063
  H   2.82543172618491     -0.18117657104241     -0.02929928438159
