17
Coordinates from ORCA-job run
  C   -0.67604077495020      0.41496431415261     -0.03546340924420
  C   0.66752371091158      0.18035607420524      0.67663659372119
  F   -1.27184736631868      1.49492425239388      0.66636427484736
  H   0.44132594578702      0.09107677627830      1.74458224434311
  C   -1.62843726542740     -0.75334013824319      0.10383690357471
  H   -1.72609659445972     -1.04075886110841      1.15199260550654
  H   -2.61407593480319     -0.44573436350814     -0.25289673320693
  H   -1.29309340938472     -1.60746089195405     -0.48288177711472
  N   -0.46649183939563      0.73921230257151     -1.39922024977176
  H   -1.34901658313354      0.84420887806021     -1.88364491511030
  H   0.06206761261372      1.59937550116417     -1.49150441560821
  C   1.50786575026028      1.36899200671301      0.50539704087080
  N   2.18645182644036      2.30888187891219      0.31917740202671
  C   1.40418755734720     -1.06742314041803      0.18382838753708
  H   0.84085331471891     -1.96648428532871      0.43702303275222
  H   2.38601558573256     -1.13961300854059      0.65447038683418
  H   1.53180846406143     -1.02117729535000     -0.89769737195778
