17
Coordinates from ORCA-job run
  C   -0.61011081615431      0.18487808082493     -0.23631508125789
  C   0.69264608505314     -0.30982519496756      0.41840653321870
  F   -0.47983165193150      1.59091708827617     -0.34962823864802
  H   0.57224743896181     -1.38579559800281      0.58483701745604
  C   -1.83152315403072     -0.07242791314051      0.61832120405258
  H   -2.71285658210411      0.34221366137025      0.12316484769432
  H   -1.97663755229646     -1.14394740709911      0.76273468847317
  H   -1.72627387724487      0.41690155040925      1.58638824310019
  N   -0.75526713202254     -0.41776622797895     -1.51603231516274
  H   -1.66364913099591     -0.19614406757698     -1.90489513743774
  H   -0.04803662568516     -0.07675619632227     -2.15492227643007
  C   0.86338171926636      0.32928720892096      1.72562613476432
  N   1.01797315050829      0.83629279155563      2.77291757753907
  C   1.93170133812331     -0.06651910041139     -0.44982802876223
  H   1.99474953228800      0.98563929125850     -0.73026964241519
  H   1.89385150486089     -0.68511007420622     -1.34775016721220
  H   2.83663575340378     -0.33183789290989      0.09824464102770
