18

C	0.0	0.0	0.0
C	-0.596356	0.006967	-1.411725
Br	1.956138	0.0	0.0
H	-1.674186	-0.233429	-1.156397
C	-0.48325	1.212225	0.796107
H	-0.084169	2.13325	0.369167
H	-0.141804	1.125763	1.829378
H	-1.579198	1.139575	0.725412
C	-0.374251	-1.205608	0.751115
N	-0.599542	-2.130059	1.440629
N	0.013349	-1.080787	-2.23031
O	0.517062	-0.796752	-3.321201
O	-0.030908	-2.221388	-1.771522
C	-0.508548	1.34021	-2.116332
H	0.503203	1.755218	-2.113127
H	-0.826046	1.228435	-3.152665
H	-1.199098	2.022226	-1.621157
F	-2.815852	0.0	0.0
