18

C	0.0	0.0	0.0
C	-0.601936	-0.043399	-1.404788
Br	1.963906	0.0	0.0
H	-1.695065	-0.196579	-1.11969
C	-0.475642	1.247631	0.747082
H	-0.069462	2.148152	0.283831
H	-1.571939	1.185102	0.681424
H	-0.134243	1.200109	1.783106
C	-0.377913	-1.172864	0.800373
N	-0.540516	-2.039128	1.57883
N	-0.08994	-1.236055	-2.137389
O	0.588087	-1.065297	-3.155983
O	-0.380208	-2.342789	-1.680914
C	-0.398769	1.217127	-2.21247
H	-1.004918	2.009349	-1.77191
H	0.649044	1.525866	-2.256646
H	-0.746582	1.056684	-3.233401
F	-2.824804	0.0	0.0
