18

C	0.0	0.0	0.0
C	-0.407239	-0.114912	-1.497657
Br	1.971136	0.0	0.0
H	0.431045	0.271028	-2.088002
C	-0.337183	1.298765	0.750217
H	-1.422812	1.353689	0.76588
H	0.110991	2.151186	0.244627
H	0.077807	1.219972	1.758556
C	-0.425872	-1.153407	0.788905
N	-0.564037	-2.102302	1.470299
N	-1.515189	0.811206	-1.949142
O	-1.360344	2.005658	-1.710725
O	-2.362867	0.365119	-2.710874
C	-0.726148	-1.540547	-1.888239
H	-1.652785	-1.808435	-1.382718
H	0.085644	-2.200266	-1.571291
H	-0.851222	-1.625519	-2.967408
F	-2.460057	0.0	0.0
