18

C	0.0	0.0	0.0
C	-0.273531	0.056831	-1.55654
Br	1.968577	0.0	0.0
H	0.488655	-0.570426	-2.016773
C	-0.6547	1.044989	0.870338
H	-0.340783	2.047695	0.5866
H	-1.745478	0.877912	0.695317
H	-0.394913	0.856955	1.915103
C	-0.381725	-1.344426	0.440355
N	-0.598761	-2.437577	0.813876
N	0.063526	1.424511	-2.079209
O	0.99994	1.506207	-2.879062
O	-0.644522	2.368635	-1.735521
C	-1.636776	-0.328991	-2.097701
H	-2.454295	0.114429	-1.5017
H	-1.7485	-1.410175	-1.981258
H	-1.642089	-0.092334	-3.168404
F	-3.135356	0.0	0.0
