18

C	0.0	0.0	0.0
C	-0.593738	0.014422	-1.410378
Br	1.965594	0.0	0.0
H	-1.681066	-0.18222	-1.146377
C	-0.476004	1.215072	0.797205
H	-1.572649	1.152158	0.72753
H	-0.070145	2.133922	0.371478
H	-0.135408	1.125508	1.830582
C	-0.376009	-1.20612	0.748348
N	-0.550792	-2.124957	1.460374
N	-0.034564	-1.115941	-2.205787
O	-0.253179	-2.254695	-1.791656
O	0.609706	-0.864414	-3.22975
C	-0.431	1.327102	-2.1403
H	0.602366	1.683864	-2.141025
H	-1.082362	2.061091	-1.665655
H	-0.749491	1.212456	-3.176532
F	-2.815092	0.0	0.0
