17

C	-0.468806	0.076085	-1.451379
C	0.0	0.0	0.0
Br	0.073331	-1.706878	-2.341734
H	1.089936	0.0	0.0
N	-1.860873	0.300249	-1.572877
H	-2.159602	0.320402	-2.539704
H	-2.379374	-0.405465	-1.065131
C	0.260414	1.040524	-2.280031
N	0.727068	1.802977	-3.043403
C	-0.484023	-1.192327	0.793656
H	-0.020145	-2.092004	0.392792
H	-1.574653	-1.3142	0.819347
H	-0.143196	-1.069255	1.820834
N	-0.428183	1.267485	0.645948
O	-0.186657	2.317743	0.050319
O	-0.961107	1.220636	1.758347
F	2.505578	0.0	0.0
