17

C	-0.194719	-0.01114	-1.521412
C	0.0	0.0	0.0
Br	-2.048443	0.552217	-2.031253
H	1.095064	0.0	0.0
N	0.771412	0.788676	-2.245935
H	1.655347	0.562688	-1.757188
H	0.578083	1.75041	-1.984181
C	-0.100947	-1.39393	-2.008641
N	-0.024843	-2.50188	-2.393409
C	-0.569648	-1.16143	0.774997
H	-0.280041	-1.069031	1.821361
H	-1.66106	-1.213843	0.720087
H	-0.138891	-2.086099	0.390425
N	-0.434603	1.2923	0.570514
O	-0.143004	2.329863	-0.030683
O	-1.040229	1.285731	1.64549
F	2.554192	0.0	0.0
