17

C	-0.382412	-0.019653	-1.450354
C	0.0	0.0	0.0
Br	-2.601081	0.475558	-1.520618
H	1.094868	0.0	0.0
N	0.316894	0.8137	-2.269246
H	0.586545	1.678746	-1.823284
H	0.004058	0.872474	-3.225558
C	-0.510282	-1.357942	-2.011774
N	-0.551596	-2.435121	-2.483582
C	-0.509941	-1.154721	0.821989
H	-1.601586	-1.195907	0.863131
H	-0.118535	-1.063569	1.83467
H	-0.11807	-2.080875	0.39879
N	-0.350808	1.300367	0.603749
O	-0.043045	2.325302	-0.01573
O	-0.867244	1.316755	1.721496
F	2.475377	0.0	0.0
