17

C	-0.457396	0.031775	-1.455379
C	0.0	0.0	0.0
Br	0.290757	-1.663389	-2.345451
H	1.089917	0.0	0.0
N	-1.868094	0.107921	-1.589417
H	-2.143559	0.041574	-2.560876
H	-2.308933	-0.635043	-1.060961
C	0.155373	1.099844	-2.251059
N	0.544937	1.94693	-2.967068
C	-0.542148	-1.149265	0.821221
H	-0.19459	-2.091645	0.396809
H	-1.63148	-1.153719	0.918304
H	-0.125796	-1.06565	1.826548
N	-0.451052	1.305437	0.579129
O	0.199568	2.307906	0.283489
O	-1.440526	1.324631	1.321645
F	2.5352	0.0	0.0
