17

C	-0.603133	-0.010945	-1.399722
C	0.0	0.0	0.0
Br	0.697144	-0.940783	-2.63917
H	1.087375	0.0	0.0
N	-1.90801	-0.502475	-1.509341
H	-1.918126	-1.483108	-1.262174
H	-2.256435	-0.360217	-2.448076
N	-0.574781	1.409103	-1.971822
O	-1.424509	1.667904	-2.817575
O	0.320067	2.147898	-1.595523
N	-0.405501	-1.207958	0.751854
O	-0.541819	-1.122203	1.968667
O	-0.499657	-2.259202	0.110496
N	-0.482183	1.173801	0.791708
O	0.242502	1.549571	1.706771
O	-1.567647	1.677225	0.485684
F	2.436621	0.0	0.0
