17

C	-0.424032	-0.006469	-1.493342
C	0.0	0.0	0.0
Br	0.803534	1.127744	-2.532691
H	1.116707	0.0	0.0
N	-0.386074	-1.359443	-2.037797
H	0.581489	-1.702595	-1.954534
H	-0.600454	-1.327363	-3.046667
N	-1.837806	0.454225	-1.723366
O	-2.093157	0.779237	-2.961594
O	-2.717221	-0.329106	-1.133215
N	-0.474469	-1.173686	0.778345
O	-1.69699	-1.070552	1.210861
O	0.426665	-1.582352	1.657513
N	-0.355004	1.2328	0.742951
O	-0.040394	1.147349	2.014159
O	0.016367	2.315463	0.110156
F	2.488812	0.0	0.0
