17

C	-0.541553	0.057603	-1.406068
C	0.0	0.0	0.0
Br	-2.499255	0.600456	-1.481906
H	1.117018	0.0	0.0
N	0.254297	0.854936	-2.225287
H	-0.243287	1.241309	-3.011736
H	0.783978	1.53628	-1.704717
N	-0.505089	-1.354783	-2.06075
O	0.204838	-2.192526	-1.524847
O	-1.068876	-1.467321	-3.139356
N	-0.480747	-1.16306	0.792839
O	-1.597959	-1.621215	0.550592
O	0.279152	-1.570742	1.663776
N	-0.34941	1.216743	0.766315
O	-0.714911	1.094449	1.932982
O	-0.174113	2.290629	0.192636
F	2.43157	0.0	0.0
