17

C	-0.494298	-0.037162	-1.497438
C	0.0	0.0	0.0
Br	0.535019	-1.34281	-2.549837
H	1.116391	0.0	0.0
N	-1.913206	-0.303934	-1.595007
H	-2.197438	-0.237534	-2.580035
H	-2.05746	-1.282334	-1.309774
N	-0.195405	1.329289	-2.060756
O	-1.093656	2.234457	-1.774716
O	1.071548	1.681205	-1.95293
N	-0.35873	-1.226029	0.758854
O	-0.161994	-1.089029	2.049035
O	0.118135	-2.314114	0.208016
N	-0.495162	1.172268	0.758905
O	-1.756461	1.095208	1.067824
O	0.331897	1.525636	1.730653
F	2.485594	0.0	0.0
