17

C	-0.465104	0.071195	-1.475079
C	0.0	0.0	0.0
Br	-2.365028	0.50056	-1.625078
H	1.116208	0.0	0.0
N	0.269079	1.012752	-2.24402
H	-0.038401	1.01006	-3.207177
H	1.263875	0.805806	-2.18326
N	-0.179408	-1.240234	-2.293049
O	-0.853166	-1.39918	-3.303459
O	0.955047	-1.677024	-2.14
N	-0.51476	-1.284705	0.54043
O	-1.733175	-1.440241	0.627774
O	0.302149	-2.215732	0.497033
N	-0.1974	1.247191	0.774567
O	0.095369	2.281909	0.185161
O	-0.186441	1.112297	1.997798
F	2.478614	0.0	0.0
