17

C	-0.561714	0.014679	-1.408333
C	0.0	0.0	0.0
Br	0.297927	-1.598854	-2.329069
H	1.084516	0.0	0.0
N	-1.924682	0.089155	-1.570106
H	-2.426116	-0.610281	-1.043837
H	-2.209609	0.180876	-2.537314
N	0.035454	1.194873	-2.194016
O	1.075022	1.680844	-1.778929
O	-0.542644	1.467561	-3.247573
N	-0.481859	-1.153008	0.822466
O	-1.451281	-1.821406	0.430913
O	0.214639	-1.411088	1.798635
N	-0.482315	1.192279	0.794006
O	-1.686372	1.243238	1.048306
O	0.361302	2.037623	1.08001
F	2.497641	0.0	0.0
