15

C	-0.486852	0.007615	-1.428333
C	0.0	0.0	0.0
Br	-2.622946	-0.240789	-1.31614
H	1.093483	0.0	0.0
H	-0.2419	-0.895766	-1.975195
N	-0.128024	1.169901	-2.055354
H	-0.243472	1.986224	-1.473221
H	-0.428513	1.276674	-3.010095
N	-0.384747	-1.322094	0.64066
O	-0.86098	-1.294478	1.77299
O	-0.152578	-2.337598	-0.007674
N	-0.446628	1.145821	0.711476
H	-1.400852	1.024857	1.03072
H	0.161469	1.310322	1.503563
Br	3.424712	0.0	0.0
