15

C	-0.456457	-0.014906	-1.456479
C	0.0	0.0	0.0
Br	-0.224386	1.840391	-2.232372
H	1.094267	0.0	0.0
H	-1.53313	-0.164323	-1.547914
N	0.266742	-1.019383	-2.124079
H	1.267025	-0.920961	-1.962061
H	0.067168	-1.056725	-3.113223
N	-0.450209	-1.371509	0.519645
O	0.378868	-2.252813	0.697316
O	-1.663598	-1.483845	0.734686
N	-0.527719	1.046707	0.796552
H	-1.495835	0.871128	1.031872
H	0.029174	1.155047	1.633069
Br	3.511413	0.0	0.0
