15

C	-0.438638	-0.167047	-1.456346
C	0.0	0.0	0.0
Br	-0.437569	1.608455	-2.348397
H	1.100175	0.0	0.0
H	-1.475246	-0.494881	-1.518868
N	0.405988	-1.046413	-2.203265
H	1.378434	-0.883364	-1.945318
H	0.15807	-1.996901	-1.961894
N	-0.362624	-1.284262	0.733499
O	-0.909129	-2.212469	0.129309
O	-0.07887	-1.30324	1.924581
N	-0.624899	1.054488	0.759899
H	-0.737023	1.857375	0.158347
H	0.00998	1.315557	1.503505
Br	3.477994	0.0	0.0
