15

C	-0.491996	-0.092585	-1.422953
C	0.0	0.0	0.0
Br	-2.6291	-0.326287	-1.279592
H	1.102003	0.0	0.0
H	-0.253101	-1.034229	-1.90588
N	-0.133895	1.02143	-2.133131
H	-0.442984	1.058995	-3.089826
H	-0.260767	1.876201	-1.610058
N	-0.380356	-1.269894	0.736723
O	-0.160466	-2.329446	0.159482
O	-0.839511	-1.159799	1.872168
N	-0.440452	1.195896	0.629902
H	0.173825	1.413258	1.40331
H	-1.387274	1.094475	0.973352
Br	3.422993	0.0	0.0
