15

C	-0.568959	0.065125	-1.414843
C	0.0	0.0	0.0
Br	-0.154625	-1.459625	-2.556547
H	1.092396	0.0	0.0
H	-0.031612	0.893496	-1.888343
N	-2.009455	0.217439	-1.360378
H	-2.18306	1.078333	-0.850241
H	-2.368003	0.332727	-2.300362
N	-0.479555	-1.244004	0.718436
O	-1.378954	-1.119283	1.554937
O	0.048955	-2.306013	0.413219
N	-0.4375	1.194831	0.68716
H	0.334479	1.52611	1.252501
H	-1.207235	0.952826	1.300731
Br	3.46914	0.0	0.0
