15

C	-0.484457	0.086277	-1.444295
C	0.0	0.0	0.0
Br	-0.016745	-1.617769	-2.401265
H	1.08925	0.0	0.0
H	0.155334	0.816994	-1.93924
N	-1.850059	0.454451	-1.571475
H	-2.102971	0.583646	-2.541702
H	-2.435654	-0.254616	-1.147988
N	-0.535833	-1.246496	0.6587
O	0.224806	-1.934706	1.323463
O	-1.747633	-1.458016	0.530439
N	-0.447781	1.117971	0.78461
H	-1.204492	1.6058	0.325776
H	0.334866	1.730228	0.967664
Br	3.49896	0.0	0.0
