15

C	-0.373529	0.029938	-1.485996
C	0.0	0.0	0.0
Br	-0.218297	1.990299	-2.123887
H	1.095185	0.0	0.0
H	-1.431158	-0.153591	-1.67053
N	0.455309	-0.86682	-2.15462
H	1.438146	-0.742632	-1.916218
H	0.308335	-0.911729	-3.151487
N	-0.502319	-1.345066	0.473245
O	0.294587	-2.169844	0.897142
O	-1.723966	-1.499902	0.415984
N	-0.530548	0.979977	0.889692
H	-1.413891	1.346148	0.561475
H	0.137105	1.733433	0.974071
Br	3.507364	0.0	0.0
