15

C	-0.594277	-0.037812	-1.402164
C	0.0	0.0	0.0
Br	0.440449	-1.176563	-2.670237
H	1.092579	0.0	0.0
H	-0.437137	0.96172	-1.799938
N	-1.992688	-0.334418	-1.370686
H	-2.406652	-0.143161	-2.274181
H	-2.117935	-1.319741	-1.169284
N	-0.397635	-1.256189	0.779825
O	-0.554359	-2.310193	0.162303
O	-0.510319	-1.141047	1.997832
N	-0.449876	1.185961	0.649946
H	0.10504	1.349487	1.478509
H	-1.428377	1.113732	0.89635
Br	3.455996	0.0	0.0
