15

C	-0.456291	0.003016	-1.443372
C	0.0	0.0	0.0
Br	-2.598791	-0.03564	-1.37721
H	1.099993	0.0	0.0
H	-0.284407	-0.937869	-1.95249
N	0.024516	1.092866	-2.126061
H	-0.252011	1.16436	-3.091182
H	-0.040291	1.96218	-1.619447
N	-0.414214	-1.336733	0.614899
O	-0.194212	-2.330972	-0.074671
O	-0.894161	-1.348744	1.739862
N	-0.420278	1.092875	0.7718
H	-1.3279	1.479264	0.580673
H	0.306276	1.730019	1.04402
Br	3.432142	0.0	0.0
