15

C	-0.446954	-0.124134	-1.454549
C	0.0	0.0	0.0
Br	-0.235831	1.675332	-2.359921
H	1.091567	0.0	0.0
H	-1.520154	-0.295515	-1.543365
N	0.296096	-1.162487	-2.042817
H	0.104582	-1.275703	-3.027696
H	1.293844	-1.039558	-1.881108
N	-0.450159	-1.330398	0.617378
O	0.382252	-2.1863	0.882948
O	-1.666507	-1.435265	0.819952
N	-0.531944	1.101137	0.715805
H	-1.503607	0.946098	0.950682
H	0.014854	1.264385	1.550141
Br	3.512846	0.0	0.0
