15

C	-0.302605	0.004033	-1.500014
C	0.0	0.0	0.0
Br	-2.256617	0.175178	-1.790128
H	1.09774	0.0	0.0
H	-0.040962	-0.961707	-1.926165
N	0.380558	1.046921	-2.209399
H	0.256008	1.91926	-1.704151
H	1.375533	0.823269	-2.160977
N	-0.487102	-1.312331	0.58259
O	-1.223862	-1.299968	1.56287
O	-0.10881	-2.326349	-0.00553
N	-0.44521	1.103804	0.759719
H	-1.312444	1.513641	0.448108
H	0.288519	1.775721	0.919403
Br	3.428982	0.0	0.0
