15

C	-0.370472	-0.116561	-1.470381
C	0.0	0.0	0.0
Br	-2.351698	-0.116048	-1.643171
H	1.104395	0.0	0.0
H	-0.061206	-1.084656	-1.856035
N	0.185962	0.941194	-2.256186
H	0.069421	1.800631	-1.726086
H	1.188628	0.764702	-2.31126
N	-0.43487	-1.250188	0.740368
O	-1.005466	-1.11459	1.823142
O	-0.176472	-2.328295	0.211209
N	-0.451672	1.208917	0.590798
H	0.129384	1.43627	1.386092
H	-1.416005	1.137072	0.888034
Br	3.423047	0.0	0.0
