13

C	0.0	0.0	0.0
C	-0.348799	0.244067	-1.511792
F	1.378477	0.0	0.0
H	0.453693	-0.311437	-2.01345
H	-0.373596	-0.977611	0.306946
C	-0.44138	1.030451	0.944265
N	-0.57731	1.882052	1.74325
C	-0.084159	1.662179	-1.829317
N	0.163006	2.76704	-2.141342
N	-1.619922	-0.172497	-2.046166
H	-2.335927	-0.026184	-1.258516
H	-1.576831	-1.182443	-2.160243
H	-2.99636	0.0	0.0
