13

C	0.0	0.0	0.0
C	-0.691011	-0.184469	-1.335499
F	1.369333	0.0	0.0
H	-1.754995	-0.425113	-0.935064
H	-0.335248	-0.8146	0.653101
C	-0.411615	1.274484	0.624207
N	-0.550468	2.305634	1.168467
C	-0.101426	-1.269695	-2.08504
N	0.320886	-2.177466	-2.70528
N	-0.769198	1.070671	-2.095345
H	-0.85574	0.848723	-3.08112
H	-1.664987	1.471673	-1.806093
H	-2.911254	0.0	0.0
