13

C	0.0	0.0	0.0
C	-0.332247	0.130422	-1.52823
F	1.377545	0.0	0.0
H	0.395152	-0.563637	-1.969782
H	-0.381595	-0.947426	0.382895
C	-0.44204	1.10789	0.851753
N	-0.588528	2.018158	1.580828
C	0.107002	1.474286	-1.963736
N	0.451386	2.537932	-2.322619
N	-1.648806	-0.167295	-2.025232
H	-2.346078	0.013568	-1.223721
H	-1.698272	-1.173344	-2.1601
H	-3.051696	0.0	0.0
