13

C	0.0	0.0	0.0
C	-0.619577	-0.127009	-1.3792
F	1.380236	0.0	0.0
H	-1.720891	-0.262791	-1.02494
H	-0.349465	-0.831832	0.619416
C	-0.410444	1.269646	0.634302
N	-0.515248	2.322474	1.145073
C	-0.098272	-1.302714	-2.054605
N	0.317447	-2.268577	-2.58336
N	-0.573793	1.052376	-2.223846
H	0.298136	1.555115	-2.102011
H	-1.334809	1.65642	-1.926001
H	-2.824283	0.0	0.0
