13

C	0.0	0.0	0.0
C	-0.362716	-0.140144	-1.523222
F	1.377834	0.0	0.0
H	-0.032958	-1.162581	-1.763141
H	-0.393067	-0.832642	0.579585
C	-0.43956	1.280333	0.571385
N	-0.683099	2.340887	1.012609
C	0.529971	0.766978	-2.265419
N	1.17927	1.519833	-2.890205
N	-1.717906	0.056163	-1.973604
H	-1.861308	1.054114	-2.110689
H	-2.395626	-0.134108	-1.147738
H	-3.201257	0.0	0.0
