16

C	-0.277608	0.038901	-1.517523
C	0.0	0.0	0.0
Br	-0.310873	-2.010008	-2.289269
H	1.094177	0.0	0.0
C	-1.625681	0.446496	-1.901165
N	-2.710661	0.802401	-2.181431
N	0.725318	0.762773	-2.098091
H	1.652975	0.580662	-1.684488
H	0.699006	0.862235	-3.100912
N	-0.640501	-1.095813	0.712257
H	-0.190771	-1.116248	1.623928
H	-0.392462	-1.967232	0.257332
N	-0.437333	1.275722	0.530548
H	0.2983	1.6626	1.108468
H	-1.284136	1.137775	1.069607
H	2.895968	0.0	0.0
