16

C	-0.279303	-0.032339	-1.503103
C	0.0	0.0	0.0
Br	-2.187102	-0.633344	-1.898336
H	1.103984	0.0	0.0
C	-0.24975	1.320501	-2.084673
N	-0.151586	2.370548	-2.607043
N	0.646284	-0.92595	-2.101613
H	1.548962	-0.82969	-1.614054
H	0.755967	-0.748639	-3.091698
N	-0.407429	-1.225589	0.626301
H	-1.328882	-1.121598	1.032311
H	0.270592	-1.47295	1.335218
N	-0.596026	1.17905	0.634192
H	-0.117248	2.005802	0.283514
H	-0.333086	1.116683	1.613924
H	2.820556	0.0	0.0
