16

C	-0.406424	0.030509	-1.478307
C	0.0	0.0	0.0
Br	-0.042389	-1.722289	-2.334561
H	1.102041	0.0	0.0
C	-1.847533	0.266783	-1.634582
N	-2.998353	0.484241	-1.738053
N	0.356825	1.023239	-2.206308
H	1.335955	0.825533	-1.975871
H	0.140745	1.899467	-1.732298
N	-0.617343	-1.089705	0.75416
H	-0.368646	-1.966897	0.302849
H	-0.135398	-1.101431	1.651379
N	-0.395742	1.291351	0.543019
H	0.342896	1.619421	1.156275
H	-1.256342	1.18037	1.067423
H	2.884605	0.0	0.0
