16

C	-0.308932	0.060941	-1.507739
C	0.0	0.0	0.0
Br	0.004996	-1.785689	-2.300554
H	1.102342	0.0	0.0
C	-1.71185	0.333506	-1.830379
N	-2.833291	0.580022	-2.083185
N	0.557567	1.039895	-2.05199
H	0.5416	1.051554	-3.06346
H	1.508249	0.860209	-1.700835
N	-0.563601	-1.133951	0.678864
H	-1.286074	-0.803735	1.304807
H	0.165268	-1.599317	1.205148
N	-0.498965	1.25426	0.594224
H	-0.278168	2.006327	-0.052629
H	0.099129	1.417294	1.402367
H	2.886912	0.0	0.0
