16

C	-0.55685	-0.040929	-1.430315
C	0.0	0.0	0.0
Br	0.258542	1.506453	-2.486424
H	1.097285	0.0	0.0
C	-0.13544	-1.235888	-2.160918
N	0.130999	-2.219497	-2.746145
N	-1.97116	0.046771	-1.390269
H	-2.372177	0.18699	-2.308599
H	-2.182474	0.826666	-0.77057
N	-0.416159	-1.183973	0.729322
H	0.352599	-1.844306	0.71235
H	-1.243535	-1.606144	0.328677
N	-0.558012	1.201227	0.639218
H	0.158263	1.921441	0.583168
H	-0.648644	0.949487	1.616496
H	2.842586	0.0	0.0
