16

C	-0.322075	-0.009448	-1.487246
C	0.0	0.0	0.0
Br	-2.301582	-0.250136	-1.780126
H	1.103721	0.0	0.0
C	-0.007258	1.277514	-2.113722
N	0.251776	2.315108	-2.600598
N	0.368528	-1.073826	-2.169337
H	1.364396	-0.86016	-2.038103
H	0.19609	-1.889965	-1.582072
N	-0.386334	-1.269613	0.575485
H	-1.278138	-1.159557	1.04386
H	0.323794	-1.541101	1.245641
N	-0.579308	1.131194	0.72385
H	-0.011772	1.232007	1.563326
H	-0.413589	1.98258	0.192193
H	2.810903	0.0	0.0
