15

C	0.0	0.0	0.0
C	-0.446114	-0.27906	-1.474408
Br	1.957055	0.0	0.0
H	0.451319	-0.269656	-2.10096
H	-0.231172	1.041059	0.240963
N	-0.542952	-0.949883	0.912339
H	-0.316981	-0.638325	1.852377
H	-1.575859	-0.741042	0.741629
C	-1.266386	0.820057	-1.997974
N	-1.804331	1.668486	-2.607317
C	-1.146824	-1.624017	-1.677086
H	-0.530931	-2.426039	-1.267585
H	-1.29906	-1.792165	-2.748428
H	-2.101683	-1.564826	-1.159389
F	-2.734072	0.0	0.0
