15

C	0.0	0.0	0.0
C	-0.38589	-0.12778	-1.524849
Br	2.030919	0.0	0.0
H	0.527677	-0.099158	-2.127252
H	-0.245741	1.001562	0.345585
N	-0.533558	-0.929025	0.917812
H	-1.56591	-0.676231	0.801511
H	-0.39688	-1.868896	0.561398
C	-1.149625	1.051329	-1.941537
N	-1.644522	2.022079	-2.380832
C	-1.152008	-1.409703	-1.849925
H	-0.546116	-2.288618	-1.61109
H	-2.070824	-1.371098	-1.263504
H	-1.379773	-1.44056	-2.919903
F	-2.723813	0.0	0.0
