15

C	0.0	0.0	0.0
C	-0.242078	0.247057	-1.545669
Br	1.948751	0.0	0.0
H	0.519004	-0.36141	-2.043775
H	-0.283876	0.889662	0.569663
N	-0.626762	-1.209983	0.396965
H	-1.654995	-0.907267	0.283896
H	-0.466116	-1.337671	1.392149
C	0.083845	1.644818	-1.848816
N	0.300445	2.769458	-2.111529
C	-1.569695	-0.128103	-2.210016
H	-1.750873	-1.190894	-2.049289
H	-2.402521	0.397851	-1.752329
H	-1.45986	0.059879	-3.285335
F	-2.888584	0.0	0.0
