15

C	0.0	0.0	0.0
C	-0.524484	-0.003738	-1.445927
Br	1.957312	0.0	0.0
H	-1.623042	-0.025428	-1.212122
H	-0.293855	0.956986	0.43202
N	-0.526948	-1.037977	0.82953
H	-0.351383	-1.931405	0.376942
H	-1.551811	-0.826991	0.741612
C	-0.147538	-1.224644	-2.143558
N	0.143734	-2.206685	-2.721695
C	-0.168064	1.239869	-2.25354
H	-0.678802	1.228359	-3.219903
H	0.907817	1.320802	-2.426637
H	-0.504831	2.124257	-1.70575
F	-2.802225	0.0	0.0
