15

C	0.0	0.0	0.0
C	-0.213884	0.176127	-1.553574
Br	2.012655	0.0	0.0
H	0.540916	-0.466759	-2.015595
H	-0.234694	0.926667	0.532286
N	-0.639246	-1.170342	0.452124
H	-1.673964	-0.86324	0.310043
H	-0.49622	-1.24345	1.455259
C	0.135328	1.54981	-1.928476
N	0.376006	2.64548	-2.276366
C	-1.548841	-0.207907	-2.200121
H	-1.45828	-0.035676	-3.27861
H	-2.374484	0.329866	-1.745652
H	-1.729563	-1.264829	-2.02122
F	-2.902622	0.0	0.0
