15

C	0.0	0.0	0.0
C	-0.2148	0.11235	-1.584037
Br	1.962679	0.0	0.0
H	0.538679	-0.545924	-2.02858
H	-0.320745	0.926726	0.472144
N	-0.627281	-1.08437	0.636996
H	-0.467097	-1.936809	0.109119
H	-1.657209	-0.79975	0.53819
C	0.13153	1.468787	-2.0145
N	0.369617	2.558732	-2.385849
C	-1.562777	-0.294237	-2.187296
H	-1.739823	-1.349261	-1.981615
H	-2.382083	0.234902	-1.706074
H	-1.502744	-0.151996	-3.273357
F	-2.916601	0.0	0.0
