15

C	0.0	0.0	0.0
C	-0.524405	-0.003815	-1.445935
Br	1.957523	0.0	0.0
H	-1.622971	-0.025438	-1.212158
H	-0.293754	0.957042	0.431966
N	-0.526925	-1.037902	0.829585
H	-0.35141	-1.93136	0.377038
H	-1.551795	-0.826888	0.74168
C	-0.147522	-1.224805	-2.143453
N	0.143646	-2.206926	-2.721506
C	-0.167866	1.239694	-2.253635
H	-0.678685	1.228202	-3.219956
H	0.908017	1.320455	-2.426809
H	-0.50445	2.124171	-1.705867
F	-2.802169	0.0	0.0
