13
Coordinates from ORCA-job run
  C   0.67356018740239     -0.20085500932755     -0.33600602276614
  C   -0.77587891855361     -0.50095130419551      0.09989372944976
  Br  0.67348256320490      0.59407922341787     -2.11080380865987
  H   -0.71939491496209     -0.97497776985486      1.09011595032483
  H   1.18926686736008     -1.15778978802241     -0.44247469770082
  C   1.38421058200350      0.70159853554493      0.65506236954000
  H   2.41984665983316      0.85344368237250      0.34990975415055
  H   0.89737156355496      1.67644666201631      0.71594720574122
  H   1.38101112227406      0.24060947256476      1.64800079067381
  C   -1.44031071757885     -1.44661963958195     -0.80232464848617
  N   -1.94894209383460     -2.23685980891463     -1.50577847928027
  C   -1.56362561121134      0.72785941526570      0.24438768428568
  N   -2.16959728949255      1.72201632871484      0.39407017272743
