13
Coordinates from ORCA-job run
  C   0.51204491936021      0.11219229664881     -0.54819187875047
  C   -0.91421383122003      0.15319380324418      0.04566911580077
  Br  0.72168168255823      1.66931836552183     -1.70019526775912
  H   -1.02969942737021      1.09510285214635      0.59641925934111
  H   0.59699626910326     -0.75556757219230     -1.20507875651857
  C   1.58242878788163      0.10407019877686      0.52687039932618
  H   1.49401404188132      0.98453987573551      1.16761746649610
  H   2.57201510325712      0.11240875834539      0.06917396338003
  H   1.49449051972211     -0.79458416681181      1.14286689331820
  C   -1.10022850013787     -0.95993650973733      0.98603384623308
  N   -1.21111475261260     -1.85305047419561      1.74029454749296
  C   -1.94705635568205      0.09628215217198     -0.99440991114570
  N   -2.77135845674111      0.03603042034615     -1.82806967721456
