13
Coordinates from ORCA-job run
  C   0.67613792571567     -0.29213660006329     -0.18244233448864
  C   -0.85229896375210     -0.12941226677992     -0.34282437942723
  Br  1.43581255138394     -0.55170611716042     -1.95805637131694
  H   -1.03825587659398      0.72576851045993     -1.00451929947118
  H   0.87896441242452     -1.21524488165647      0.36415200139288
  C   1.31378939885692      0.90690577292644      0.49376765261047
  H   0.92459522164512      1.02074542228582      1.50854460083090
  H   1.11250956306015      1.82136924510452     -0.06875460287104
  H   2.39412924317659      0.77282066113406      0.55233617858736
  C   -1.46933221189551      0.14933613154750      0.96068292557918
  N   -1.92899642165077      0.38289572419239      2.01568575076050
  C   -1.47468517305016     -1.31711147063600     -0.93778329403630
  N   -1.97236966932039     -2.27423013135456     -1.40078882814996
