13
Coordinates from ORCA-job run
  C   0.61716053688494     -0.15795250553362     -0.44918262892381
  C   -0.76197332722087     -0.50918825507397      0.14651020433026
  Br  0.38290611270074      0.84762056080285     -2.09726216423741
  H   -0.57577134111531     -1.10028993446188      1.05448885548866
  H   1.09671991916405     -1.09454289929111     -0.74212151449799
  C   1.47420026469734      0.61717768834789      0.53382188493420
  H   1.60093772962511      0.03915037841841      1.45487426824026
  H   2.45992680643042      0.80472332943629      0.10718699111359
  H   1.01743281433548      1.57763189994042      0.77891376288168
  C   -1.56200265249295     -1.33735965820056     -0.76094866071874
  N   -2.17624665070128     -2.03316590181183     -1.47968835398260
  C   -1.50227925805499      0.69146113173483      0.54869036114146
  N   -2.07101095425268      1.65473416569228      0.90471699423045
