13
Coordinates from ORCA-job run
  C   0.68714083056262     -0.21058915856082     -0.30252359686851
  C   -0.79184511200147     -0.48213539741358      0.04275403417649
  Br  0.80892155486364      0.62807224457894     -2.05285265697036
  H   -0.80437590454558     -0.98166482950185      1.02191592928944
  H   1.18400679268757     -1.17786860558105     -0.40492798724716
  C   1.36231886773846      0.64795094968680      0.75053446686066
  H   1.28954860222975      0.16374130886995      1.72966870485385
  H   0.89804494200476      1.63399454122481      0.80819141080501
  H   2.41749131899036      0.77891639331678      0.50925156119837
  C   -1.42815209771748     -1.38608769964540     -0.92042764560361
  N   -1.91395560402875     -2.14073078969186     -1.67708872426026
  C   -1.55586166180550      0.76310015022772      0.17461911479365
  N   -2.15328252897837      1.76330089248956      0.31888538897245
