17
Coordinates from ORCA-job run
  C   0.55185537028577      0.52369210910494      0.02126343199392
  C   -0.90775175428487      0.07878550950632     -0.12428369122561
  F   0.68447347190835      1.62370736718193     -0.86047900258162
  H   -1.51089974625586      0.97085058304049      0.13206152408247
  C   1.54714591045273     -0.52097500603709     -0.41364009225608
  H   1.31751166238901     -0.81295472115530     -1.43632054597968
  H   1.48997074214936     -1.39558653504104      0.23346057027431
  H   2.55650022968231     -0.10257379025004     -0.37719656910283
  N   0.78246198010874      0.94043176431559      1.36850183606723
  H   1.75667799208068      1.18182230057275      1.50298428218533
  H   0.22275753033031      1.76083717641685      1.57421362408141
  N   -1.14199662448489     -1.04472813608203      0.76611297790795
  H   -2.13457837910484     -1.14017433735064      0.94506439616837
  H   -0.67766956664007     -0.86144847966303      1.64796543101947
  N   -1.17088214076580     -0.32749579378278     -1.49646065924877
  H   -1.73173923946931      0.35249666092891     -1.98774852237935
  H   -1.63283743838163     -1.22568667170583     -1.49749899100653
