17
Coordinates from ORCA-job run
  C   0.47102934508752      0.45913571267444      0.03655315335686
  C   -0.75907148029230     -0.45661030372371     -0.00548459146123
  F   0.16399780443712      1.61400945985654     -0.68193624750161
  H   -0.47421144679658     -1.38145743657336      0.52432725826668
  C   1.68613729587314     -0.15815613672412     -0.62608749728123
  H   1.46137313922431     -0.41813170989797     -1.65829198228256
  H   2.51175934331193      0.55723364066372     -0.59593739821574
  H   1.98798586118481     -1.06507079943286     -0.09590960564338
  N   0.67997828417294      0.90592310120412      1.40227841324134
  H   1.00480646831459      0.12822248641355      1.96613922272333
  H   1.40700819513603      1.61305031846784      1.40447598754063
  N   -1.01590241693165     -0.83130123656833     -1.38530281531595
  H   -1.72398785574094     -1.55576331743555     -1.40735443848820
  H   -1.41968651488350     -0.01329923477799     -1.83106226424824
  N   -1.88238080996492      0.23687298502217      0.60965674305979
  H   -2.55485350135885     -0.43217111021965      0.96280851356134
  H   -1.54198171077366      0.79851358105116      1.38212754868817
