17
Coordinates from ORCA-job run
  C   0.53019687612687      0.47648291198170      0.04442282048428
  C   -0.64491631881446     -0.50576133700696      0.12281988226742
  F   0.00450164819365      1.55750630461926     -0.73672948761190
  H   -0.28879295794991     -1.39731168666877      0.65004748616291
  C   1.71863246588608     -0.05489844478034     -0.72208805265201
  H   1.42741580979889     -0.31332807989723     -1.73699708332245
  H   2.11545113625014     -0.94865554138108     -0.23476346053227
  H   2.49328880982063      0.71476244721906     -0.75031136706829
  N   0.89621380487811      0.97765709544863      1.31303218012672
  H   1.82001146049631      0.71410780206272      1.61196417619667
  H   0.18494581327587      0.81287944522251      2.00979896310685
  N   -1.02117706109753     -0.90916866718768     -1.22273036459986
  H   -1.31688204639760     -0.08884958495770     -1.73920000923346
  H   -1.79521261338388     -1.56150143546972     -1.18983464947892
  N   -1.66731685030693      0.10802506733692      0.96980631894150
  H   -2.44546659153250     -0.52683688073847      1.09850902563036
  H   -2.01189338524375      0.94489058419716      0.51225362158245
