17
Coordinates from ORCA-job run
  C   0.55841350348007      0.51943847114230      0.01991496679783
  C   -0.90591951510332      0.05906236954362      0.05610850287770
  F   0.61557739614869      1.46370167186821     -1.06407081508196
  H   -1.48363501901443      0.90432173649740      0.46666228846416
  C   1.52660834795527     -0.58521780461205     -0.32532361633921
  H   2.52628725335098     -0.16507923196408     -0.46062225557654
  H   1.22122298312168     -1.06759233990785     -1.25310677056483
  H   1.55216054824829     -1.31331014667235      0.48453061364620
  N   0.90976245207178      1.15387532883990      1.23246284117790
  H   0.30402132576489      1.94328189542867      1.41807975987494
  H   1.86932307224537      1.47401114726327      1.20232137338348
  N   -1.05612409261380     -1.05466962699334      0.96993122895321
  H   -1.99556630116898     -1.08475434257196      1.34298303009684
  H   -0.89791188868908     -1.91048244512883      0.44962695449585
  N   -1.31313639372382     -0.30737672339021     -1.29756629632393
  H   -1.12079787877792      0.45716650876943     -1.93286758284033
  H   -2.31028579329567     -0.48637646811215     -1.30706422304132
