17
Coordinates from ORCA-job run
  C   0.59636037466403      0.32402010358060      0.11375153170677
  C   -0.70095698978051     -0.48641966932111      0.12199586971482
  F   0.24258417730559      1.53164531444582     -0.60335018964862
  H   -0.49966603697711     -1.41494440662788      0.66349094499722
  C   1.72329478796440     -0.30530350617697     -0.66857411497939
  H   1.43224851174872     -0.45291302690950     -1.70545060284591
  H   2.60066440320875      0.34542504508043     -0.62780296842058
  H   1.98071070510248     -1.26954885439062     -0.22851807921467
  N   0.97901821379261      0.61214952910492      1.43829968247920
  H   1.75985673514483      1.25370419970578      1.46751752939237
  H   0.18819385700276      0.97153650484414      1.95753073439102
  N   -1.05055867585396     -0.83031470522516     -1.24734934946352
  H   -1.90679221317882     -1.37079180398074     -1.26129504655137
  H   -1.20691198442851      0.02382481650089     -1.77085081305897
  N   -1.68019112439466      0.26831095296127      0.90552141041854
  H   -2.50768656666359     -0.29246287527474      1.06575439403132
  H   -1.95116817465702      1.09208238168288      0.38032906705180
