17

C	-0.247705	-0.011777	-1.504208
C	0.0	0.0	0.0
F	-0.124405	-1.330174	-1.962008
H	1.098758	0.0	0.0
N	-1.692199	0.297103	-1.917099
O	-1.869415	0.566612	-3.101849
O	-2.573003	0.196363	-1.068506
N	0.587172	0.894123	-2.142943
H	1.545815	0.804449	-1.803684
H	0.523137	0.828031	-3.149069
C	-0.506611	-1.209941	0.776449
H	-1.595008	-1.265591	0.77095
H	-0.08736	-2.116381	0.341959
H	-0.154142	-1.133636	1.80655
C	-0.449312	1.261567	0.577802
N	-0.81055	2.255508	1.08861
Br	3.445201	0.0	0.0
