17

C	-0.510451	-0.033544	-1.435929
C	0.0	0.0	0.0
F	-0.158557	1.097614	-2.089244
H	1.094422	0.0	0.0
N	0.208678	-1.180501	-2.202161
O	1.075443	-0.898104	-3.012412
O	-0.208214	-2.310647	-1.940489
N	-1.91874	-0.18006	-1.536081
H	-2.190698	-1.099318	-1.214435
H	-2.201216	-0.068688	-2.503334
C	-0.448263	-1.178147	0.871444
H	-0.005126	-1.05161	1.860185
H	-1.535177	-1.217785	0.982336
H	-0.081666	-2.115441	0.456297
C	-0.468188	1.253449	0.590619
N	-0.866181	2.228132	1.110692
Br	3.443656	0.0	0.0
