17

C	-0.536269	-0.015954	-1.43967
C	0.0	0.0	0.0
F	-0.013518	1.045124	-2.094522
H	1.094171	0.0	0.0
N	-0.037586	-1.275627	-2.149203
O	0.914901	-1.170119	-2.902298
O	-0.662697	-2.306041	-1.893562
N	-1.950992	-0.004324	-1.637175
H	-2.34688	-0.873785	-1.30705
H	-2.347148	0.772927	-1.120782
C	-0.443028	-1.185717	0.862685
H	-0.06023	-1.03352	1.872921
H	-1.530757	-1.28439	0.91116
H	-0.012653	-2.109398	0.478892
C	-0.486558	1.245717	0.58941
N	-0.96304	2.216729	1.04923
Br	3.435079	0.0	0.0
