17

C	-0.355478	-0.211982	-1.48178
C	0.0	0.0	0.0
F	-1.58479	-0.787567	-1.605738
H	1.094752	0.0	0.0
N	-0.441618	1.151832	-2.166658
O	-1.551722	1.580793	-2.457051
O	0.633171	1.710636	-2.342778
N	0.586272	-0.977811	-2.225832
H	1.525941	-0.644313	-2.00248
H	0.525018	-1.941007	-1.917021
C	-0.423965	-1.210207	0.838607
H	-1.508871	-1.30659	0.895821
H	-0.013099	-1.102178	1.843446
H	-0.001596	-2.121599	0.41016
C	-0.54851	1.226894	0.559407
N	-1.007884	2.192134	1.047382
Br	3.438219	0.0	0.0
