17

C	-0.332213	-0.139531	-1.487931
C	0.0	0.0	0.0
F	-1.607613	-0.598514	-1.698598
H	1.094839	0.0	0.0
N	-0.362299	1.277404	-2.149571
O	-1.423765	1.892246	-2.133437
O	0.698961	1.672543	-2.621754
N	0.597297	-0.991534	-2.089836
H	1.543036	-0.796584	-1.759517
H	0.560451	-0.947575	-3.098349
C	-0.461988	-1.244248	0.765462
H	-0.058532	-2.131126	0.27709
H	-0.070389	-1.198854	1.78321
H	-1.550937	-1.309504	0.798443
C	-0.527904	1.210146	0.614455
N	-0.978468	2.148092	1.160338
Br	3.437503	0.0	0.0
