17

C	-0.263543	0.068737	-1.51325
C	0.0	0.0	0.0
F	-0.031672	-1.169368	-2.025445
H	1.097639	0.0	0.0
N	-1.746441	0.35592	-1.769853
O	-2.071735	1.53141	-1.913742
O	-2.508513	-0.604802	-1.755695
N	0.501079	1.016131	-2.232265
H	0.179498	1.952324	-2.020384
H	1.473774	0.917424	-1.936957
C	-0.546304	-1.232636	0.710873
H	-0.14916	-2.126428	0.231559
H	-0.211242	-1.221959	1.749734
H	-1.637708	-1.266762	0.68608
C	-0.439274	1.239569	0.630883
N	-0.798533	2.233654	1.144597
Br	3.422566	0.0	0.0
