15
Coordinates from ORCA-job run
  C   1.04413545609163     -0.20773521906302     -0.31099923292750
  C   -0.33131635834879      0.48216502363409     -0.19382672075620
  F   2.04376383890022      0.71824148976744     -0.07149121571605
  H   -0.27725599780506      1.33546420473004     -0.88583792722735
  C   1.16441321482949     -1.29986263476624      0.66722791638101
  N   1.27022353699632     -2.13549281388519      1.48510559085750
  C   1.21523155723521     -0.73256876885156     -1.67645004148151
  N   1.30845760141324     -1.10187297439760     -2.78731624740868
  C   -0.55434467113387      0.98770671058494      1.22092974818880
  H   -0.68403970411782      0.14820144175296      1.90833668429612
  H   -1.45522064854471      1.60493372443747      1.25065593920129
  H   0.28582196835915      1.59475819694791      1.55934671620554
  N   -1.32172823569188     -0.51216238285254     -0.56198668907251
  H   -1.52271815551510     -0.49986077035462     -1.55314775336344
  H   -2.18442340266803     -0.38091522768408     -0.05254676717703
