15
Coordinates from ORCA-job run
  C   0.71042688183482     -0.58578240280790     -0.62215813551610
  C   -0.50823481589525      0.29044728165355     -0.29753799365803
  F   0.43178858246378     -1.29571728547969     -1.78101072687761
  H   -0.60543151172535      0.96757778836149     -1.16163887343096
  C   1.90449533387351      0.24052436727655     -0.86793458021933
  N   2.83052804452043      0.93678445416257     -1.05986866723662
  C   0.97911091867722     -1.54347444359028      0.46226614148041
  N   1.22546835229216     -2.28224139332117      1.34085777922709
  C   -0.28375200579608      1.09973056545876      0.96871142917540
  H   -1.14370470393390      1.75142204505220      1.14105153091804
  H   -0.18087168297788      0.43457820029141      1.82878300942302
  H   0.60161344667850      1.73345061837913      0.89367877510878
  N   -1.62687706995222     -0.61682122457721     -0.12644224180727
  H   -1.92460799746691     -0.99586891886105     -1.01599359405419
  H   -2.40995177259281     -0.13460965199835      0.29523614746735
