15
Coordinates from ORCA-job run
  C   0.82346232081922     -0.65795798801912      0.04889332427926
  C   -0.41215200850853      0.19190774785827     -0.30018292662515
  F   0.65706306905430     -1.15964070491369      1.33078029175366
  H   -0.26966905187276      0.52806344135807     -1.33339134705558
  C   0.95662823357531     -1.78805623250654     -0.88416352721229
  N   1.10402822524463     -2.66644606558795     -1.64893609883536
  C   2.05700092948840      0.14684542789861      0.02241704652668
  N   3.01605488084519      0.82353956384312     -0.01460895682269
  C   -0.52281575447783      1.40074822800307      0.62692688858288
  H   0.32842341556538      2.07865595791967      0.53166850884429
  H   -1.42961274986593      1.95683886217886      0.38049751120539
  H   -0.59312277877462      1.07504122610933      1.66725679233650
  N   -1.54298016650360     -0.71991986839001     -0.27741886676527
  H   -1.86280951403850     -0.86133861344843      0.67283814360298
  H   -2.31049905055066     -0.34828098230327     -0.82057678381530
