15
Coordinates from ORCA-job run
  C   0.69442780778535     -0.61868922450699     -0.60940403079974
  C   -0.50193492278927      0.29443087143526     -0.30287511634606
  F   0.39356127422259     -1.35196038026217     -1.74789558124918
  H   -0.58628582575443      0.95173312786365     -1.18345835275847
  C   1.90583183377061      0.17312794581823     -0.88239365078560
  N   2.84523074545004      0.84362629316979     -1.09948586429378
  C   0.94523893467990     -1.55321185360893      0.49913940825520
  N   1.17405529665942     -2.27257514988924      1.39831671669211
  C   -0.25320503382893      1.12939402048938      0.94196998819206
  H   0.64561731721258      1.74122913274638      0.84722538733588
  H   -0.16055327352212      0.48371252955645      1.81781487980937
  H   -1.09748673087205      1.80415389180762      1.10211199354992
  N   -1.64127055162533     -0.58153455286956     -0.10532612936450
  H   -1.95298460885114     -0.97363240724094     -0.98442673523648
  H   -2.41024226253723     -0.07080424450891      0.30868708699927
