15
Coordinates from ORCA-job run
  C   0.72915564812335     -0.75311844380720     -0.17416387766882
  C   -0.26291827933231      0.43271536838493     -0.10134824561472
  F   0.16172911480217     -1.87493320801436      0.38587128207263
  H   0.30816444547345      1.32145833024332     -0.40970114548390
  C   1.05952458915629     -1.03586484495375     -1.58132996675406
  N   1.33696605567795     -1.20621177901290     -2.70946579062720
  C   1.96597152871752     -0.43444582749439      0.56264973425542
  N   2.92716236600756     -0.13501362954937      1.16727695349693
  C   -0.74869132518951      0.61256629119342      1.32922399739725
  H   -1.34249864035318     -0.25209003357986      1.62921810849915
  H   0.08063539530875      0.73108849518747      2.02844922533321
  H   -1.37189087834664      1.50736912870401      1.39122291433900
  N   -1.36685038629866      0.12041599951550     -0.98927386505645
  H   -1.23217392949733      0.50921796146884     -1.91277332544812
  H   -2.24428570424940      0.45584619171436     -0.61785599874032
