15
Coordinates from ORCA-job run
  C   1.07413937208165     -0.15043100832159     -0.26626955368523
  C   -0.36775920185006      0.39901514434202     -0.29539853929066
  F   1.96448376820778      0.87901591925576     -0.01726525778787
  H   -0.39399034704878      1.08298967002812     -1.15064197562475
  C   1.20035451758342     -1.15231834794151      0.80675175858799
  N   1.24529732696633     -1.93003674016331      1.68572366827444
  C   1.41338678816974     -0.75664654351464     -1.56308408327606
  N   1.70109300939334     -1.19455042101827     -2.61389465824204
  C   -0.68902571250046      1.15947682294332      0.98426430925988
  H   0.02397715970920      1.96514867328951      1.16550431123178
  H   -1.68871290861179      1.59165610885711      0.90407472743472
  H   -0.67701168013847      0.48534467969388      1.84581457207417
  N   -1.22133232224310     -0.74103867958059     -0.57741889913430
  H   -1.99031554626706     -0.49593396468261     -1.18414532522130
  H   -1.59258422345177     -1.14169131318724      0.27498494539924
