15
Coordinates from ORCA-job run
  C   0.78104521241424     -0.61168856248252      0.02895316348822
  C   -0.44466491803312      0.29761028471921     -0.27576421413639
  F   0.61587339156448     -1.16075576735866      1.29059794470020
  H   -0.28059293988803      0.70468411850217     -1.27997247231261
  C   0.83827070050870     -1.71025567288288     -0.94858576923068
  N   0.82696323994458     -2.55769701272557     -1.76172693714625
  C   2.04212748935569      0.14306027542494      0.00130984743257
  N   3.02246120003153      0.78850710693681     -0.04550938268775
  C   -0.51592907513808      1.43351592516590      0.73570492690435
  H   -1.38292978088939      2.04937591539863      0.49804649848133
  H   0.37890867583082      2.05776330905422      0.71482364164898
  H   -0.64051737153678      1.03839391763995      1.74617638142002
  N   -1.68676574978656     -0.44015659265707     -0.28342401765069
  H   -1.83394222913449     -0.90514511853075      0.60401422930042
  H   -1.72030784524362     -1.12821212620434     -1.02564384021175
