15
Coordinates from ORCA-job run
  C   0.72772271975773     -0.60446253281729     -0.57921379314201
  C   -0.50066566279351      0.27981371138640     -0.32051163332386
  F   0.48243490203085     -1.35834405814058     -1.71739706029201
  H   -0.57547179042536      0.92550061327667     -1.21058150429846
  C   1.92558600527576      0.21690766479381     -0.82357156366001
  N   2.85592568610618      0.90842063139914     -1.01177700162549
  C   0.96825507339661     -1.52155850172595      0.54625324316190
  N   1.19745391967336     -2.24871448464912      1.43898172961471
  C   -0.31231963136986      1.13402993763216      0.92196113967643
  H   -1.17825550191201      1.78817029548173      1.04858008749984
  H   0.57307893056779      1.76788864503885      0.84822274976639
  H   -0.23089528410769      0.49978886455369      1.80731842404434
  N   -1.62244526146145     -0.62369033365027     -0.14705396344261
  H   -2.41944870853633     -0.12603131698428      0.22829787269607
  H   -1.89095539620204     -1.03971913559502     -1.02950872667523
