15
Coordinates from ORCA-job run
  C   1.06503429683144     -0.18764373456208     -0.27934559408315
  C   -0.35931908784823      0.40707264636913     -0.29234045139468
  F   1.99181319882629      0.81432274934020     -0.05317517223499
  H   -0.37599504330271      1.08658966768023     -1.15138028990119
  C   1.17600728554178     -1.18356919451337      0.80080257830757
  N   1.21854066838610     -1.94434213402822      1.69432754060320
  C   1.36365657152661     -0.81425679046685     -1.57653273673854
  N   1.61899038231273     -1.25973938176106     -2.63237848744413
  C   -0.63843058662894      1.18485050223289      0.98650024527496
  H   -1.62358081998185      1.65080411140900      0.91603778872592
  H   -0.63833514566335      0.51549062455555      1.85185248452602
  H   0.10419549496766      1.96638139470720      1.15400725592269
  N   -1.25228529695688     -0.70818248807708     -0.55080131929324
  H   -1.64715142914043     -1.07075068025725      0.30769255341407
  H   -2.00414048887023     -0.45502729262828     -1.17526639568450
