15
Coordinates from ORCA-job run
  C   0.80947581465270     -0.67297477894101     -0.05457730268256
  C   -0.44295153250702      0.20099112747247     -0.24728678155218
  F   0.79606076713593     -1.17190591258568      1.23914412000348
  H   -0.42568870312894      0.53389376803328     -1.29120417862035
  C   0.80227530556042     -1.80588127837755     -0.99368091143781
  N   0.83685538808858     -2.69643256612963     -1.75756350189539
  C   2.04578834169580      0.10694366447100     -0.23790114347960
  N   3.00728178795435      0.76051114111332     -0.40285779380479
  C   -0.41263926578461      1.41248344976692      0.68255664759778
  H   -1.33140232111445      1.98706284629314      0.54901209066880
  H   0.43360282882014      2.07282186522640      0.47998358875022
  H   -0.35955834499781      1.08904344618873      1.72454917322542
  N   -1.57946916993549     -0.68862162822464     -0.08031123111199
  H   -2.40439628614291     -0.29659123019314     -0.51419456189463
  H   -1.77323461029675     -0.83134391411356      0.90333178623360
