15
Coordinates from ORCA-job run
  C   1.01894887099670     -0.13480894359492     -0.28713613587942
  C   -0.40851781557884      0.48316232652876     -0.26181310429098
  F   1.96343896977249      0.85952920487739     -0.12089706741617
  H   -0.40569782365235      1.21451412147291     -1.07838500541158
  C   1.15921024523425     -1.12147156760089      0.79640714875953
  N   1.20334875351587     -1.90580940292030      1.66954421839776
  C   1.24820706391196     -0.79201596420748     -1.58451913330301
  N   1.36223282762144     -1.30716357885291     -2.63389560564674
  C   -0.65026404864937      1.19348396956298      1.05987710559890
  H   -0.70518015258923      0.47592798484149      1.88349350660659
  H   0.13990460506771      1.91285312240795      1.27663354532897
  H   -1.60466242545014      1.71744127535905      1.00235744508978
  N   -1.45015579281634     -0.48136712075926     -0.51539418837893
  H   -1.50359286347495     -1.18358565074985      0.21212497365861
  H   -1.36422041390919     -0.92968977636491     -1.41839770311334
