15
Coordinates from ORCA-job run
  C   0.68557766936028     -0.57080739550647     -0.61172833549152
  C   -0.52089407931784      0.36809253708122     -0.34487026882958
  F   0.42453335030233     -1.28110688239232     -1.77390380641812
  H   -0.56237093977355      1.01457411466680     -1.22975828972367
  C   1.93151497915991      0.18529380440341     -0.80182910664565
  N   2.89398442312538      0.84123257446065     -0.95478501930685
  C   0.83301542700303     -1.53061538365832      0.49341103871347
  N   0.88766539849893     -2.27077019695538      1.40378286059776
  C   -0.30134054864118      1.20705142346710      0.90240340357039
  H   -1.15533154781300      1.87349512811547      1.02551491331065
  H   0.60652504774931      1.80903907171800      0.83676805275885
  H   -0.23388910198395      0.57322283917991      1.79141943005190
  N   -1.76764686010293     -0.35302615086018     -0.25802488554232
  H   -1.90768823209084     -0.95209269916176     -1.06151157839987
  H   -1.81365498547588     -0.91358278455815      0.58511159135455
