15
Coordinates from ORCA-job run
  C   1.04648077487499     -0.24667551003676     -0.30323127679587
  C   -0.31839146911680      0.47143687595129     -0.23954057007238
  F   2.05782152730262      0.63146625519561      0.04314884367509
  H   -0.26778906710887      1.24889697421495     -1.00954028597672
  C   1.05648369154329     -1.37415895112891      0.64514649423531
  N   1.01684459395016     -2.24171966515158      1.43574542062022
  C   1.29935816620605     -0.73449475331488     -1.66799952962098
  N   1.52252412750663     -1.07330322064633     -2.76969079093542
  C   -0.53651785014645      1.10991706487950      1.12550052621559
  H   -0.60067732604140      0.34304422476672      1.90309166628716
  H   -1.47666577713311      1.66542581146900      1.11641669417742
  H   0.27050609786625      1.79721379460997      1.38360016227473
  N   -1.30558432092905     -0.51886180595416     -0.62987224799612
  H   -1.73274047887338     -0.95251948053506      0.17882895807276
  H   -2.03065268990094     -0.12366761431936     -1.21060406416079
