15
Coordinates from ORCA-job run
  C   0.77626950424066     -0.69882292848243     -0.20484180228755
  C   -0.28645708456917      0.42016310645588     -0.08058978151311
  F   0.27219335974372     -1.88102012232190      0.28701967364738
  H   0.23218984601826      1.35633510747244     -0.33687513000424
  C   1.13389289991027     -0.88325712058389     -1.62165125939164
  N   1.40578960867750     -0.96837792080039     -2.76068374631710
  C   1.98513518968094     -0.34701173037331      0.56259188835052
  N   2.92461397180785     -0.01893258476390      1.18607883051849
  C   -0.79204071128516      0.49490751943811      1.35238805773862
  H   -1.33608029429592     -0.41781869010983      1.59988823672986
  H   -1.46722606333889      1.34718523705054      1.45525975934180
  H   0.02368817337132      0.62383457116610      2.06562330407748
  N   -1.36336307915708      0.08987420977272     -0.99432128312980
  H   -2.26227151542923      0.34971692468451     -0.61396943544924
  H   -1.24733380537506      0.53422442139534     -1.89491731231152
