15
Coordinates from ORCA-job run
  C   0.65644947331926     -0.56804173776140     -0.62990547524793
  C   -0.52331708708516      0.39157951658039     -0.32433693280560
  F   0.35991775803677     -1.25220921411490     -1.79865879801107
  H   -0.56841289050764      1.05579060970189     -1.19579480979327
  C   1.91601749955750      0.16222054862974     -0.83077804696436
  N   2.90674094863891      0.76414916794195     -1.02106170495155
  C   0.80487647742647     -1.55260061093558      0.45333447579852
  N   0.89569373046501     -2.35317587981993      1.30798436063525
  C   -0.25970471693566      1.20117981556173      0.93381571832387
  H   -0.18622916590153      0.54876660557837      1.80897084016544
  H   -1.09651027537765      1.88262581484324      1.08884658209657
  H   0.65921371829960      1.78543540120906      0.86005026554942
  N   -1.78432238685809     -0.30331443874725     -0.22535352881340
  H   -1.95366261886680     -0.88429163671930     -1.03644750719396
  H   -1.82675046421099     -0.87811396194801      0.60833456121207
