15
Coordinates from ORCA-job run
  C   0.66961751545471     -0.59416443645851     -0.60744540290271
  C   -0.51031578327544      0.38072279322442     -0.34647497920828
  F   0.38647287949558     -1.30598084012631     -1.76375158244601
  H   -0.53394398981678      1.02106308297534     -1.23648250203699
  C   1.93491833820876      0.12608583056248     -0.80612487880023
  N   2.91594590680663      0.75236352571573     -0.96543873524223
  C   0.79021408270128     -1.54960053070051      0.50423527066181
  N   0.81467446754168     -2.29321037879540      1.41312713819759
  C   -0.26474991480053      1.22244720741962      0.89403014505115
  H   0.65884857251734      1.79918185820800      0.82150755816480
  H   -0.21207719444566      0.59354666982307      1.78756430914545
  H   -1.10016031290754      1.91254414942805      1.01443369134805
  N   -1.77664101697759     -0.30396893720067     -0.25264145356221
  H   -1.83803865624683     -0.85557803862681      0.59538625983771
  H   -1.93476489425570     -0.90545195544850     -1.05092483820788
