15
Coordinates from ORCA-job run
  C   1.02429405223700     -0.18798466982030     -0.38082613516166
  C   -0.39152143293869      0.41058762077678     -0.24270665619541
  F   1.95240009101689      0.83664099439902     -0.43187479454200
  H   -0.48325191664965      1.11177734664529     -1.08530699926507
  C   1.33787178614866     -1.05631304426815      0.76445035312669
  N   1.59941682234606     -1.71054013936743      1.70360699216985
  C   1.11117892145196     -0.95724301260727     -1.63385199578738
  N   1.12451314937881     -1.54269891575685     -2.65179613871015
  C   -0.52290630668460      1.16840708013934      1.06693721148521
  H   0.28430329397763      1.89165062700172      1.18601874056568
  H   -0.50483072524578      0.47446136082847      1.91091383055558
  H   -1.47140060216211      1.71040959650642      1.08218708510815
  N   -1.31660772576694     -0.70547115963213     -0.30132679465082
  H   -1.60659591321953     -0.91004395047905     -1.24852371016720
  H   -2.13786349388976     -0.53463973436588      0.26209901146852
