15
Coordinates from ORCA-job run
  C   0.97001920570843     -0.19956760485816     -0.39467791316603
  C   -0.42005989599056      0.48162709141374     -0.24300994645083
  F   1.96434495019277      0.75948609259254     -0.40589293846879
  H   -0.48856603644816      1.16044905515263     -1.10097389384040
  C   1.20281471658648     -1.12308921225906      0.72809561966958
  N   1.32755057087768     -1.84246026499971      1.64821995005954
  C   1.01918454832508     -0.94234051460266     -1.66500638488977
  N   0.99695295590099     -1.50460339097063     -2.69599132853749
  C   -0.47553088471961      1.28152875751208      1.04802606015152
  H   -0.46052289115563      0.61853789699560      1.91772507111113
  H   -1.40853162429287      1.84522150491880      1.06734016196636
  H   0.36249074017307      1.97487436361135      1.12418727211419
  N   -1.51872203730082     -0.45002793442418     -0.30850971756250
  H   -1.51123760567259     -1.10287695663502      0.46534028023131
  H   -1.55918671218423     -0.95575888344729     -1.18387229238781
