15
Coordinates from ORCA-job run
  C   0.66838483407097     -0.58982994082418     -0.61348099125240
  C   -0.51658107764929      0.37599419534783     -0.34335452678406
  F   0.38257805595527     -1.30191775775525     -1.76888672668603
  H   -0.55330337850092      1.01493323189582     -1.23394275964039
  C   1.92755567828839      0.13935652507089     -0.81860062783376
  N   2.90331752460244      0.77282816662663     -0.98246157480244
  C   0.80376431716673     -1.54563586560883      0.49633533459667
  N   0.84894435587832     -2.28373628734112      1.40869247299224
  C   -0.26728359838246      1.22183309789348      0.89359893871116
  H   -0.19866079568861      0.59496322372779      1.78752772913175
  H   -1.10878343752273      1.90319429165779      1.02132012457973
  H   0.64933669983615      1.80826176586424      0.81063437429671
  N   -1.77656350733372     -0.31889270315223     -0.23742820755970
  H   -1.93580544524320     -0.92476140255476     -1.03213809585158
  H   -1.82690022547736     -0.86759054084815      0.61318453610206
