18

C	0.0	0.0	0.0
C	-0.411385	0.065379	-1.516985
F	1.371765	0.0	0.0
H	0.157279	0.845233	-2.026454
N	-0.533835	1.050597	0.81812
H	-1.043467	1.718876	0.250322
H	0.197055	1.476197	1.392796
N	-0.313951	-1.321488	0.732901
O	-1.591218	-1.690271	0.646202
O	0.59891	-2.020196	1.266748
N	-1.834587	0.485606	-1.579234
H	-2.076382	0.666988	-2.570072
H	-2.439461	-0.266378	-1.219905
C	-0.160227	-1.29743	-2.15779
H	0.866736	-1.635152	-1.973645
H	-0.840287	-2.080593	-1.771731
H	-0.31588	-1.209705	-3.238218
H	-1.699936	0.0	0.0
