18

C	0.0	0.0	0.0
C	-0.521666	-0.124717	-1.424438
F	1.37549	0.0	0.0
H	-1.598192	-0.322266	-1.292396
N	-0.592662	1.057809	0.671501
H	-1.629829	0.889628	0.539192
H	-0.374548	0.988223	1.659954
N	-0.246606	-1.3471	0.802117
O	-0.56052	-2.38028	0.218648
O	-0.055786	-1.26733	2.014234
N	0.2059	-1.153055	-2.187539
H	-0.145338	-1.100625	-3.137409
H	-0.076147	-2.055854	-1.82528
C	-0.344027	1.209598	-2.135633
H	0.711598	1.493563	-2.151124
H	-0.924468	1.988531	-1.645796
H	-0.694055	1.116852	-3.170324
H	-3.079759	0.0	0.0
