18

C	0.0	0.0	0.0
C	-0.185849	0.129404	-1.539304
F	1.390024	0.0	0.0
H	0.38513	-0.731485	-1.909194
N	-0.381661	1.144668	0.76723
H	-0.297128	0.85425	1.73843
H	0.265498	1.888014	0.537934
N	-0.708727	-1.167046	0.516969
O	-0.66457	-1.285194	1.792387
O	-0.652759	-2.192486	-0.250516
N	0.445117	1.409881	-1.930653
H	1.449939	1.303332	-1.85537
H	0.235038	1.573454	-2.909227
C	-1.55398	0.045825	-2.182549
H	-2.177031	0.90081	-1.919182
H	-2.04149	-0.88133	-1.889913
H	-1.408111	0.033636	-3.276833
H	-2.090932	0.0	0.0
