18

C	0.0	0.0	0.0
C	-0.410843	0.06228	-1.512552
F	1.37183	0.0	0.0
H	0.161734	0.850602	-2.030117
N	-0.53916	1.049671	0.818732
H	-1.04033	1.722343	0.251096
H	0.191225	1.474679	1.392562
N	-0.314337	-1.320168	0.728485
O	0.593886	-2.02123	1.26445
O	-1.588724	-1.685574	0.649373
N	-1.839757	0.484686	-1.578195
H	-2.075952	0.666572	-2.569256
H	-2.439674	-0.264626	-1.216405
C	-0.161794	-1.306016	-2.159388
H	0.861846	-1.635361	-1.972456
H	-0.839529	-2.076944	-1.773984
H	-0.315017	-1.209629	-3.235381
H	-1.692476	0.0	0.0
