16

C	-0.488727	0.003197	-1.436749
C	0.0	0.0	0.0
Br	0.646955	1.24211	-2.559498
H	1.088794	0.0	0.0
H	-0.20459	-0.961932	-1.866234
N	-1.849897	0.328632	-1.610318
H	-2.371497	0.478809	-0.762799
H	-2.339891	-0.150347	-2.34374
C	-0.566947	-1.177449	0.769957
H	-0.377279	-1.048742	1.838731
H	-1.641392	-1.325743	0.626748
H	-0.028404	-2.073997	0.450057
N	-0.428303	1.268486	0.664678
O	-1.598786	1.34602	1.083329
O	0.402628	2.158909	0.798458
F	2.544964	0.0	0.0
