16

C	-0.538106	-0.005331	-1.422815
C	0.0	0.0	0.0
Br	0.50032	1.338852	-2.537631
H	1.088736	0.0	0.0
H	-0.211379	-0.938923	-1.882706
N	-1.921984	0.200298	-1.542085
H	-2.436322	-0.388936	-2.169376
H	-2.400694	0.506968	-0.711993
C	-0.53026	-1.190638	0.779469
H	-0.181126	-1.129799	1.81268
H	-0.109598	-2.10028	0.344107
H	-1.619635	-1.251753	0.779246
N	-0.451733	1.253428	0.678731
O	-1.608867	1.284322	1.138482
O	0.327801	2.194422	0.761997
F	2.579827	0.0	0.0
