10
Coordinates from ORCA-job run
  C   -1.00860822240780     -1.03775543568873      0.16788743890765
  C   -0.24700023814826      0.05174958874889     -0.03568686763030
  H   -0.55428602179368     -1.98265363254569      0.44613605281841
  H   -2.08683256331454     -1.00326739057863      0.06461281589881
  C   -0.88102828684350      1.29039039475231     -0.40131336064051
  N   -1.37492897150902      2.31594966682334     -0.69754965826645
  C   1.25180332458015      0.08184094228226      0.09083989454136
  H   1.71235671283609      0.36680922022455     -0.85854902602612
  H   1.62803082629613     -0.89941397709536      0.38382037648069
  H   1.56049344030444      0.81535062307706      0.83980233391647
