10
Coordinates from ORCA-job run
  C   -1.02863951159012     -1.00495296273193      0.23918798849011
  C   -0.24806381069479      0.05706862717847     -0.02747723876808
  H   -0.58823149729241     -1.95302713337214      0.52860441021538
  H   -2.10881343191349     -0.94593425013176      0.17368153104425
  C   -0.86170794997573      1.30137310525615     -0.40865665122937
  N   -1.33212887713921      2.33265168982523     -0.72241979311191
  C   1.25485154113000      0.05073329309927      0.04219309160204
  H   1.61781244284703     -0.93463254782242      0.33770544763957
  H   1.60971971962337      0.78890066029348      0.76552980269046
  H   1.68620137500535      0.30781951840565     -0.92834858857245
