10
Coordinates from ORCA-job run
  C   -0.94597561769073     -1.09321885366252      0.18676875423069
  C   -0.25075217852548      0.04685119987848      0.02846155580805
  H   -0.43866068560371     -2.05195394129283      0.18072179183614
  H   -2.02127744776132     -1.08931965142667      0.32155249072438
  C   -0.95042744535379      1.30383622806522      0.04022708667792
  N   -1.49311495478037      2.34727230621762      0.04556917462881
  C   1.23996817157676      0.11703587642684     -0.16387361722328
  H   1.48307541070040      0.59899785414935     -1.11404054240321
  H   1.70301569481634      0.70611372398697      0.63160103960746
  H   1.67214905262188     -0.88461474234247     -0.15698773388695
