10
Coordinates from ORCA-job run
  C   -0.97139183898840     -1.06328963512019      0.22741904298647
  C   -0.24989338786275      0.03815273079842     -0.04523750028917
  H   -0.48628341229018     -1.96259736167430      0.59161581847861
  H   -2.04685255392284     -1.08505589468374      0.09560210235571
  C   -0.92049838759029      1.21659929452049     -0.52645600231762
  N   -1.43780923444315      2.19647518401333     -0.92101333128953
  C   1.24271105555056      0.14170590954598      0.11442497230207
  H   1.71608846529147      0.38183104729869     -0.84066204250922
  H   1.50007197565888      0.93679159488945      0.81855118382181
  H   1.65185731859669     -0.79961286958814      0.48375575646088
