10
Coordinates from ORCA-job run
  C   -0.99434084974553     -1.04709388498223      0.19883809466212
  C   -0.24807825732923      0.05792371634027      0.02653317735536
  H   -2.06907051937584     -0.99200423626256      0.32814482091543
  H   -0.53131927404207     -2.02789945010360      0.21123511417179
  C   -0.89078351305692      1.34487197391604      0.01632945485005
  N   -1.38578352061526      2.41172641239830      0.00302292933783
  C   1.24497894067447      0.05897844176737     -0.15956714452234
  H   1.51276204146150      0.51641306929560     -1.11518273279004
  H   1.63210315194886     -0.96067437701489     -0.13720599556553
  H   1.73053180008002      0.63775833464569      0.62985228158536
