10
Coordinates from ORCA-job run
  C   -0.95783143884462     -1.06680913546649      0.26410651941504
  C   -0.24978624708541      0.05195558730264      0.02936125618886
  H   -0.46328108611323     -2.03134762080987      0.30646999119925
  H   -2.03033106057817     -1.03845944266588      0.41795657343930
  C   -0.93150390515247      1.31785509149666     -0.02110239495610
  N   -1.45853323553670      2.36820543919510     -0.06835698286603
  C   1.23831541776932      0.08886689841689     -0.18974358306916
  H   1.72235183548514      0.71596347058919      0.56295755826607
  H   1.47306376182320      0.51076099770714     -1.17002618332196
  H   1.65653595823295     -0.91699128576537     -0.13062275429527
