15

C	0.0	0.0	0.0
C	-0.523324	-0.255823	-1.427659
F	1.365645	0.0	0.0
H	-1.620869	-0.157489	-1.398874
N	-0.493246	1.269659	0.402741
H	-1.519513	1.200659	0.408479
H	-0.176337	1.463504	1.346243
C	-0.367709	-1.134689	0.896632
N	-0.523137	-1.974332	1.702967
N	-0.216123	-1.663287	-1.874183
O	-1.170564	-2.358449	-2.204519
O	0.964981	-2.001111	-1.878731
C	0.105292	0.666704	-2.361729
N	0.598102	1.39237	-3.141559
Cl	-3.410175	0.0	0.0
