15

C	0.0	0.0	0.0
C	-0.29262	-0.014511	-1.53801
F	1.363981	0.0	0.0
H	0.546977	-0.581088	-1.946602
N	-0.477164	1.170476	0.630179
H	-0.227769	1.136945	1.612543
H	-1.505337	1.133104	0.555345
C	-0.38785	-1.304928	0.598484
N	-0.495527	-2.341936	1.141523
N	-0.060306	1.393786	-2.049834
O	-1.032357	2.117316	-2.205231
O	1.113393	1.692166	-2.255927
C	-1.500171	-0.565585	-2.144114
N	-2.174358	-1.074804	-2.963253
Cl	-3.273668	0.0	0.0
