15

C	0.0	0.0	0.0
C	-0.460638	-0.073591	-1.483735
F	1.37046	0.0	0.0
H	-1.550182	-0.2424	-1.452497
N	-0.481106	1.134727	0.69903
H	-1.500016	1.033792	0.770536
H	-0.26738	1.97878	0.177446
C	-0.406086	-1.231285	0.71851
N	-0.532907	-2.218103	1.341647
N	0.199303	-1.227779	-2.183059
O	-0.303852	-2.329432	-1.982446
O	1.194665	-0.999359	-2.866475
C	-0.12542	1.167668	-2.165784
N	0.118964	2.200317	-2.668897
Cl	-3.380566	0.0	0.0
