15

C	0.0	0.0	0.0
C	-0.539679	0.198313	-1.417671
F	1.372422	0.0	0.0
H	-1.647185	0.111777	-1.33666
N	-0.469174	1.104839	0.774061
H	-1.495272	1.071954	0.73885
H	-0.18859	0.963575	1.7391
C	-0.373267	-1.321018	0.580351
N	-0.596768	-2.307244	1.178407
N	-0.084637	-0.860981	-2.392045
O	0.349596	-1.914068	-1.937929
O	-0.235167	-0.598037	-3.58069
C	-0.150699	1.498769	-1.944069
N	0.159699	2.545219	-2.377293
Cl	-3.417355	0.0	0.0
