16

C	-0.5817	0.045972	-1.4008
C	0.0	0.0	0.0
F	-0.294995	-1.097403	-2.07979
H	1.094965	0.0	0.0
N	-1.972947	0.269535	-1.3963
H	-2.157866	0.998839	-0.715322
H	-2.305557	0.520535	-2.319049
N	0.110272	1.154001	-2.230143
O	0.735775	2.028116	-1.645991
O	-0.107626	1.113039	-3.440281
C	-0.447253	-1.231635	0.633677
N	-0.769488	-2.207199	1.205433
N	-0.465182	1.178569	0.760436
H	-0.739733	0.88683	1.690415
H	0.35848	1.767303	0.860717
H	2.674138	0.0	0.0
