16

C	-0.56471	0.020759	-1.400596
C	0.0	0.0	0.0
F	-1.975763	-0.113845	-1.358091
H	1.090886	0.0	0.0
N	-0.155305	1.14776	-2.097872
H	-0.690802	1.280022	-2.942968
H	-0.175939	1.938566	-1.466585
N	-0.177036	-1.206379	-2.212762
O	-0.478642	-1.165555	-3.404602
O	0.366978	-2.141702	-1.640746
C	-0.518938	-1.108344	0.789045
N	-0.956724	-1.933739	1.503741
N	-0.279477	1.30283	0.62251
H	-1.081089	1.258831	1.238729
H	0.552766	1.535098	1.162434
H	2.623041	0.0	0.0
