16

C	-0.517021	0.07734	-1.427469
C	0.0	0.0	0.0
F	-0.239276	-1.103877	-2.062779
H	1.098263	0.0	0.0
N	-1.876703	0.436504	-1.533692
H	-2.303976	-0.007204	-2.33617
H	-2.369591	0.240215	-0.675135
N	0.254895	1.137667	-2.235259
O	0.477958	0.89489	-3.413087
O	0.481526	2.196495	-1.663979
C	-0.473163	-1.265964	0.555155
N	-0.861527	-2.261513	1.044885
N	-0.548936	1.094013	0.826729
H	-0.119697	0.977338	1.740786
H	-0.138586	1.940921	0.445106
H	2.706484	0.0	0.0
