16

C	-0.473097	0.093839	-1.440754
C	0.0	0.0	0.0
F	0.082242	-0.918741	-2.171944
H	1.09258	0.0	0.0
N	-1.87337	0.053252	-1.597457
H	-2.184685	0.44199	-2.475601
H	-2.385823	0.402727	-0.803006
N	0.076079	1.359608	-2.149468
O	-0.219508	1.434322	-3.344283
O	0.70777	2.198283	-1.522852
C	-0.488911	-1.268925	0.538117
N	-0.886422	-2.277439	0.992749
N	-0.374033	1.100052	0.885039
H	0.433394	1.716469	0.904387
H	-1.159081	1.633211	0.532903
H	2.661566	0.0	0.0
