16

C	-0.242525	0.039302	-1.495654
C	0.0	0.0	0.0
F	-0.055523	1.331072	-1.965161
H	1.103402	0.0	0.0
N	0.570425	-0.912829	-2.105235
H	1.517422	-0.814495	-1.718324
H	0.557571	-0.821488	-3.11154
N	-1.702409	-0.214236	-1.905051
O	-2.571877	-0.051688	-1.053158
O	-1.903531	-0.520086	-3.077621
C	-0.433031	-1.277551	0.559092
N	-0.784973	-2.261684	1.098981
N	-0.462895	1.163992	0.719851
H	0.248738	1.409907	1.398402
H	-1.337161	0.983236	1.192138
H	2.681076	0.0	0.0
