16

C	-0.629157	0.054247	-1.377708
C	0.0	0.0	0.0
F	-0.02271	-0.892659	-2.198883
H	1.091913	0.0	0.0
N	-2.032357	-0.074948	-1.360746
H	-2.401265	0.031896	-2.296904
H	-2.277548	-0.980563	-0.980654
N	-0.306988	1.371763	-2.074577
O	-1.069066	1.694062	-2.989093
O	0.711437	1.961022	-1.750774
C	-0.418515	-1.25805	0.616498
N	-0.785401	-2.252619	1.127933
N	-0.393378	1.176214	0.768455
H	-1.117373	0.96731	1.438928
H	0.441103	1.488696	1.256621
H	2.67205	0.0	0.0
