16

C	-0.567189	0.12808	-1.418688
C	0.0	0.0	0.0
F	-0.525469	-1.077649	-2.039822
H	1.095556	0.0	0.0
N	-1.888747	0.664357	-1.540652
H	-1.922857	1.434778	-0.873704
H	-2.517014	-0.061989	-1.207503
N	0.341941	1.065251	-2.210952
O	1.015374	0.597534	-3.114948
O	0.303911	2.239542	-1.858216
C	-0.507038	-1.221227	0.592885
N	-0.928403	-2.175969	1.137951
N	-0.389148	1.181483	0.794327
H	-0.763826	0.881493	1.686928
H	0.485994	1.66999	0.984303
H	2.616165	0.0	0.0
