16

C	-0.587098	0.019415	-1.396686
C	0.0	0.0	0.0
F	-0.004431	-1.001004	-2.141071
H	1.094646	0.0	0.0
N	-1.994367	-0.038605	-1.429676
H	-2.304595	-0.885368	-0.968886
H	-2.313238	-0.020087	-2.391026
N	-0.181101	1.277611	-2.158714
O	0.729787	1.966954	-1.728143
O	-0.788357	1.458385	-3.218517
C	-0.434207	-1.246697	0.627051
N	-0.823636	-2.23692	1.131494
N	-0.402267	1.187701	0.745483
H	-1.122262	0.983382	1.424347
H	0.433627	1.515152	1.222209
H	2.667324	0.0	0.0
