16

C	-0.50813	0.089132	-1.430911
C	0.0	0.0	0.0
F	-0.003763	-0.974534	-2.151784
H	1.091891	0.0	0.0
N	-1.920027	0.177761	-1.525509
H	-2.196329	0.144056	-2.500263
H	-2.332878	-0.599271	-1.022866
N	0.00761	1.316505	-2.181199
O	-0.30408	1.347397	-3.371068
O	0.649683	2.170319	-1.589372
C	-0.485041	-1.281549	0.517886
N	-0.898761	-2.307784	0.916927
N	-0.420776	1.08365	0.87514
H	-1.262034	1.519998	0.520882
H	0.331678	1.763005	0.866277
H	2.678889	0.0	0.0
