14
Coordinates from ORCA-job run
  C   0.76514823916305     -0.33020892891119      0.11154637057373
  C   -0.76728762711353     -0.14416926181331      0.24194007692958
  Cl  1.08778544131603     -2.12353460739126      0.20609914523283
  H   -1.05373833512241     -0.63494779786887      1.17886780118121
  C   1.19263929542854      0.11226848521763     -1.21849012652105
  N   1.49667108477064      0.48212971109407     -2.29114100999751
  N   1.43328864029266      0.42231705282904      1.11076575934916
  H   2.43880385326269      0.39092397356429      0.99860264132542
  H   1.18958312933130      0.09458911738978      2.03826491391693
  N   -1.45777599980668     -0.79952538765284     -0.84624520311901
  H   -1.42855201568777     -0.22898061873220     -1.68348669793266
  H   -2.42691305745695     -0.96023029039018     -0.60560936559111
  C   -1.06886419121001      1.29623613461501      0.36121020318643
  N   -1.39978845716755      2.42313241805003      0.39667549146603
