14
Coordinates from ORCA-job run
  C   0.79634554693337     -0.10216234249967     -0.11226218161056
  C   -0.66283620816184      0.36315813663662      0.09310341513800
  Cl  0.75190516428287     -1.46554308788035     -1.35902336279508
  H   -0.59832668718080      1.20177782607132      0.79436069230372
  C   1.59670412331088      0.96644681147894     -0.71248548404974
  N   2.23352815555650      1.83991291427703     -1.17221843424378
  N   1.31777518592883     -0.47877943677720      1.13986136805212
  H   2.25616010924629     -0.85054360543599      1.07616950340364
  H   0.68476761864607     -1.13177024951600      1.58790169417916
  N   -1.40622123148384     -0.70729439572070      0.73337340165273
  H   -1.69905563601011     -1.39115922203757      0.04538575709057
  H   -2.23129170170899     -0.33693630727939      1.18751792605342
  C   -1.24989722312449      0.85646506437088     -1.16302197802112
  N   -1.78755721623473      1.23442789431210     -2.13666231715309
