14
Coordinates from ORCA-job run
  C   0.69868622098615     -0.16284832508165     -0.22856666941163
  C   -0.75639020067743      0.28193694730199      0.05082501785490
  Cl  0.77460578659988     -1.13869083047621     -1.71093686523527
  H   -0.69015123149264      0.91278315165422      0.95605976137084
  C   1.54315214240007      1.02799033908885     -0.42409476821839
  N   2.23817278927381      1.97404556563636     -0.49123969366959
  N   1.12369811210987     -0.98728931814978      0.88856299215464
  H   1.33690328479415     -0.39348990428405      1.68466504950712
  H   1.96504626226758     -1.49597330497752      0.64235466563196
  N   -1.59579020223332     -0.88785527954150      0.18827732057266
  H   -2.53196124755671     -0.61783643031879      0.46114203605231
  H   -1.19271211143073     -1.49123917597393      0.89463284140533
  C   -1.24648631952412      1.13943033044140     -1.03337596842878
  N   -1.66577328551657      1.83903623468061     -1.87730571958609
