14
Coordinates from ORCA-job run
  C   0.68087612800635     -0.54672015441594      0.21012350848412
  C   -0.81440224599058     -0.22908520699939     -0.02661607031186
  Cl  0.80788370835371     -2.03489089993045      1.19069159436618
  H   -1.27483820758802     -1.12207345905191     -0.47061342944793
  C   1.27514198016587     -0.83906374502202     -1.11077032109818
  N   1.72419189275669     -1.01225191718674     -2.18364851422694
  N   1.27680826246473      0.54674721896949      0.90982727400548
  H   1.06885041363104      1.39999917351271      0.40020275217841
  H   2.27773504143681      0.42670279822514      1.00405584550778
  N   -0.88241529477733      0.96473312220337     -0.86602219627829
  H   -0.84231251655282      0.70387047891100     -1.84425482489759
  H   -1.74186094635586      1.47376134908791     -0.70464241660272
  C   -1.47344298209791      0.02694747894062      1.25679339569327
  N   -2.08321523345273      0.24332376275620      2.23587340262825
