14
Coordinates from ORCA-job run
  C   0.73471609625857     -0.42538700118139      0.29218888798519
  C   -0.78214496681890     -0.32876092443361      0.00302931307802
  Cl  1.01345204590577     -1.72379860268013      1.48782241169110
  H   -1.12268538314623     -1.32629603600026     -0.30575024733122
  C   1.39036841767070     -0.83776533519067     -0.96553262107194
  N   1.89106342467601     -1.10428093203920     -1.99559665337663
  N   1.18118554898570      0.82418959418985      0.82124965757902
  H   2.18639573470380      0.83862527891759      0.94195667064367
  H   0.89098636223195      1.55911926516261      0.18350478159702
  N   -0.97113498240116      0.71006169897223     -1.00697397820684
  H   -0.89490445831584      0.31105471328074     -1.93501308175024
  H   -1.88076351303673      1.14384194013039     -0.91726311131945
  C   -1.49600025127794      0.03288778683560      1.23012700739492
  N   -2.13853407543565      0.32650855403622      2.16725096308738
