14
Coordinates from ORCA-job run
  C   0.66637610649228     -0.53161696747911      0.22703058270874
  C   -0.82577383763891     -0.23251969677382     -0.03968173777102
  Cl  0.80678492430470     -1.79645262866342      1.47550851954134
  H   -1.27250961035779     -1.13357646559305     -0.47170726782626
  C   1.25049540892951     -1.06792641030805     -1.01707325654499
  N   1.72375755113332     -1.46153078942209     -2.01833928769008
  N   1.29467008590626      0.67373520650372      0.70370822540582
  H   2.23530614164991      0.47709908963790      1.02587605784233
  H   1.34617987499905      1.33084453454773     -0.06838056813743
  N   -0.88751254682576      0.86330849918785     -0.99703561126630
  H   -1.60998930924544      0.70813000965323     -1.68603019976042
  H   -1.07118730922668      1.74176254154831     -0.52977447354277
  C   -1.51980393874462      0.06792621282004      1.22104347434594
  N   -2.13779354137582      0.35981686434069      2.17585554269508
