14
Coordinates from ORCA-job run
  C   0.80277688179944     -0.40082984159411      0.29109293461919
  C   -0.73555623199229     -0.34108586948605      0.02923839876729
  Cl  1.08019115017759     -1.51048829399868      1.66162298683776
  H   -1.10806459612500     -1.36926597059951     -0.07590970139965
  C   1.40152530007795     -0.98258452682262     -0.91867686820518
  N   1.80096160101757     -1.44299411839589     -1.92278812686186
  N   1.42183508779711      0.86177849751235      0.57284896726668
  H   1.14459170610483      1.51502255619315     -0.15433969521846
  H   1.10170844818764      1.20673709415536      1.47179050424883
  N   -0.93552367161138      0.50408290174623     -1.14291380580875
  H   -1.84700431535814      0.94320146269996     -1.12893042530069
  H   -0.86031201940877     -0.05094151091521     -1.98725302652014
  C   -1.37867579764242      0.27107137167032      1.19262331728605
  N   -1.88745354302411      0.79529624783471      2.11159454028887
