14
Coordinates from ORCA-job run
  C   0.73523104334087     -0.30774305903598      0.06327361359423
  C   -0.77666705838212     -0.02642773352857      0.20642972772593
  Cl  0.89034080859047     -2.14883386453225      0.02786913505568
  H   -1.07129921590435     -0.45210305334836      1.18011172621440
  C   1.23254321662137      0.17702914361339     -1.22411021340464
  N   1.66187958301372      0.58914078387887     -2.23640014634099
  N   1.44827014484438      0.29262291083328      1.12376564790899
  H   1.16755110645311     -0.07902131830603      2.02303141287668
  H   2.45044488810755      0.20671700102876      1.01378953561788
  N   -1.49936593592099     -0.56401744923698     -0.93056954711167
  H   -2.40509299653829     -0.12286211285754     -1.02034624764846
  H   -1.62730224178225     -1.56217946010680     -0.82719896298697
  C   -0.98312463739739      1.42440410625695      0.27324954965591
  N   -1.22240870504604      2.57227410534127      0.32710476884300
