14
Coordinates from ORCA-job run
  C   0.78502016977476     -0.40007608782227      0.33708418785095
  C   -0.75226545629490     -0.29170363686192      0.08545878960379
  Cl  1.02722262100615     -1.31801964178673      1.84866499202602
  H   -1.18179046738542     -1.30183834854824      0.13150184822724
  C   1.32942816259245     -1.17985780288217     -0.78369642534007
  N   1.68623436439354     -1.79836867899819     -1.71636484902952
  N   1.47658242985699      0.85307214049195      0.42935290954122
  H   1.19113718698182      1.33990284521448      1.27265881743193
  H   1.22205961528020      1.41072522925892     -0.38101104761205
  N   -0.92779729901936      0.38864334942608     -1.19307474483838
  H   -0.89792673367304     -0.28372232150524     -1.95047657465163
  H   -1.81410485715212      0.87522903399697     -1.23223577257187
  C   -1.33999267374064      0.51426336433095      1.15635030208085
  N   -1.80280706262045      1.19075055568541      1.99678756728148
