14
Coordinates from ORCA-job run
  C   0.56860186559470     -0.45870251300355      0.28933561912590
  C   -0.93541804129572     -0.08488020119724      0.11117692441293
  Cl  0.72973274702058     -1.33639901014840      1.88783072025547
  H   -1.52441100682482     -0.98454309573124      0.31039568889910
  C   0.92588262779005     -1.41739657368226     -0.75892148373061
  N   1.17075800568704     -2.17747302541125     -1.62051255836199
  N   1.37085611717053      0.70476174594544      0.17384527034983
  H   1.19119535975572      1.34738657248074      0.93818097809564
  H   2.35883004661411      0.48690569291798      0.14060727209670
  N   -1.26870448347826      0.42247114686260     -1.19713519966846
  H   -1.23520472280368     -0.31917148201912     -1.88543942795110
  H   -0.61802744481426      1.15209529251412     -1.46297860929672
  C   -1.26388285602591      0.91991503126428      1.13288481399188
  N   -1.47120821439008      1.74503041920789      1.94172999178143
