14
Coordinates from ORCA-job run
  C   0.64213304313667     -0.34927618853856      0.28646350239089
  C   -0.90571463699406     -0.24755231907314      0.12234458460828
  Cl  0.97074787209795     -1.16954430628223      1.88990989365294
  H   -1.32538107742789     -1.23474379735433      0.33515780575251
  C   1.15352616217653     -1.23983099233313     -0.75814449457578
  N   1.53329977737143     -1.94699197279468     -1.61579487285605
  N   1.22608264115115      0.93590711171100      0.15286984313321
  H   2.23660547202976      0.89483308806900      0.11002104174378
  H   0.94373504099687      1.54392639514501      0.91450260208893
  N   -1.33540588701218      0.18069396133621     -1.18618569702556
  H   -0.82528995106188      1.01037962831018     -1.46512799018298
  H   -1.17931036592271     -0.55033974132310     -1.86891712501955
  C   -1.39603353398327      0.69382804720391      1.13969577164097
  N   -1.73699455655838      1.47871108592388      1.94320513464846
