14
Coordinates from ORCA-job run
  C   0.71038131074599     -0.13481489257294     -0.21198292523987
  C   -0.76382341302173      0.26167117220839      0.03788155778926
  Cl  0.85926940922947     -1.03936246956455     -1.73351888610343
  H   -0.74356106133214      0.85322980009190      0.97137522313927
  C   1.53052646961792      1.08346179034150     -0.32488243929706
  N   2.20278371788815      2.04827336747143     -0.32674667642124
  N   1.11937017398431     -0.99942201550603      0.88038818562094
  H   1.98113562833113     -1.47621604487626      0.63992079383230
  H   1.29100797335536     -0.43797149785987      1.70952074706863
  N   -1.57662463253719     -0.93346452431378      0.09534014738479
  H   -2.52836448199977     -0.69827892377508      0.34605485886616
  H   -1.18259445460261     -1.55735696812696      0.78934974729584
  C   -1.24191226512701      1.15372752774253     -1.02363347175285
  N   -1.65659437453188      1.87652367873973     -1.85006686218274
