14
Coordinates from ORCA-job run
  C   0.55195032342919     -0.52115820901731      0.31124423372015
  C   -0.93716903602473     -0.14052288122785      0.06749455766680
  Cl  0.65357477144363     -1.58449369303890      1.73688679690209
  H   -1.49214418561729     -1.07683346778977     -0.05951993622082
  C   1.00892634065214     -1.29019461359040     -0.86154309075558
  N   1.35018764110061     -1.84049130962647     -1.84325044749248
  N   1.32344211670370      0.67152399668783      0.56689443709484
  H   2.22979146326609      0.43107938019013      0.95113448050030
  H   1.47323863586063      1.17698758958674     -0.29925283836317
  N   -1.16668143658597      0.69187120187813     -1.08995346785193
  H   -0.76106038064445      1.61210501070684     -0.99000943673926
  H   -0.86723752766941      0.24948736107931     -1.94899422274357
  C   -1.45601387002856      0.53667404305190      1.26202980674783
  N   -1.90980485588561      1.08296559110982      2.19583912753482
