14
Coordinates from ORCA-job run
  C   0.79449527639852     -0.30712530022968      0.28196545357315
  C   -0.74722509596084     -0.36527275012134      0.16780854899220
  Cl  1.30783448741255     -1.29803312315051      1.67774527345108
  H   -1.03451117115395     -1.42438991844793      0.12027669600577
  C   1.34325287915627     -0.94279047143478     -0.93345147619498
  N   1.74838496328385     -1.39881355043615     -1.93878350912146
  N   1.18926304843202      1.05111994950762      0.48028805591259
  H   0.76633174994653      1.61367746275738     -0.25162267591480
  H   2.19662503226548      1.15177140848342      0.46555912768599
  N   -1.13076218189961      0.41644461194594     -1.00533414170572
  H   -1.10721418341799     -0.16598324316691     -1.83403265057082
  H   -2.06488429071977      0.79147037713794     -0.90281794403421
  C   -1.35241309604204      0.21292848447009      1.37044055936471
  N   -1.90817741770103      0.66499606268492      2.29995868255656
