14
Coordinates from ORCA-job run
  C   0.73178729138135     -0.31734377067159      0.04384267381813
  C   -0.77163975886293     -0.01653312886882      0.22956209653153
  Cl  0.86181629080556     -2.16011931785096      0.00360503301112
  H   -1.04420776321546     -0.43835412054241      1.21126811126441
  C   1.19921792232051      0.16148484604714     -1.25688989176597
  N   1.60763635811223      0.56842206131642     -2.27989373928888
  N   1.48209577641115      0.27318306175176      1.08408473799017
  H   2.47958381110896      0.17528458983101      0.94537886420369
  H   1.22244326641961     -0.09621456026575      1.99056792952011
  N   -1.53332070870234     -0.54492823722856     -0.88626731826914
  H   -2.43390307339620     -0.08946018835109     -0.95298559298947
  H   -1.67412794271548     -1.54076054424700     -0.77752875786511
  C   -0.95677403154774      1.43698915233072      0.29991072373663
  N   -1.16960743811918      2.59035015674908      0.34734513010278
