14
Coordinates from ORCA-job run
  C   0.76065924093609     -0.34857684563070      0.08304324366925
  C   -0.76232390362550     -0.12986543914011      0.26522568707328
  Cl  1.04403152402446     -2.15040302613881      0.14629736598768
  H   -1.03019212495364     -0.62762592474691      1.20389351583094
  C   1.15439018793461      0.09940707223648     -1.25546028909325
  N   1.42931614183338      0.47251135804459     -2.33490959301492
  N   1.47821340624916      0.37582588891597      1.06821684539688
  H   2.47847075694320      0.32406034687210      0.92249332844791
  H   1.25740659655359      0.04311378326900      1.99959547725504
  N   -1.50149713041245     -0.75401009510800     -0.80940957705665
  H   -1.48880268324939     -0.17057260167159     -1.63813673811651
  H   -2.46508285047454     -0.89994985148453     -0.53903334777427
  C   -1.02677665800413      1.31501297940017      0.41349010081593
  N   -1.32781250375480      2.44907235518231      0.47469398057869
