14
Coordinates from ORCA-job run
  C   0.67547762231301     -0.51481467970281      0.24919163478050
  C   -0.81907116699983     -0.24605276868336     -0.03739212331633
  Cl  0.82297389714549     -1.75595264776159      1.52123062633979
  H   -1.24757190394846     -1.16652338381119     -0.44650621035987
  C   1.27886801974580     -1.06576899889422     -0.97945360186171
  N   1.77242241890363     -1.47051276734171     -1.96628220648459
  N   1.27894686409136      0.70774591472082      0.70912237998082
  H   2.23163100036020      0.53941305926295      1.01128108265360
  H   1.29320500189798      1.36284408576748     -0.06635768272664
  N   -0.89250872897645      0.82619114827974     -1.02088372461419
  H   -1.15021468010091      1.70319617292482     -0.58769726134824
  H   -1.56116647018137      0.61468706824586     -1.74768627521084
  C   -1.52743645600906      0.07766011317273      1.20874986029382
  N   -2.15455541824137      0.38488768382048      2.15268350187387
