14
Coordinates from ORCA-job run
  C   0.69250810438513     -0.37968123857448      0.38698017037251
  C   -0.85580121466351     -0.28407545484777      0.13875100707088
  Cl  0.91660119957977     -1.15091157310473      1.99370682645911
  H   -1.28573898014539     -1.27038782492402      0.33967945693797
  C   1.23249845325617     -1.27332099843999     -0.64404183143332
  N   1.60254156954977     -1.99176319232293     -1.49666085379004
  N   1.41422806670383      0.85524885288528      0.36467268090563
  H   1.51633388853257      1.22597252334604     -0.57051722347300
  H   1.00845226619896      1.53781631633727      0.99412125761900
  N   -1.23646580056773      0.12440870734988     -1.19229712059069
  H   -0.86652946316647      1.03423811924269     -1.43361915298576
  H   -0.96244280702300     -0.56072417464492     -1.88475435917521
  C   -1.39763587041495      0.67177844340835      1.11191605532493
  N   -1.77754941222515      1.46240149428931      1.89206308675798
