14
Coordinates from ORCA-job run
  C   0.78827788377579     -0.38021557871418      0.00452918156564
  C   -0.73082294346609     -0.13464406358297      0.22597867964467
  Cl  0.98922484006003     -2.16993510131585     -0.04962920430858
  H   -0.97072714978292     -0.62207589243347      1.18551985119934
  C   1.19037995024035      0.18136123798156     -1.28828675991443
  N   1.53576090254775      0.68420460353342     -2.29160566553836
  N   1.64851463318523      0.13055732117713      1.03037242051743
  H   1.35016319040717     -0.17873752944731      1.94787250463130
  H   1.69521868315107      1.14237177144341      0.99657729112717
  N   -1.50125384549655     -0.60321591512400     -0.90842175220796
  H   -2.43413029834043     -0.21157571341189     -0.90259114742720
  H   -1.56945898092305     -1.61267357118111     -0.88900092786088
  C   -0.92555876386779      1.30874043314476      0.39873997995536
  N   -1.06558810149057      2.46583799793049      0.54094554861650
