14
Coordinates from ORCA-job run
  C   0.80453838860079     -0.03400341917275     -0.08605183675580
  C   -0.68795818664273      0.29805474304875      0.13669079153020
  Cl  0.90071589628770     -1.06044375392203     -1.62003523489270
  H   -0.70687055956463      0.94599079887525      1.01927146694624
  C   1.56590228751503      1.18406905702709     -0.36797069623347
  N   2.17260529852555      2.17005759275796     -0.56697457128871
  N   1.29000757299157     -0.67386677589724      1.07035402802600
  H   0.67833793055830     -1.44551748145644      1.31202810011036
  H   2.25117621177123     -0.97393899983150      0.97523729525530
  N   -1.39407192663871     -0.92870201298519      0.45991920975027
  H   -1.61154471620433     -1.44194853837420     -0.38619347252038
  H   -2.26074511467228     -0.71761430229455      0.93801338510544
  C   -1.24408618282763      1.05010993245527     -0.99951436450302
  N   -1.75600689969987      1.62675315976957     -1.88577410052974
