14
Coordinates from ORCA-job run
  C   0.81468768835977     -0.11039829398035     -0.25655324347479
  C   -0.63801673784804      0.24766529156682      0.16828174064127
  Cl  0.69516679148313     -0.93392937736915     -1.86866663551149
  H   -0.53560299332846      0.80130373541574      1.10864090393476
  C   1.58361299400728      1.12107625675145     -0.43764985949125
  N   2.17971495541342      2.12954190311407     -0.52713503384968
  N   1.46246565475292     -0.96998385210685      0.67627292375915
  H   1.97464445253558     -0.45523659069147      1.37961929943601
  H   0.77426748637420     -1.58881529408393      1.09126168738663
  N   -1.35024182541789     -0.98425842315008      0.45266518650227
  H   -2.18160489458751     -0.79150159157138      0.99703875337102
  H   -1.63249125482388     -1.43358180622376     -0.41076122541474
  C   -1.28991672950117      1.13363904899534     -0.80871610347784
  N   -1.85568558741931      1.83447899333356     -1.56329839381139
