14
Coordinates from ORCA-job run
  C   0.58709331961311     -0.46611519597660      0.23470074469576
  C   -0.93185582177982     -0.15473417560117      0.06372207361146
  Cl  0.76004968883291     -1.57277351588493      1.68281541705747
  H   -1.46940175948663     -1.10643879468109      0.10014379897918
  C   1.03053424993224     -1.22669651332765     -0.93586554581079
  N   1.35512454100572     -1.82383496652920     -1.89399994293261
  N   1.31907673041311      0.74460262344967      0.32909014355627
  H   1.08039019354872      1.24829562949977      1.17690654364898
  H   2.31910314210225      0.59093818316813      0.29737952064958
  N   -1.26131488579645      0.53166526211237     -1.16123297302622
  H   -1.16496387706193     -0.08993419950668     -1.95447318761456
  H   -0.64967732866070      1.32932200442777     -1.28787001970608
  C   -1.34811882360280      0.65735585002508      1.21629612571866
  N   -1.62603936905971      1.33534780882453      2.13338730117286
