14
Coordinates from ORCA-job run
  C   0.70031912527096     -0.43849318386788      0.14228769598405
  C   -0.82209870152649     -0.33220795900943     -0.08988721707116
  Cl  0.96090578422211     -1.75457095986792      1.39109346385020
  H   -1.19916437089476     -1.33319300283081     -0.31433233605812
  C   1.35106225378278     -0.89112246304919     -1.08932181856240
  N   1.91262834389886     -1.26875312182333     -2.04887094216340
  N   1.21213251938471      0.82978324991136      0.52432164462393
  H   2.22417437503182      0.84828204615187      0.51614579446054
  H   0.87706455813707      1.09306256587338      1.44504353166165
  N   -1.03987922700534      0.52484932078652     -1.23323611093310
  H   -0.75047770594593      1.47122032183670     -1.01943346271922
  H   -2.01413721407838      0.52263596793793     -1.50711743120839
  C   -1.45323706825056      0.13730879100317      1.16189177450879
  N   -1.96029267202686      0.59019842694761      2.12041541362663
