14
Coordinates from ORCA-job run
  C   0.76997814162495     -0.29863863552354      0.14240951891457
  C   -0.76176911470186     -0.46372565956988      0.04839176553983
  Cl  1.33208717437923     -1.31837743574462      1.55747691280765
  H   -0.98511440071395     -1.53351819387973      0.03086696139688
  C   1.39790372491743     -0.85795775596533     -1.05671857325195
  N   1.95231941974287     -1.30676176598763     -1.98952901099255
  N   1.09272067071062      1.07964242555057      0.25857366449684
  H   0.78817398300290      1.44956048672496      1.15307719636207
  H   2.08434047709794      1.24780930891636      0.14422934268282
  N   -1.19924246037117      0.13412500968576     -1.19281839039032
  H   -2.17758168512174     -0.06082950561818     -1.36325083349651
  H   -1.05292415804176      1.13582614150353     -1.16673180924101
  C   -1.36877388249003      0.12398461585689      1.26157143887989
  N   -1.87311789003544      0.66886096405085      2.17245181629178
