14
Coordinates from ORCA-job run
  C   0.80187156062912     -0.00538758313261     -0.12004970662426
  C   -0.68761058708718      0.26656540993618      0.18897633668447
  Cl  0.85781283889885     -0.89396736383900     -1.73986633744003
  H   -0.68515796930213      0.83684822915753      1.12381563418003
  C   1.52105153478575      1.25290438969252     -0.32571783151318
  N   2.08544512139878      2.27384574521319     -0.46441003910652
  N   1.34929333948959     -0.72833588722490      0.95646662891153
  H   2.31209987819509     -0.99481767314024      0.79914280689148
  H   0.76493687336840     -1.53219570405668      1.15699247549323
  N   -1.35043077251949     -1.00228977220370      0.43403323912975
  H   -1.59002575145105     -1.44744765009976     -0.44419035386474
  H   -2.20235325930631     -0.85476481947448      0.96012965582655
  C   -1.30850148723008      1.09608352203120     -0.85560850793987
  N   -1.86843131986934      1.73395915714077     -1.66771400062843
