14

C	0.0	0.0	0.0
C	-0.59512	0.045944	-1.394284
Cl	1.773284	0.0	0.0
H	-1.691901	-0.109173	-1.264545
H	-0.344228	-0.940486	0.432689
C	-0.449788	1.113561	0.835596
N	-0.644356	2.041876	1.527872
N	-0.01855	-1.071936	-2.202865
O	0.557744	-0.817513	-3.254489
O	-0.173501	-2.185575	-1.712048
N	-0.403803	1.321566	-2.133385
O	0.390873	2.148442	-1.691453
O	-1.088434	1.440241	-3.144812
Cl	-3.33161	0.0	0.0
