14

C	0.0	0.0	0.0
C	-0.568842	0.204607	-1.395619
Cl	1.771387	0.0	0.0
H	-1.642811	0.445499	-1.281252
H	-0.359406	-0.96483	0.354985
C	-0.429818	1.05649	0.918727
N	-0.595146	1.908088	1.710519
N	-0.501164	-1.034814	-2.224106
O	-1.026312	-0.946937	-3.327798
O	0.030539	-2.035841	-1.750879
N	0.146735	1.297476	-2.118931
O	-0.094296	2.425954	-1.701437
O	0.926355	1.004785	-3.019564
Cl	-3.282836	0.0	0.0
