17

C	0.0	0.0	0.0
C	-0.423174	0.028031	-1.588854
Cl	1.785067	0.0	0.0
H	-1.503511	-0.067642	-1.700714
C	-0.376312	1.210394	0.761808
N	-0.687739	2.153468	1.400267
N	-0.252823	-1.327629	0.676144
H	0.209136	-1.327589	1.572939
H	-1.263161	-1.368205	0.902165
C	0.088333	-1.107565	-2.374001
H	-0.501161	-1.125699	-3.297654
H	-0.138742	-2.024624	-1.814263
H	1.143946	-1.012503	-2.571918
N	-0.236271	1.367063	-2.10693
O	-1.174432	2.161224	-1.966955
O	0.814561	1.62227	-2.703967
Br	-2.373354	0.0	0.0
