17

C	0.0	0.0	0.0
C	-0.514643	-0.02596	-1.465953
Cl	1.78878	0.0	0.0
H	-1.552862	0.326834	-1.404932
C	-0.370789	1.265721	0.663089
N	-0.598921	2.269183	1.22885
N	-0.484442	-1.076246	0.815297
H	-1.507553	-0.985293	0.844741
H	-0.24083	-1.961392	0.385838
C	-0.465578	-1.401039	-2.089502
H	-1.250809	-2.005604	-1.635571
H	0.509755	-1.875798	-1.968502
H	-0.673038	-1.328411	-3.156546
N	0.231789	0.975015	-2.290069
O	0.994131	0.567422	-3.167167
O	0.040196	2.159404	-2.020038
Br	-3.637155	0.0	0.0
