17

C	0.0	0.0	0.0
C	-0.529757	-0.07096	-1.439128
Cl	1.793043	0.0	0.0
H	-1.618475	0.097541	-1.345804
C	-0.360856	1.24911	0.701552
N	-0.586551	2.161956	1.407878
N	-0.499301	-1.16644	0.685574
H	-0.218828	-1.119934	1.658986
H	-1.525533	-1.077072	0.651721
C	-0.260159	-1.398109	-2.116352
H	-0.665021	-2.192817	-1.494484
H	0.810365	-1.561051	-2.252976
H	-0.747517	-1.4147	-3.088726
N	-0.016504	1.065611	-2.276382
O	0.075197	0.873581	-3.488814
O	0.22778	2.134949	-1.723991
Br	-3.672838	0.0	0.0
