17

C	0.0	0.0	0.0
C	-0.206731	-0.085536	-1.580256
Cl	1.866364	0.0	0.0
H	0.593181	-0.764931	-1.897719
C	-0.370981	1.289258	0.596236
N	-0.419954	2.36826	1.064822
N	-0.44245	-1.11457	0.724994
H	-0.026275	-1.24338	1.633293
H	-0.664415	-1.939368	0.195411
C	-0.058055	1.287217	-2.213762
H	-0.072677	1.191404	-3.304024
H	-0.889959	1.941068	-1.897276
H	0.903218	1.73837	-1.906867
N	-1.40356	-0.826083	-2.204139
O	-1.417511	-2.057412	-2.045896
O	-2.172123	-0.201724	-2.924361
Br	-3.443058	0.0	0.0
