17

C	0.0	0.0	0.0
C	-0.247573	0.223157	-1.547569
Cl	1.786437	0.0	0.0
H	0.314159	1.115132	-1.827006
C	-0.397012	1.258898	0.649351
N	-0.653028	2.314068	1.095582
N	-0.600702	-1.106112	0.651064
H	-0.53263	-1.916936	0.050026
H	-1.594	-0.895291	0.787018
C	-1.661891	0.293943	-2.061111
H	-1.608831	0.444438	-3.143217
H	-2.228031	-0.60594	-1.837467
H	-2.207047	1.115798	-1.602297
N	0.440674	-0.875353	-2.312387
O	1.20439	-0.543485	-3.215004
O	0.162101	-2.037858	-2.020839
Br	-4.19577	0.0	0.0
