17

C	-0.452437	0.027493	-1.448984
C	0.0	0.0	0.0
Cl	-2.284862	0.219489	-1.524952
H	1.101636	0.0	0.0
C	0.196632	1.174385	-2.198646
H	1.280087	1.05618	-2.086549
H	-0.104171	2.106009	-1.724588
H	-0.085472	1.169723	-3.253085
C	-0.171443	-1.246625	-2.113852
N	0.010514	-2.206883	-2.765765
N	-0.423377	-1.231468	0.638682
H	0.260376	-1.466671	1.349196
H	-1.334444	-1.128795	1.070969
N	-0.349964	1.260082	0.642182
H	-1.221223	1.180095	1.153127
H	0.395052	1.482887	1.292812
H	2.800323	0.0	0.0
