17

C	-0.487074	-0.029351	-1.455799
C	0.0	0.0	0.0
Cl	-0.147544	1.553634	-2.2735
H	1.101239	0.0	0.0
C	0.260931	-1.113787	-2.216712
H	-0.015526	-1.106571	-3.273139
H	0.015842	-2.076744	-1.769206
H	1.330647	-0.926229	-2.093125
C	-1.938572	-0.226658	-1.513825
N	-3.095872	-0.426294	-1.559699
N	-0.411596	-1.251505	0.610975
H	0.338581	-1.569201	1.215406
H	-1.254048	-1.096582	1.155619
N	-0.574642	1.135056	0.731207
H	-0.278789	1.987933	0.265826
H	-0.087233	1.143007	1.625105
H	2.924114	0.0	0.0
