17

C	-0.601182	-0.003065	-1.411096
C	0.0	0.0	0.0
Cl	-0.056736	-1.476489	-2.318211
H	1.099934	0.0	0.0
C	-2.12547	0.00126	-1.396524
H	-2.458999	0.91223	-0.896516
H	-2.480415	-0.866044	-0.840779
H	-2.519084	-0.020747	-2.414611
C	-0.122634	1.159083	-2.163959
N	0.166217	2.088765	-2.821604
N	-0.505344	-1.158933	0.757043
H	-0.269278	-1.992548	0.22374
H	0.107327	-1.206427	1.569527
N	-0.420242	1.239098	0.638008
H	-1.125862	1.032092	1.335116
H	0.394247	1.642246	1.089103
H	2.86603	0.0	0.0
