17

C	-0.487628	-0.026186	-1.454774
C	0.0	0.0	0.0
Cl	-0.134371	1.555255	-2.271919
H	1.101159	0.0	0.0
C	0.253157	-1.11574	-2.216312
H	0.001011	-2.076803	-1.76899
H	1.324445	-0.93519	-2.093282
H	-0.023091	-1.106567	-3.272765
C	-1.940666	-0.212205	-1.515024
N	-3.099108	-0.404592	-1.564051
N	-0.41146	-1.2536	0.608456
H	-1.24251	-1.093037	1.166421
H	0.344503	-1.580208	1.200319
N	-0.572719	1.133373	0.734728
H	-0.057983	1.16281	1.612387
H	-0.311	1.986358	0.250081
H	2.921169	0.0	0.0
