13

C	0.0	0.0	0.0
C	-0.205435	-0.037327	-1.562126
Br	1.95602	0.0	0.0
H	0.292415	0.861984	-1.941773
H	-0.293165	0.942339	0.449097
H	0.412524	-0.876417	-1.899703
C	-0.650437	-1.1148	0.676202
N	-0.684601	-2.155677	1.25212
C	-1.557564	-0.173298	-2.256396
H	-2.212079	0.673298	-2.057849
H	-2.086783	-1.069214	-1.93778
H	-1.359568	-0.240178	-3.340408
H	-2.091465	0.0	0.0
