13

C	0.0	0.0	0.0
C	-0.345254	-0.180372	-1.501026
Br	1.958347	0.0	0.0
H	-1.341816	-0.607694	-1.554687
H	-0.31592	0.96502	0.382324
H	0.381018	-0.87129	-1.94032
C	-0.525074	-1.06961	0.846463
N	-0.553086	-2.013701	1.559854
C	-0.335906	1.154646	-2.230674
H	-1.158463	1.764633	-1.848354
H	0.606464	1.690481	-2.086739
H	-0.48152	1.013368	-3.30654
H	-2.351319	0.0	0.0
