13

C	0.0	0.0	0.0
C	-0.343864	-0.08085	-1.510111
Br	1.958463	0.0	0.0
H	0.38315	-0.743145	-1.992075
H	-0.317546	0.935687	0.447773
H	-1.338671	-0.506026	-1.594148
C	-0.521255	-1.128842	0.767559
N	-0.550344	-2.124495	1.405894
C	-0.333859	1.296882	-2.153584
H	0.608271	1.823027	-1.976789
H	-0.480235	1.222877	-3.236369
H	-1.156041	1.882499	-1.733211
H	-2.353759	0.0	0.0
