13

C	0.0	0.0	0.0
C	-0.20566	0.003865	-1.561913
Br	1.956164	0.0	0.0
H	0.319911	0.895727	-1.919102
H	-0.29385	0.930054	0.473971
H	0.386999	-0.845809	-1.918624
C	-0.641757	-1.132602	0.65374
N	-0.674315	-2.184305	1.209475
C	-1.559387	-0.06543	-2.262524
H	-2.189836	0.790214	-2.030335
H	-1.361426	-0.090206	-3.348625
H	-2.115598	-0.957831	-1.983996
H	-2.093455	0.0	0.0
