13

C	0.0	0.0	0.0
C	-0.381335	0.029705	-1.495751
Br	1.95941	0.0	0.0
H	-1.426312	0.334107	-1.510152
H	-0.335918	0.90609	0.500781
H	0.244102	0.78687	-1.980903
C	-0.480974	-1.167241	0.734033
N	-0.531696	-2.168337	1.35921
C	-0.235193	-1.320689	-2.177238
H	0.771514	-1.73384	-2.074311
H	-0.457134	-1.229875	-3.245821
H	-0.947643	-2.025012	-1.741625
H	-2.539053	0.0	0.0
