13

C	0.0	0.0	0.0
C	-0.372964	0.077142	-1.495317
Br	1.959061	0.0	0.0
H	0.24127	0.864027	-1.946452
H	-0.338465	0.892015	0.523014
H	-1.42206	0.366002	-1.503398
C	-0.480198	-1.163005	0.741497
N	-0.525504	-2.12522	1.426052
C	-0.199553	-1.24118	-2.230245
H	0.81819	-1.63487	-2.152005
H	-0.432712	-1.11347	-3.292341
H	-0.89349	-1.980615	-1.819516
H	-2.514074	0.0	0.0
