14

C	0.0	0.0	0.0
C	-0.601523	-0.169591	-1.378329
Br	1.919094	0.0	0.0
H	-1.710686	-0.264954	-1.171953
H	-0.362914	0.916309	0.454466
N	-0.419153	-1.128787	0.912165
O	-0.441277	-0.859389	2.105401
O	-0.640629	-2.218413	0.400362
C	-0.075708	-1.264479	-2.170758
N	0.340248	-2.140582	-2.834246
N	-0.467251	1.11584	-2.153456
O	-0.370441	2.155253	-1.508927
O	-0.535783	1.034686	-3.375245
Cl	-3.333472	0.0	0.0
