14

C	0.0	0.0	0.0
C	-0.59935	-0.026033	-1.389989
Br	1.918178	0.0	0.0
H	-1.707346	-0.149301	-1.195035
H	-0.368491	0.861683	0.547137
N	-0.418776	-1.220081	0.785485
O	-0.65001	-2.245556	0.158604
O	-0.430069	-1.084238	2.001138
C	-0.066033	-1.027073	-2.293458
N	0.358002	-1.828116	-3.041359
N	-0.475337	1.334252	-2.026748
O	-0.576636	1.381106	-3.247855
O	-0.352295	2.299993	-1.280517
Cl	-3.326449	0.0	0.0
