15

C	0.0	0.0	0.0
C	-0.420112	0.271011	-1.475084
Br	1.953101	0.0	0.0
H	0.253338	-0.325907	-2.10177
H	-0.284895	-1.029706	0.226015
C	-0.591802	0.953434	1.008515
H	-0.269025	0.698377	2.020976
H	-1.68479	0.850854	0.940586
H	-0.298732	1.983337	0.792723
C	-0.116384	1.678618	-1.810801
N	0.140038	2.79304	-2.078538
N	-1.779089	-0.050628	-1.842778
H	-2.497344	0.142479	-1.086078
H	-1.838234	-1.055672	-1.972628
H	-3.614569	0.0	0.0
