15

C	0.0	0.0	0.0
C	-0.653354	-0.106587	-1.3696
Br	1.954214	0.0	0.0
H	-1.741013	-0.230843	-1.04743
H	-0.265235	-0.904313	0.553474
C	-0.504146	1.212353	0.753126
H	-1.601868	1.132335	0.739295
H	-0.13861	1.207715	1.782402
H	-0.180245	2.1394	0.275109
C	-0.217659	-1.301056	-2.090481
N	0.111674	-2.276996	-2.658006
N	-0.585271	1.063375	-2.229529
H	-1.295064	1.715584	-1.911363
H	0.326352	1.505027	-2.15655
H	-3.143347	0.0	0.0
