15

C	0.0	0.0	0.0
C	-0.435078	0.003589	-1.495401
Br	1.95407	0.0	0.0
H	0.269317	-0.650569	-2.024238
H	-0.276684	-0.977084	0.402347
C	-0.595349	1.106111	0.835825
H	-0.303336	2.087438	0.455134
H	-1.688568	0.991145	0.780334
H	-0.277493	1.020097	1.877854
C	-0.217619	1.351058	-2.061378
N	-0.04301	2.423672	-2.508448
N	-1.775132	-0.453394	-1.784277
H	-1.781432	-1.465579	-1.707139
H	-2.506054	-0.131054	-1.084873
H	-3.609059	0.0	0.0
