15

C	0.0	0.0	0.0
C	-0.646275	-0.051426	-1.376547
Br	1.958284	0.0	0.0
H	-1.736513	-0.181606	-1.067059
H	-0.265415	-0.925777	0.517128
C	-0.501278	1.183027	0.7995
H	-0.135983	1.138491	1.828014
H	-1.599777	1.104356	0.782029
H	-0.175204	2.127798	0.356976
C	-0.214794	-1.22448	-2.134772
N	0.118579	-2.184405	-2.726453
N	-0.555979	1.146504	-2.195731
H	0.362186	1.568169	-2.105163
H	-1.253748	1.799879	-1.859475
H	-3.143048	0.0	0.0
