15

C	0.0	0.0	0.0
C	-0.681935	-0.12313	-1.341334
Br	1.958627	0.0	0.0
H	-1.777494	-0.166415	-0.981926
H	-0.261221	-0.890152	0.577473
C	-0.483328	1.238967	0.725428
H	-0.086462	1.270882	1.742892
H	-1.579481	1.164063	0.747209
H	-0.182732	2.134768	0.18354
C	-0.359418	-1.375842	-2.026282
N	-0.121055	-2.362203	-2.62288
N	-0.522263	1.053227	-2.183663
H	0.270377	0.947031	-2.804912
H	-1.361	1.171911	-2.738974
H	-3.159131	0.0	0.0
