15

C	0.0	0.0	0.0
C	-0.439512	0.285948	-1.465945
Br	1.955762	0.0	0.0
H	0.272873	-0.240676	-2.112182
H	-0.272246	-1.037444	0.205183
C	-0.599677	0.917698	1.035578
H	-0.309779	1.955401	0.858763
H	-1.692193	0.814139	0.954053
H	-0.285206	0.626948	2.04098
C	-0.247426	1.720456	-1.760367
N	-0.072004	2.857915	-1.994357
N	-1.772497	-0.13075	-1.836192
H	-2.507807	0.068818	-1.096304
H	-1.769175	-1.143998	-1.912703
H	-3.614818	0.0	0.0
