15

C	0.0	0.0	0.0
C	-0.55297	-0.536289	-1.336961
Br	1.961475	0.0	0.0
H	-1.637372	-0.513677	-1.167517
H	-0.325053	-0.621689	0.834958
C	-0.383722	1.390988	0.22502
N	-0.58472	2.541686	0.348881
C	-0.120101	-1.970064	-1.58944
H	-0.324733	-2.601653	-0.720492
H	-0.688024	-2.351108	-2.439486
H	0.94484	-2.036116	-1.828599
N	-0.264068	0.296509	-2.489222
H	0.722548	0.532236	-2.521397
H	-0.798528	1.155116	-2.425564
Br	-3.73214	0.0	0.0
