15

C	0.0	0.0	0.0
C	-0.584213	-0.108751	-1.407108
Br	1.939905	0.0	0.0
H	-1.659945	0.016906	-1.225512
H	-0.325021	-0.839793	0.616306
C	-0.383717	1.253004	0.649959
N	-0.596825	2.265186	1.205832
C	-0.355997	-1.490813	-2.005104
H	-0.866373	-1.552344	-2.969528
H	-0.77085	-2.269673	-1.359226
H	0.710076	-1.688779	-2.161981
N	-0.11468	1.001865	-2.222607
H	0.716444	0.740956	-2.740734
H	-0.837455	1.264811	-2.880327
Br	-3.79951	0.0	0.0
