16

C	0.0	0.0	0.0
C	-0.439044	0.514296	-1.364651
F	1.41561	0.0	0.0
H	-1.528374	0.600437	-1.314494
H	-0.018073	1.518895	-1.497536
N	-0.450197	0.882799	1.017593
H	-0.09403	1.81543	0.863548
H	-0.144003	0.529714	1.914525
N	-0.44548	-1.312099	0.3672
H	-0.210409	-1.970655	-0.364412
H	-1.463757	-1.249638	0.430475
C	-0.00479	-0.380149	-2.519328
H	-0.526594	-1.33987	-2.488997
H	1.072184	-0.564747	-2.493065
H	-0.25036	0.083595	-3.478418
Br	-4.015757	0.0	0.0
