16

C	0.0	0.0	0.0
C	-0.223836	0.26935	-1.504636
F	1.399289	0.0	0.0
H	0.339804	1.190711	-1.698161
H	0.321534	-0.531848	-2.013014
N	-0.428919	1.021505	0.919638
H	-0.178555	1.937107	0.562074
H	-1.444839	0.974381	0.972555
N	-0.48414	-1.287381	0.386191
H	-1.475706	-1.325847	0.155614
H	-0.418434	-1.345591	1.397662
C	-1.6187	0.39712	-2.088192
H	-2.210853	1.170127	-1.604314
H	-2.199722	-0.518031	-1.994093
H	-1.530042	0.636995	-3.1535
Br	-4.247307	0.0	0.0
