16

C	0.0	0.0	0.0
C	-0.179303	-6.4e-05	-1.543903
F	1.394335	0.0	0.0
H	0.38341	-0.873692	-1.899283
H	0.38343	0.873521	-1.899355
N	-0.486137	1.163501	0.679756
H	-1.492625	1.067723	0.796581
H	-0.327786	1.971074	0.088376
N	-0.486139	-1.16344	0.679857
H	-0.327814	-1.971061	0.088534
H	-1.492623	-1.067638	0.796695
C	-1.560213	-7.1e-05	-2.161084
H	-2.149893	0.861873	-1.863847
H	-2.149917	-0.861974	-1.863777
H	-1.470882	-0.000114	-3.252214
Br	-4.136515	0.0	0.0
