13

C	0.0	0.0	0.0
C	-0.338994	-0.174033	-1.5211
Br	1.957114	0.0	0.0
H	0.334074	0.510811	-2.05344
C	-0.423311	1.311793	0.481903
N	-0.534241	2.423274	0.849999
C	-0.449217	-1.103416	0.840717
N	-0.562093	-2.043397	1.539484
C	-1.709409	0.151847	-1.963639
N	-2.489776	0.425733	-2.807316
C	0.013671	-1.530702	-1.956702
N	0.3033	-2.604501	-2.334625
F	-2.288246	0.0	0.0
