13

C	0.0	0.0	0.0
C	-0.368481	0.107597	-1.521545
Br	1.95896	0.0	0.0
H	0.401113	-0.45433	-2.063903
C	-0.454012	1.120083	0.816682
N	-0.557807	2.06631	1.508549
C	-0.40913	-1.293811	0.542586
N	-0.521558	-2.37932	0.981132
C	-0.253904	1.50103	-1.95893
N	-0.12934	2.605937	-2.335451
C	-1.667347	-0.457925	-1.928854
N	-2.406163	-0.967654	-2.695266
F	-2.282911	0.0	0.0
