13

C	0.0	0.0	0.0
C	-0.357342	-0.230646	-1.50907
Br	1.955874	0.0	0.0
H	0.35449	0.37509	-2.082989
C	-0.417297	1.33099	0.436673
N	-0.529074	2.447673	0.788765
C	-0.456464	-1.058654	0.892754
N	-0.575486	-1.957418	1.642832
C	-1.707186	0.172397	-1.951153
N	-2.466263	0.505974	-2.792316
C	-0.101908	-1.629513	-1.866495
N	0.126145	-2.737269	-2.183953
F	-2.294824	0.0	0.0
