18

C	-0.445169	-0.003486	-1.463281
C	0.0	0.0	0.0
F	-0.167493	-1.284334	-1.965365
H	1.09102	0.0	0.0
C	-1.933319	0.228363	-1.672973
H	-2.200414	1.238494	-1.370351
H	-2.492819	-0.499539	-1.081693
H	-2.174618	0.088001	-2.729751
C	0.3237	0.928082	-2.317329
N	0.828303	1.611123	-3.130057
C	-0.400721	-1.224871	0.78855
H	-1.471461	-1.259247	1.012827
H	-0.109164	-2.115168	0.23228
H	0.151416	-1.212882	1.72895
N	-0.379167	1.21712	0.647541
O	-0.449814	1.229378	1.892332
O	-0.44867	2.253852	-0.051863
H	2.446816	0.0	0.0
