18

C	-0.401263	0.074464	-1.467489
C	0.0	0.0	0.0
F	-1.805676	0.19653	-1.58415
H	1.091823	0.0	0.0
C	0.254206	1.17678	-2.279866
H	-0.156508	2.138764	-1.985397
H	1.328121	1.164073	-2.063141
H	0.073882	1.001094	-3.342501
C	-0.069708	-1.223423	-2.098365
N	0.151132	-2.2537	-2.617757
C	-0.506052	-1.23347	0.715028
H	-1.597058	-1.292098	0.722678
H	-0.148965	-1.219039	1.744701
H	-0.091999	-2.120464	0.231005
N	-0.399897	1.217947	0.716663
O	-1.012097	1.109067	1.789278
O	-0.00948	2.303372	0.267232
H	2.599394	0.0	0.0
