15

C	-0.396057	0.057609	-1.473462
C	0.0	0.0	0.0
Cl	-0.149125	-1.663413	-2.141682
H	1.087095	0.0	0.0
H	-0.368869	0.916508	0.470838
N	-1.718925	0.524106	-1.690471
H	-1.932601	0.458746	-2.67851
H	-2.364317	-0.040094	-1.151847
N	0.523816	0.884897	-2.203659
H	0.347819	1.840442	-1.909586
H	1.474204	0.641822	-1.903463
N	-0.622603	-1.11347	0.750988
O	-1.854508	-1.220075	0.67026
O	0.087042	-1.847958	1.42767
H	2.872922	0.0	0.0
