15

C	-0.344648	0.068026	-1.464412
C	0.0	0.0	0.0
Cl	-2.261948	0.56026	-1.546627
H	1.092653	0.0	0.0
H	-0.326663	0.905043	0.506416
N	0.316297	1.179887	-2.092638
H	0.018295	2.037839	-1.643357
H	1.309072	1.040762	-1.872633
N	-0.075497	-1.074452	-2.187647
H	-0.418489	-1.917672	-1.754742
H	-0.306264	-0.963801	-3.16297
N	-0.508844	-1.114377	0.779311
O	-0.621569	-2.232051	0.251119
O	-0.717369	-0.91029	1.980532
H	2.619098	0.0	0.0
