15

C	-0.392835	0.041896	-1.474192
C	0.0	0.0	0.0
Cl	-0.147082	-1.684728	-2.128846
H	1.087088	0.0	0.0
H	-0.367802	0.921804	0.460653
N	-1.716003	0.504958	-1.69639
H	-2.359222	-0.061661	-1.158653
H	-1.927179	0.43471	-2.683797
N	0.524108	0.865361	-2.209735
H	1.473484	0.621707	-1.916845
H	0.355864	1.823024	-1.917438
N	-0.621675	-1.104001	0.765098
O	0.084213	-1.805023	1.478159
O	-1.848343	-1.236153	0.660555
H	2.870594	0.0	0.0
