15

C	-0.242313	-0.014669	-1.495216
C	0.0	0.0	0.0
Cl	-2.011918	0.233162	-1.917587
H	1.090592	0.0	0.0
H	-0.412146	0.903981	0.436245
N	0.459019	1.16771	-1.952828
H	0.460242	1.178142	-2.966314
H	1.428174	1.063276	-1.622558
N	0.129542	-1.287161	-2.057594
H	1.042493	-1.532397	-1.676833
H	0.206253	-1.191617	-3.065517
N	-0.517432	-1.141556	0.75545
O	-1.379693	-0.912552	1.613141
O	-0.026974	-2.252404	0.54469
H	2.744721	0.0	0.0
