15

C	-0.261121	0.005148	-1.490278
C	0.0	0.0	0.0
Cl	-2.038272	-0.250167	-1.894022
H	1.090591	0.0	0.0
H	-0.412777	-0.898074	0.448171
N	0.100563	1.274243	-2.063294
H	1.010708	1.529209	-1.683113
H	0.179913	1.168309	-3.068879
N	0.435882	-1.176407	-1.951783
H	0.423278	-1.200957	-2.965333
H	1.407073	-1.073338	-1.631952
N	-0.512006	1.151263	0.744783
O	-0.006738	2.253845	0.531618
O	-1.384803	0.939813	1.596424
H	2.739375	0.0	0.0
