15

C	-0.366284	0.102026	-1.470589
C	0.0	0.0	0.0
Cl	-0.148545	-1.754102	-2.175642
H	1.086572	0.0	0.0
H	-0.382219	0.895924	0.495489
N	-1.700386	0.478257	-1.743605
H	-1.893357	0.408193	-2.735587
H	-2.316278	-0.149045	-1.240683
N	0.596318	0.922416	-2.051462
H	0.555112	0.935891	-3.06105
H	1.536599	0.682193	-1.70939
N	-0.620303	-1.147583	0.693
O	0.090662	-1.901876	1.344889
O	-1.851582	-1.250788	0.609356
H	2.84601	0.0	0.0
