15

C	-0.348517	0.082742	-1.476836
C	0.0	0.0	0.0
Cl	-0.134022	-1.789629	-2.149096
H	1.086578	0.0	0.0
H	-0.382224	0.90494	0.478954
N	-1.675887	0.463249	-1.774976
H	-2.304233	-0.157595	-1.279715
H	-1.850696	0.388211	-2.770166
N	0.627706	0.883761	-2.060233
H	0.599949	0.878014	-3.07017
H	1.563565	0.643648	-1.701753
N	-0.629574	-1.134304	0.704607
O	0.071703	-1.873427	1.384387
O	-1.858925	-1.240489	0.601926
H	2.845805	0.0	0.0
