15

C	-0.397772	0.072286	-1.479211
C	0.0	0.0	0.0
Cl	-0.211718	-1.657191	-2.169148
H	1.088442	0.0	0.0
H	-0.378578	0.906017	0.478625
N	-1.750104	0.439287	-1.82512
H	-2.386724	-0.171394	-1.325198
H	-1.883078	1.38434	-1.478655
N	0.501206	0.996333	-2.042482
H	0.42244	1.002695	-3.050953
H	1.461339	0.802518	-1.734944
N	-0.63307	-1.127168	0.70578
O	-1.863001	-1.060543	0.852655
O	0.058412	-2.056452	1.107097
H	2.845892	0.0	0.0
