15

C	-0.349813	-0.05019	-1.469907
C	0.0	0.0	0.0
Cl	-2.196287	-0.591384	-1.636427
H	1.0913	0.0	0.0
H	-0.404345	0.874184	0.507375
N	-0.170914	1.232191	-2.01385
H	-0.744632	1.928082	-1.568113
H	-0.331291	1.209741	-3.010215
N	0.401618	-0.974552	-2.258719
H	1.377365	-0.744357	-2.04011
H	0.242101	-1.899451	-1.876868
N	-0.415344	-1.164909	0.769174
O	-0.226619	-2.284534	0.277876
O	-0.853131	-0.974898	1.910794
H	2.661172	0.0	0.0
