15
Coordinates from ORCA-job run
  C   -0.50848045476104     -0.34600289225262      0.05731669680653
  C   0.63493243471810      0.37248157642251      0.00904738835252
  C   -1.83939224616815      0.29933060198017     -0.17133571872515
  H   -2.48399635802492      0.12862997043962      0.69578645805382
  H   -1.72397603249148      1.36941988357290     -0.32447109904256
  H   -2.32853161757870     -0.13693781315133     -1.04774028383828
  N   -0.55354224291063     -1.69456642277898      0.40119158879855
  H   0.29474459952382     -2.21709591457786      0.23845241278881
  H   -1.35617276327734     -2.16834278307424      0.01426621587830
  N   0.72785902555523      1.76057717853535     -0.18931989933640
  H   1.24817471505449      1.98525264912790     -1.02859561325423
  H   1.15488586568846      2.22202036107017      0.60432994735270
  N   1.91257329743397     -0.34635552784806      0.20394770005833
  O   2.70504122771103     -0.31654112088488     -0.74215691312044
  O   2.11688054952715     -0.91186974658065      1.27828111922751
