15
Coordinates from ORCA-job run
  C   -0.48295978900009     -0.40772329842081      0.07289229579772
  C   0.65035748240237      0.36187302435025     -0.01978920199184
  C   -1.83278670000093      0.23641042423761     -0.06237887710502
  H   -2.39781294672583      0.10130271966375      0.86412528078195
  H   -2.39451622626018     -0.24635023297699     -0.86851491275293
  H   -1.73349466677580      1.29554674621993     -0.27627932929088
  N   -0.51977722868341     -1.73278701559464      0.36184873428498
  H   -1.37655681249378     -2.22325877763304      0.17259406420154
  H   0.34730255674388     -2.24467936406713      0.32431473906191
  N   0.59027984555477      1.75196794809683     -0.25158615893833
  H   1.11084283218680      1.98709121806914     -1.08897025048539
  H   1.03451373160114      2.25329736465192      0.50952185601349
  N   1.97298777920589     -0.22492845755661      0.06671383725870
  O   2.09688516712390     -1.44214451949487      0.28049649131879
  O   2.93473497512125      0.53538222045467     -0.08398856815471
