15
Coordinates from ORCA-job run
  C   -0.47910360854603     -0.40122600581236      0.11806657073620
  C   0.64324932380330      0.37230568544398     -0.04726194713739
  C   -1.82540090556100      0.15336030974869     -0.24984874348407
  H   -2.30986565750263     -0.50501264571722     -0.97802794834011
  H   -1.72886695519319      1.14844144908983     -0.67163969394492
  H   -2.46161083456382      0.19259360386415      0.63875521989870
  N   -0.51388426719840     -1.63984704580118      0.66957930594405
  H   0.36209259250650     -2.11753081141803      0.80938622941841
  H   -1.34469388509909     -2.18741158495057      0.52742131777450
  N   0.57558770683669      1.68426754947241     -0.56036113452888
  H   1.15917107917911      1.76566341912907     -1.38508345804347
  H   0.94388081881430      2.34442673879783      0.11526404361599
  N   1.96530469208791     -0.13779089579166      0.25829731970628
  O   2.92199380136222      0.60817917666295      0.02563224170550
  O   2.09414609907412     -1.28041894271788      0.72782067667921
