15
Coordinates from ORCA-job run
  C   -0.46058010822813     -0.42935811818361     -0.09503289262454
  C   0.68814662237631      0.31697923402245     -0.02260742754734
  C   -1.76563465000729      0.27845751575508     -0.31793508183375
  H   -1.65428415890224      1.14598029917807     -0.96353011633915
  H   -2.50285551928148     -0.39063675215894     -0.76783427495441
  H   -2.15977560439468      0.63451541870989      0.63887502733778
  N   -0.53278963477106     -1.78439930998631      0.03460152146768
  H   0.29106940669140     -2.25471490435901      0.38058154200292
  H   -1.42355805347826     -2.18072454337797      0.28102489116648
  N   0.68331105561379      1.71518369184259     -0.24531946412810
  H   0.67413976846535      1.92456337274185     -1.23604245928690
  H   1.50615318354350      2.11713345557774      0.18393021176837
  N   1.89592126230008     -0.22053802338017      0.53622548092363
  O   2.74546200812705      0.58093367627220      0.94296141547087
  O   2.01427442194565     -1.45437501265387      0.65210162657647
