15
Coordinates from ORCA-job run
  C   -0.51487740284809     -0.20565149474044     -0.12484651957267
  C   0.73682241089323      0.31883458423506     -0.13425675288568
  C   -1.44860294984395     -0.30128623129281      1.05035723319923
  H   -1.48272395672350      0.62937706634279      1.60939873703711
  H   -2.45866144405172     -0.52032444362881      0.69599227964143
  H   -1.15487843569790     -1.10155902879996      1.73651984583215
  N   -0.89032409802013     -0.79190457394321     -1.36377440362688
  H   -1.01972253530591     -0.10001196628338     -2.09344703895371
  H   -1.72243991232702     -1.35743421894258     -1.28088006711213
  N   1.55347247321219      0.33288158043338     -1.26486317629311
  H   2.52930140883849      0.30525648235384     -1.00004644206422
  H   1.30677037803473     -0.45540561334065     -1.85510143547764
  N   1.34951211322159      0.93249437075873      1.03368635028153
  O   0.63606349919621      1.44802978679300      1.89332432956953
  O   2.58128845142178      0.86670370005503      1.09893706042505
