15
Coordinates from ORCA-job run
  C   -0.51266606712723     -0.35227890530177      0.13469974683156
  C   0.67062902021939      0.31908804261462     -0.05064359895311
  C   -1.79988909459459      0.26967994623423     -0.32516643126837
  H   -2.45328827768990      0.43897959211844      0.53526907786305
  H   -2.31768259561312     -0.41195155729103     -1.00759950111527
  H   -1.61280309453005      1.21196254143918     -0.82965114059105
  N   -0.66065707709395     -1.53298014894895      0.78590457003124
  H   -1.52511933338824     -2.02869780396786      0.65415262669587
  H   0.17161186921666     -2.06112009482406      0.99481256130915
  N   0.72133962193702      1.58145749009957     -0.67838010950592
  H   1.12152755279628      2.26871955024338     -0.04957488375902
  H   1.33369158748158      1.54245393514950     -1.48515407600935
  N   1.93964172564871     -0.26300996475262      0.33833323467262
  O   1.96521263251161     -1.36577742822260      0.90939547942595
  O   2.95845153022585      0.38247480540997      0.07160244437266
