15
Coordinates from ORCA-job run
  C   -0.61055941045976     -0.08255786204436     -0.05675107385362
  C   0.70355065070149      0.29735128766567     -0.11701093207757
  C   -0.97789009856660     -1.21776731917756      0.85958482406956
  H   -1.97596647838911     -1.59880397665582      0.63947480481915
  H   -0.28367693704714     -2.05577843419918      0.74480951786922
  H   -0.93950908545261     -0.91112158233232      1.91043951063333
  N   -1.62481791056368      0.40260945540383     -0.85259264206655
  H   -1.42853638286885      1.29916631792305     -1.27470626102244
  H   -2.55332068312966      0.28899791080221     -0.47791995906633
  N   1.70676734844469     -0.14309239016580      0.77056517178707
  H   1.49691255151703     -1.04798649700040      1.16518254662565
  H   2.60525064664622     -0.14934698055715      0.30437109467090
  N   1.16350295619410      1.34140323546302     -0.97998659250476
  O   0.33619182162064      2.01678749813371     -1.61921852617929
  O   2.38110101135324      1.55913933674111     -1.01524148370433
