15
Coordinates from ORCA-job run
  C   -0.57220153598605     -0.26701727914652     -0.11219517175933
  C   0.68208994354160      0.27414876307288     -0.16749784452994
  C   -1.46103203292258     -0.34105230522758      1.09357061937085
  H   -2.37179049809219     -0.89417363098488      0.85443839442346
  H   -1.73605321880596      0.65873498076634      1.42966474504851
  H   -0.95347170993903     -0.81797475055944      1.93066593011639
  N   -1.11786124050570     -0.72083788306086     -1.28119931192472
  H   -0.45286528975071     -0.81898179158110     -2.03634002796226
  H   -1.82994315117461     -1.42786795023891     -1.20929233520560
  N   1.39869835488006      0.24860915152127     -1.38629491514942
  H   2.33027301074677     -0.11816795510562     -1.22787552981806
  H   1.51907245762177      1.18862401678375     -1.74900857919629
  N   1.33460379195071      0.85661065142459      0.98455427911355
  O   2.51120341508110      1.20491992755817      0.82751869702983
  O   0.71727770335481      0.97442605477791      2.04729105044304
