15
Coordinates from ORCA-job run
  C   -0.54571932850440     -0.32146517156144     -0.10172324353167
  C   0.68487894340313      0.27100707504157     -0.16077866487137
  C   -1.44281606745034     -0.39979153313772      1.09767587520751
  H   -2.39467099541542     -0.85988182158989      0.82400610956429
  H   -1.62252091838869      0.58656701619828      1.52256441944506
  H   -0.97961724048226     -0.99439954570736      1.88512983097878
  N   -0.98506670929105     -0.98077941283785     -1.21626568151047
  H   -0.45536305686032     -0.77633796814353     -2.05270972208223
  H   -1.97982507931334     -1.08576848779935     -1.32335846919098
  N   1.39728006189538      0.27726408225560     -1.38260048713379
  H   1.70884725807267      1.21926326615719     -1.59066084370455
  H   2.23506453479224     -0.29064223230627     -1.30940127727394
  N   1.28893426911480      0.93456316075349      0.97357503981059
  O   2.34500832283185      1.53996456295224      0.75317395721774
  O   0.74458600559573      0.87943700972504      2.08037315707503
