15
Coordinates from ORCA-job run
  C   -0.57313649508432     -0.26267205148325     -0.11653071073895
  C   0.70424291694085      0.22315760350180     -0.15127604678168
  C   -1.46387045066479     -0.34949389678459      1.08698929810270
  H   -2.45419332657380     -0.70539650839945      0.79510382923477
  H   -1.04761282387611     -1.03712030359904      1.82333783213856
  H   -1.55399974998616      0.61527628780954      1.58370795895726
  N   -1.07755564600479     -0.80012103429184     -1.26873879138712
  H   -0.53888096437491     -0.58119117648414     -2.09582751358822
  H   -2.07861301987818     -0.80687778677750     -1.36902365871019
  N   1.40551145611366      0.25263124273483     -1.37893091913241
  H   2.18557803803832     -0.39606268041379     -1.35972750706719
  H   1.80282890948053      1.17384931213112     -1.52370423158415
  N   1.37459602151886      0.74577658820329      1.01917140814037
  O   2.47983268531463      1.26751158666690      0.82793655818216
  O   0.83527244903623      0.66073281718611      2.12651249423412
