15
Coordinates from ORCA-job run
  C   -0.39532685154705     -0.46513180204575     -0.06455877160463
  C   0.68399720964310      0.37273408029372      0.00687317372608
  C   -1.75438836059623      0.14245203506608     -0.27737777864590
  H   -1.94672102283671      0.96415104240810      0.41733766069398
  H   -1.85074146223311      0.52903511697834     -1.29666958640453
  H   -2.53913823385938     -0.60188245942071     -0.13210853141167
  N   -0.35010000975119     -1.83885462572942     -0.11056582653148
  H   0.53630881594361     -2.24938849671607      0.14267294928239
  H   -1.16778367749067     -2.30624089554184      0.24659342219250
  N   0.64478953344026      1.75698220346244     -0.23501610362637
  H   -0.28176354278593      2.14168421632129     -0.13407626395040
  H   1.30846765706077      2.24256832831728      0.35331262988095
  N   2.00891463927713     -0.10533113010953      0.27603844273165
  O   2.23190372059724     -1.32734646828076      0.28090726334843
  O   2.87258158513815      0.74556885499683      0.52463732031899
