15
Coordinates from ORCA-job run
  C   -0.45984737756018     -0.43750785351861     -0.04184473299350
  C   0.63073926344762      0.39579160027427     -0.00030967045189
  C   -1.84317027728119      0.14513171107498      0.00541256226313
  H   -2.37175057227889     -0.08839857150241     -0.92306298130410
  H   -1.80235747470974      1.22131431995993      0.13797293010503
  H   -2.40574298249180     -0.30294856284711      0.83067225835247
  N   -0.42267144842682     -1.78341959353354     -0.20532901947970
  H   -1.25897015885755     -2.29948037220714      0.00555578375396
  H   0.46786553646639     -2.24478289754660     -0.10980145456601
  N   0.49522117120746      1.79642945762258      0.09764664145573
  H   0.98934924581082      2.13610037185773      0.91491659362293
  H   0.92561235892713      2.24662280742933     -0.70242154119341
  N   1.98279543121127     -0.12676397503675     -0.00438683162633
  O   2.17282015993648     -1.35019085725651     -0.10348206809654
  O   2.90110712459898      0.69310241522987      0.09746153015825
