15
Coordinates from ORCA-job run
  C   -0.55028284718649     -0.31483226319912     -0.09607787080019
  C   0.69772058764384      0.24015816441902     -0.15495179416978
  C   -1.50068192423697     -0.25611168593681      1.06260979510884
  H   -2.45079670349283     -0.72146399803810      0.79186391197658
  H   -1.08740289294832     -0.77956645562751      1.92484730080886
  H   -1.67414065831735      0.77073446467062      1.38079131102727
  N   -0.95914382952757     -1.06776852723386     -1.16220503510191
  H   -1.95105176196284     -1.15593452218485     -1.30540345261816
  H   -0.38786011029306     -0.95580754822263     -1.98881208328941
  N   1.46401133967724      0.10836023875485     -1.33600982939707
  H   1.81700374146330      1.01571214154253     -1.61804607573545
  H   2.27667745281440     -0.47638244324243     -1.17073163954792
  N   1.27226312959056      0.99152653461546      0.93953687493489
  O   0.67544357051975      1.06177306682987      2.01802281171451
  O   2.35824090625634      1.53960283285297      0.71456577508892
