15
Coordinates from ORCA-job run
  C   -0.53997444892658     -0.33431125954670     -0.08766080566911
  C   0.68941081191770      0.25909499038068     -0.16181804693599
  C   -1.49444383092456     -0.27282550043312      1.06759746470094
  H   -2.42828606423860     -0.77634290099250      0.80875343059949
  H   -1.06597718928679     -0.75710862480764      1.94514489219061
  H   -1.70259936311620      0.75652359096270      1.35536804032319
  N   -0.92165602395485     -1.13142667268358     -1.13135300494135
  H   -1.90962927672646     -1.25873237154812     -1.27207615322093
  H   -0.35325584543906     -1.02632319196041     -1.96075076440057
  N   1.46299980004437      0.11534336000913     -1.33677982738016
  H   2.29382122035513     -0.43689571806377     -1.15109238027708
  H   1.78724111831392      1.02445538852721     -1.64637452311660
  N   1.23776396159131      1.06017596165728      0.91079609680597
  O   2.30781168400670      1.63317148856241      0.67186980013708
  O   0.63577344638396      1.14520145993645      1.98537578118453
