15
Coordinates from ORCA-job run
  C   -0.54001239811668     -0.33685242369511     -0.07908298353381
  C   0.70346296847219      0.22711280922652     -0.14766141129875
  C   -1.56215099253894     -0.11860905145196      0.99639545589616
  H   -2.48787886862527     -0.64039115017921      0.74459974738596
  H   -1.19867496240649     -0.49242445515308      1.95365210316474
  H   -1.76738424931957      0.94135101430694      1.13835906486594
  N   -0.87251244837153     -1.25395048694917     -1.03780701125017
  H   -1.85241971296199     -1.38335598490985     -1.22560429786982
  H   -0.25195080186718     -1.25877702424905     -1.83599638669787
  N   1.54403972976183     -0.07063120779039     -1.24543447501217
  H   2.34894360491834     -0.60891883027760     -0.94187107167777
  H   1.90751253928163      0.78945413713858     -1.63992444498020
  N   1.19998730666114      1.15066270893941      0.84853935673176
  O   0.53469520969595      1.37712267305808      1.86362920231167
  O   2.29334307541658      1.67720727198590      0.60820715196432
