15
Coordinates from ORCA-job run
  C   -0.56028419653287     -0.29553382170338     -0.10021691369218
  C   0.71663725928386      0.19142695857622     -0.13515344312335
  C   -1.56232869393754     -0.09741549962210      0.99796529603174
  H   -1.69758981809519      0.95907285090818      1.22455897644469
  H   -1.22035690130858     -0.56842183105775      1.91956086700939
  H   -2.52102992060650     -0.53645736309480      0.71381362150354
  N   -0.95488534946052     -1.11151160094780     -1.12449323439907
  H   -0.33865886731093     -1.09449023282017     -1.92580730547376
  H   -1.94177215924157     -1.16294019894332     -1.31308126426019
  N   1.53208119556656     -0.07059159117640     -1.26037071309588
  H   2.30511794403036     -0.67716542935030     -1.00709743981258
  H   1.94392647411951      0.79388965097177     -1.59285515718855
  N   1.27390021583935      1.00233686763618      0.92543306223165
  O   2.39503745359611      1.48100877212891      0.71486700460864
  O   0.63020536405795      1.18579246849476      1.96287664321590
