15
Coordinates from ORCA-job run
  C   -0.50427202694542     -0.22976798291445     -0.11063167499688
  C   0.73859436431959      0.32333124576329     -0.10753528005659
  C   -1.54336603739129     -0.08948473287471      0.96436048617751
  H   -1.86962524734220      0.94617736950515      1.06342121987949
  H   -1.15539143574686     -0.38670242245123      1.93835729610961
  H   -2.41227425069678     -0.70754286112004      0.72625898029025
  N   -0.91901542341355     -0.88685152223011     -1.27271913407178
  H   -0.16867374081347     -1.34659133653920     -1.77082077899845
  H   -1.70046092106932     -1.50695890353112     -1.12732483115316
  N   1.58101741752804      0.38750747855968     -1.21418665880820
  H   2.45344468778201     -0.11310956959378     -1.16421284309787
  H   1.11339237103152      0.34363483380050     -2.10361316272687
  N   1.30115344933156      0.94070881391447      1.07930206980317
  O   0.55361492201632      1.31553020472900      1.98630245956415
  O   2.53186187140985      1.01011938498253      1.11304185208563
