15
Coordinates from ORCA-job run
  C   -0.55976675088751     -0.29607817497833     -0.10049273175357
  C   0.71295330594038      0.20148904432897     -0.13915109639936
  C   -1.55963525763458     -0.10915563032838      1.00161031437480
  H   -2.51602128110003     -0.55435298654119      0.71921858454127
  H   -1.21106975848128     -0.58168946250619      1.92003245174444
  H   -1.70166769106173      0.94534534583095      1.23292366139785
  N   -0.95212949956123     -1.11184612909158     -1.12586689405259
  H   -1.93933441769595     -1.16873039672560     -1.31139621377145
  H   -0.33863127082056     -1.08897764037147     -1.92909489375336
  N   1.52828229872454     -0.05677730710891     -1.26526220408086
  H   2.30455186414457     -0.65946847896574     -1.01250300902517
  H   1.93594197139349      0.80920351010357     -1.59897352622292
  N   1.27225070292349      1.00475320796774      0.92620939978917
  O   2.39590049131330      1.47916764423111      0.71964355189420
  O   0.62737529280310      1.18711745415504      1.96310260531755
