15
Coordinates from ORCA-job run
  C   -0.57897170641798     -0.24597164080636     -0.12292988321688
  C   0.71157628614481      0.20477887419533     -0.14391366105125
  C   -1.56854556945726     -0.07271621415891      0.99067300432562
  H   -1.16550792752736     -0.42687360088833      1.93820930914869
  H   -1.80504927722256      0.98197260094586      1.13272493691598
  H   -2.48991687341363     -0.61164303267852      0.76002084442862
  N   -1.05646524492549     -0.85098149528818     -1.25265431444281
  H   -0.33952736338611     -1.10833659609204     -1.91743381745015
  H   -1.82150902812269     -1.49433110590184     -1.13901399801772
  N   1.52528318988808     -0.06351336012951     -1.26912658795557
  H   1.74669192414021      0.79547250752616     -1.76196075517754
  H   2.40952541530192     -0.45537164389940     -0.96559269397368
  N   1.30623770509613      0.92539594090833      0.95992595730390
  O   2.51661438530987      1.16408644965699      0.86790605415782
  O   0.60956408459206      1.25903231661042      1.92316560500498
