15
Coordinates from ORCA-job run
  C   -0.57720195642665     -0.25252102542610     -0.11991445120561
  C   0.71007977727787      0.20689402664657     -0.14539753504949
  C   -1.56622794521547     -0.07847085200936      0.99396101171059
  H   -1.16051062467033     -0.42701297799428      1.94238820729305
  H   -2.48580794251104     -0.62188988774074      0.76665684862878
  H   -1.80748151748061      0.97571998446159      1.13140144542034
  N   -1.05273569706391     -0.86714423225010     -1.24595350553836
  H   -1.80787791559069     -1.52067458259485     -1.12310522280197
  H   -0.33277543716641     -1.12483840498384     -1.90752918076782
  N   1.52280411881790     -0.05935253117491     -1.27164891220009
  H   1.73347443458348      0.79885187491370     -1.77041344601584
  H   2.41212512120782     -0.44038375249120     -0.96940783228682
  N   1.30019416832483      0.94297340343146      0.95120677680899
  O   2.50628800478485      1.19905042572622      0.85059209437566
  O   0.60465341112836      1.27079853148583      1.91716370162860
