15
Coordinates from ORCA-job run
  C   -0.55692679663945     -0.29760582516049     -0.10396244048142
  C   0.70729381464916      0.22238159581920     -0.14201731027507
  C   -1.58322476963814     -0.07462365540352      0.96733288443401
  H   -1.69395147715029      0.98386288658355      1.19255092646309
  H   -1.27469037393048     -0.55453536424571      1.89761298565237
  H   -2.54719795258061     -0.47899776585988      0.65265707666461
  N   -0.97105915757519     -1.03898312082645     -1.17658726287621
  H   -1.69504353004574     -1.71747657846879     -1.00626309008121
  H   -0.21923215257807     -1.33169767466130     -1.78643888789682
  N   1.53957354756284     -0.06551307484468     -1.24761105337470
  H   1.65006853655579      0.75176373540671     -1.83913084504981
  H   2.46785850809700     -0.31222968695918     -0.92549936282021
  N   1.23872169412115      1.07297850936337      0.90077464926527
  O   2.36737532609910      1.53877121738264      0.70166374467347
  O   0.56843478305293      1.30190480187453      1.91191798570264
