15
Coordinates from ORCA-job run
  C   -0.50262493460509     -0.23489351466604     -0.10297851729393
  C   0.73836716634276      0.32213175837727     -0.11936227563006
  C   -1.54562187694559     -0.05230577904479      0.96182594608841
  H   -1.87880534805553      0.98462018430624      1.01297478801754
  H   -2.40980248679972     -0.68644733208908      0.75024114370817
  H   -1.15857043940999     -0.30237644016686      1.94933361143833
  N   -0.91074091666652     -0.94407919139026     -1.23611106835243
  H   -0.15856384985281     -1.42439712547916     -1.71119905433820
  H   -1.69410579009793     -1.55606751367271     -1.06909935382337
  N   1.58641938753341      0.34159290964765     -1.22422552755156
  H   2.45535577417801     -0.16249565341094     -1.14892861525559
  H   1.11975759918456      0.25165242292386     -2.11098798169091
  N   1.29396530800305      0.99254868638572      1.04213794228715
  O   0.54150774106065      1.40812238758314      1.92692011118709
  O   2.52446266613074      1.06339420069598      1.07945885120937
