17

C	0.0	0.0	0.0
C	-0.659746	-0.022672	-1.374244
Br	1.933639	0.0	0.0
H	-1.750268	0.140191	-1.021589
N	-0.37531	1.314442	0.69643
O	-0.618335	2.281133	-0.015785
O	-0.357717	1.329476	1.921115
C	-0.485993	-1.150399	0.853646
H	-0.073722	-1.070449	1.857702
H	-0.17415	-2.080696	0.383662
H	-1.578952	-1.051435	0.846181
N	-0.559381	-1.359498	-1.95993
H	0.138557	-1.380993	-2.693286
H	-1.4596	-1.598645	-2.35585
C	-0.188236	0.995553	-2.305659
N	0.193292	1.705136	-3.164173
F	-2.888317	0.0	0.0
