17

C	0.0	0.0	0.0
C	-0.431647	0.002479	-1.479588
Br	1.938119	0.0	0.0
H	0.059747	-0.898443	-1.86876
N	-0.456238	1.217868	0.772655
O	-0.477239	1.122534	1.993718
O	-0.704462	2.240759	0.145189
C	-0.411872	-1.266923	0.732537
H	-1.500023	-1.247031	0.784974
H	-0.054909	-2.125277	0.157807
H	0.042467	-1.290286	1.721791
N	0.131668	1.116834	-2.250487
H	-0.125752	0.931233	-3.214118
H	-0.372027	1.95065	-1.973125
C	-1.886428	-0.186008	-1.778656
N	-2.618788	-0.343749	-2.701084
F	-2.607728	0.0	0.0
