17

C	0.0	0.0	0.0
C	-0.655924	-0.004396	-1.376625
Br	1.933563	0.0	0.0
H	-1.747376	0.150353	-1.023362
N	-0.379982	1.301156	0.714614
O	-0.625568	2.277088	0.016341
O	-0.363633	1.297559	1.939234
C	-0.481696	-1.166392	0.835919
H	-0.168326	-2.087393	0.348777
H	-1.574735	-1.071366	0.834698
H	-0.065983	-1.10227	1.839787
N	-0.548481	-1.332506	-1.981442
H	0.151097	-1.340458	-2.713229
H	-1.446625	-1.570087	-2.382045
C	-0.183666	1.027	-2.292007
N	0.200044	1.747312	-3.140285
F	-2.881709	0.0	0.0
