17

C	0.0	0.0	0.0
C	-0.425012	0.091508	-1.47923
Br	1.937841	0.0	0.0
H	0.143431	-0.728611	-1.935973
N	-0.460475	1.154064	0.863172
O	-0.728327	2.21859	0.320703
O	-0.462969	0.965363	2.073958
C	-0.412848	-1.319327	0.633176
H	-1.501928	-1.295083	0.678144
H	-0.053539	-2.132851	-0.00259
H	0.03612	-1.417483	1.620502
N	0.04612	1.306941	-2.14857
H	-0.521878	2.074637	-1.813429
H	-0.171873	1.182333	-3.131042
C	-1.85144	-0.209145	-1.806714
N	-2.573828	-0.454367	-2.716139
F	-2.598783	0.0	0.0
