17

C	0.0	0.0	0.0
C	-0.673805	0.186122	-1.355841
Br	1.932931	0.0	0.0
H	-1.755079	0.325783	-0.972429
N	-0.370298	1.198186	0.884541
O	-0.617527	2.259571	0.322601
O	-0.34904	1.03259	2.098372
C	-0.485017	-1.263571	0.677399
H	-0.18093	-2.112985	0.068961
H	-0.062974	-1.336972	1.677912
H	-1.57763	-1.163892	0.696068
N	-0.623535	-1.060162	-2.1235
H	-1.567465	-1.283527	-2.412693
H	-0.037523	-0.960697	-2.94223
C	-0.179964	1.3072	-2.142556
N	0.217745	2.121542	-2.893542
F	-2.900531	0.0	0.0
