18
Coordinates from ORCA-job run
  C   0.64583595955847      0.33244266361724     -0.26671876366071
  C   -0.61485296146677     -0.34630026376277      0.29076092106588
  Cl  0.14838428038334      1.65783452864758     -1.39797919369718
  H   -0.22885194690626     -1.13299762412859      0.95641143614162
  C   1.50084545567440     -0.63515881016871     -1.07232944609896
  H   1.81689432750401     -1.45401616928748     -0.41730311996212
  H   0.94439963276861     -1.05793808974843     -1.90562290233119
  H   2.39094487628643     -0.12230435041146     -1.44443068424840
  N   1.34848384829219      0.97831146994691      0.82774800911423
  H   1.66909753979365      0.25892132569300      1.46965942715224
  H   2.16834518511608      1.45428289790534      0.46666490770807
  N   -1.31449417650650     -1.03409902565057     -0.79183014840339
  H   -1.77397264709227     -0.34153841379673     -1.37435590675274
  H   -2.04166814439033     -1.61899940140556     -0.39706144493625
  C   -1.49266040839121      0.59215036702334      1.11471585492163
  H   -1.92208716140341      1.36630187740119      0.47521365136189
  H   -2.31401493195155      0.02251695029586      1.55911634018083
  H   -0.92862872726890      1.08159006782984      1.90834106244454
