18
Coordinates from ORCA-job run
  C   0.68721917807492      0.15477882830586     -0.50269742123028
  C   -0.81261510361629     -0.10073123134984     -0.27157504589684
  Cl  0.86528436512969      0.40723940326692     -2.34498320794641
  H   -1.13733133005602     -0.79684982935943     -1.05016145237389
  C   1.57676888722021     -1.02729676305669     -0.17287015958955
  H   2.59730184664156     -0.83334518498360     -0.50914039060771
  H   1.59223563135112     -1.18830307820451      0.90610582455342
  H   1.22537220235661     -1.93048866492049     -0.67457301701976
  N   1.07715278249555      1.30651106947454      0.22098838100318
  H   0.51411714488710      2.09078991771382     -0.08941788454361
  H   2.05778972478305      1.51463205659275      0.08193444066070
  N   -1.52936562617265      1.16557733720121     -0.44337183123382
  H   -1.83800608605620      1.52108196830544      0.45258068842781
  H   -2.34109661043122      1.04880175878238     -1.03158563428411
  C   -1.07688287728031     -0.72118754113390      1.09840628046845
  H   -0.67239125708914     -0.07724697294572      1.88344239819660
  H   -0.63172863106628     -1.71213473775042      1.19977080397931
  H   -2.15482424117170     -0.82182833593833      1.24714722743650
