18
Coordinates from ORCA-job run
  C   0.70370353848767      0.31452083008412     -0.13328963518799
  C   -0.68237808906377     -0.24123422962359      0.23718557741617
  Cl  0.56506913609388      2.02781479369406     -0.65963427922098
  H   -0.45832373432437     -1.19872267994208      0.74288545600326
  C   1.32075835067443     -0.45613314997172     -1.29248918193195
  H   1.39558238107384     -1.51679170172827     -1.02444827297161
  H   2.32583141567645     -0.08188625613441     -1.49814289404976
  H   0.71811507868842     -0.35285482972572     -2.19452093668684
  N   1.51731916457051      0.32076883456851      1.07442866508571
  H   2.39979682553627      0.78282990165034      0.88422319076793
  H   1.72171143333160     -0.64023316569056      1.33160330244324
  N   -1.48853016033887     -0.43544993334836     -0.96419417399805
  H   -1.29405242969455     -1.33326598735015     -1.38922682723948
  H   -2.47085262892686     -0.42244119308280     -0.72074479991089
  C   -1.42762132418505      0.64482869745439      1.22149861637692
  H   -0.76320323833645      0.97135789264938      2.01983691152846
  H   -2.26670295221293      0.09486532731224      1.65741046119446
  H   -1.81822276705021      1.52302684918462      0.70461882038141
