18
Coordinates from ORCA-job run
  C   0.59074205273156      0.05732069038615     -0.58867753968581
  C   -0.85624906237535      0.08706206753276     -0.06855172254045
  Cl  0.63217016124020     -1.14930328913171     -1.99583130035940
  H   -1.47813986535510      0.37596362527136     -0.93479674145368
  C   1.60260114419352     -0.41654986656012      0.43311219785802
  H   2.60995858028343     -0.36663429326814      0.01260999847787
  H   1.53682112780577      0.22506409962586      1.31183571957226
  H   1.41262501828736     -1.44905711551691      0.72176300732340
  N   0.92592960114953      1.36763036589161     -1.04782836112485
  H   0.34519878858895      1.62645256240403     -1.83776441125358
  H   1.89490779902507      1.41333542500758     -1.33906622166477
  N   -0.89338628086322      1.06246633404027      1.01879145329007
  H   -1.84169062089881      1.15039553323431      1.36394221920357
  H   -0.58567843143776      1.96335631782440      0.67423941543481
  C   -1.36758494103193     -1.24305662865916      0.46114323332249
  H   -0.81897712157180     -1.52501357042496      1.36117223415719
  H   -2.42218370618118     -1.14319541825605      0.73401719882030
  H   -1.28806424359025     -2.03623683940127     -0.28111037937745
