18
Coordinates from ORCA-job run
  C   0.60048346232398      0.19556860214700     -0.58978722065223
  C   -0.86629035027049     -0.17921167031456     -0.32188974693597
  Cl  0.76360352331895      0.59290135744195     -2.33669633916492
  H   -1.10846172092807     -1.01067035576049     -0.99483588683924
  C   1.56073789252620     -0.95343318143042     -0.31183893878652
  H   2.56601147906566     -0.67914047954507     -0.63660799445458
  H   1.59439598245831     -1.17216544953308      0.75825853851478
  H   1.25927322746713     -1.85725469061943     -0.84614783000555
  N   0.92026759683882      1.41292574252492      0.15669246221641
  H   1.24954423040979      1.15648506768204      1.08137317179826
  H   1.67002284119305      1.91204030241356     -0.30618195154035
  N   -1.70953636688253      0.94982896623488     -0.68326110980245
  H   -2.66119089701806      0.77572734343259     -0.38419504051988
  H   -1.35979007096957      1.76760317800882     -0.19563332021283
  C   -1.06316537479709     -0.64433133123361      1.12606835866647
  H   -0.78955362892739      0.14888814190786      1.82771478504689
  H   -2.12174134558161     -0.86645685541623      1.28536597971312
  H   -0.50361048022707     -1.55030468794072      1.37060208295859
