18
Coordinates from ORCA-job run
  C   0.76384187271871      0.20911902963549     -0.27739284660540
  C   -0.62783859194768     -0.26064623059399      0.19725539633473
  Cl  0.52086155888417      1.65096832110062     -1.35180418618994
  H   -0.41550953860630     -1.16329538973105      0.78808631915911
  C   1.46270322456112     -0.86415463959304     -1.08982949155044
  H   0.85014871653910     -1.16403920054012     -1.93600386043181
  H   1.62849179311213     -1.74272950251686     -0.45647541499859
  H   2.42765858108871     -0.48640683022078     -1.42769984930885
  N   1.65208409313934      0.64185413815622      0.77889589188527
  H   1.23077358546771      1.37084749921559      1.33997506539984
  H   1.87748528460200     -0.14672360254461      1.37537880074613
  N   -1.42150249355400     -0.69507672699824     -0.94964065885981
  H   -1.72167000976627      0.12007290334724     -1.47350555237738
  H   -2.25539398494453     -1.16827401072054     -0.62168569909432
  C   -1.34506963990778      0.73974109993993      1.10411443682144
  H   -2.31495494886248      0.32872567615457      1.39577124102965
  H   -0.79417389846350      0.94858432566055      2.02423951801559
  H   -1.52093560406046      1.68143314024901      0.57932089002478
