12

C	0.0	0.0	0.0
C	-0.504886	0.000388	-1.431684
Cl	1.753105	0.0	0.0
H	-1.62403	-0.053912	-1.230877
H	-0.40377	0.823234	0.57522
H	-0.104572	-0.867799	-1.958533
N	-0.446255	-1.24737	0.712779
O	-0.632845	-1.149574	1.918223
O	-0.482806	-2.285324	0.062087
C	-0.119301	1.220451	-2.114239
N	0.179892	2.21326	-2.668753
F	-2.570098	0.0	0.0
