12

C	0.0	0.0	0.0
C	-0.579651	-0.081625	-1.389098
Cl	1.76013	0.0	0.0
H	-1.718346	-0.05556	-1.068745
H	-0.369415	0.864496	0.539554
H	-0.29552	-1.023949	-1.859434
N	-0.438834	-1.18676	0.819284
O	-0.563635	-0.997141	2.022441
O	-0.547043	-2.264258	0.247785
C	-0.177332	1.044318	-2.198747
N	0.120375	1.962512	-2.871784
F	-2.653142	0.0	0.0
