12

C	0.0	0.0	0.0
C	-0.481487	-0.117352	-1.436371
Cl	1.759986	0.0	0.0
H	-1.596095	-0.173574	-1.264849
H	-0.403863	0.867749	0.503937
H	-0.05609	-1.015845	-1.887454
N	-0.445435	-1.186637	0.805919
O	-0.562643	-1.005736	2.010578
O	-0.542907	-2.262209	0.228002
C	-0.099821	1.047828	-2.213078
N	0.193182	1.981543	-2.864313
F	-2.53846	0.0	0.0
