12

C	0.0	0.0	0.0
C	-0.582582	-0.266278	-1.366266
Cl	1.759038	0.0	0.0
H	-1.707358	-0.326581	-1.039615
H	-0.387794	0.931502	0.393922
H	-0.457118	0.641742	-1.962197
N	-0.42799	-1.040528	1.008556
O	-0.614853	-2.181019	0.610233
O	-0.47329	-0.665816	2.174272
C	-0.021067	-1.392506	-2.081458
N	0.40518	-2.281166	-2.722321
F	-2.648421	0.0	0.0
