15

C	0.0	0.0	0.0
C	-0.460826	0.573578	-1.384913
Br	1.994855	0.0	0.0
H	0.436243	0.742493	-1.986065
H	-0.226797	0.728787	0.782459
N	-0.488268	-1.326942	0.235796
H	-0.287625	-1.586827	1.193955
H	-1.504111	-1.275265	0.143068
N	-1.065581	1.871652	-1.124143
H	-1.330484	2.250247	-2.028502
H	-1.942705	1.697628	-0.631674
N	-1.329056	-0.288635	-2.168047
H	-2.229013	-0.364432	-1.695658
H	-0.921148	-1.215761	-2.234714
Cl	-3.798818	0.0	0.0
