15

C	0.0	0.0	0.0
C	-0.560924	-0.25631	-1.386169
Br	2.03376	0.0	0.0
H	-1.643318	-0.180057	-1.203573
H	-0.220243	1.014443	0.331438
N	-0.502593	-0.942468	0.881307
H	-0.42402	-1.879066	0.51133
H	-0.215138	-0.848471	1.841428
N	-0.267764	-1.628852	-1.772672
H	0.602006	-1.615335	-2.295041
H	-1.002537	-1.964068	-2.383144
N	-0.081391	0.7192	-2.369938
H	0.280286	1.543587	-1.90147
H	-0.873758	1.018046	-2.928166
Cl	-3.979519	0.0	0.0
