14

C	0.0	0.0	0.0
C	-0.400939	-0.144197	-1.48987
Cl	1.763218	0.0	0.0
H	0.341342	-0.786193	-1.968193
H	-1.389689	-0.589253	-1.494921
C	-0.530602	1.191537	0.64714
N	-0.665111	2.249042	1.146489
N	-0.394849	-1.230979	0.788859
O	-0.550343	-1.098426	1.995137
O	-0.400316	-2.29064	0.172982
N	-0.351806	1.190932	-2.093086
H	-1.231756	1.643972	-1.851055
H	-0.342814	1.086828	-3.103249
F	-2.416186	0.0	0.0
