14

C	0.0	0.0	0.0
C	-0.427263	0.094301	-1.484971
Cl	1.760153	0.0	0.0
H	-0.15287	1.110544	-1.785597
H	-1.515708	0.000753	-1.419645
C	-0.493624	1.128766	0.781692
N	-0.650059	2.12262	1.390086
N	-0.465016	-1.291394	0.645608
O	-0.486615	-1.311824	1.868331
O	-0.658878	-2.247874	-0.091168
N	0.278074	-0.859835	-2.338117
H	0.357147	-0.470575	-3.268523
H	-0.273785	-1.704477	-2.389324
F	-2.47836	0.0	0.0
