14

C	0.0	0.0	0.0
C	-0.418494	-0.070839	-1.480197
Cl	1.75697	0.0	0.0
H	0.165183	-0.867321	-1.940217
H	-1.481007	-0.304595	-1.420996
C	-0.501605	1.180736	0.691311
N	-0.64116	2.208174	1.244109
N	-0.450937	-1.248272	0.736414
O	-0.573634	-1.175916	1.950341
O	-0.547793	-2.266077	0.062178
N	-0.134408	1.221107	-2.096916
H	-1.011193	1.686721	-2.301133
H	0.379673	1.106183	-2.957376
F	-2.457061	0.0	0.0
