14

C	0.0	0.0	0.0
C	-0.444011	-0.424905	-1.449227
Cl	1.773843	0.0	0.0
H	0.454771	-0.727371	-1.992947
H	-1.091134	-1.283151	-1.310535
C	-0.466059	1.327177	0.37891
N	-0.589693	2.473673	0.610565
N	-0.407036	-1.009539	1.058677
O	-0.422872	-2.183086	0.713282
O	-0.565993	-0.592578	2.196416
N	-1.178432	0.565144	-2.199083
H	-0.652847	1.431405	-2.249553
H	-1.995797	0.704361	-1.593937
F	-2.397086	0.0	0.0
