14

C	0.0	0.0	0.0
C	-0.423255	-0.071385	-1.486802
Cl	1.764746	0.0	0.0
H	-0.155289	0.908655	-1.894696
H	-1.510082	-0.166564	-1.416273
C	-0.504658	1.205505	0.648749
N	-0.623514	2.271995	1.130808
N	-0.458116	-1.215152	0.785328
O	-0.609806	-2.257087	0.161565
O	-0.52292	-1.092712	1.999902
N	0.294482	-1.099335	-2.243208
H	-0.193736	-1.974298	-2.104989
H	0.225716	-0.85919	-3.22464
F	-2.467878	0.0	0.0
