14

C	0.0	0.0	0.0
C	-0.413258	-0.101828	-1.486789
Cl	1.791288	0.0	0.0
H	-1.499788	-0.197945	-1.415109
H	-0.149401	0.87131	-1.912721
C	-0.494833	1.21949	0.625715
N	-0.630843	2.293472	1.086453
N	-0.45128	-1.199176	0.806253
O	-0.623677	-2.245223	0.196064
O	-0.499828	-1.058749	2.019239
N	0.304864	-1.145594	-2.214839
H	0.348769	-0.880114	-3.188372
H	-0.225828	-2.001696	-2.141761
F	-2.459429	0.0	0.0
