14

C	0.0	0.0	0.0
C	-0.435667	-0.424063	-1.452673
Cl	1.785199	0.0	0.0
H	-1.053287	-1.306348	-1.322526
H	0.470896	-0.693668	-2.000549
C	-0.455879	1.331632	0.374102
N	-0.580204	2.479616	0.598027
N	-0.403732	-1.005568	1.061478
O	-0.579383	-0.582249	2.193824
O	-0.396895	-2.181665	0.723973
N	-1.199525	0.547433	-2.194963
H	-2.00908	0.674381	-1.575417
H	-0.689351	1.421207	-2.264982
F	-2.389108	0.0	0.0
