14

C	0.0	0.0	0.0
C	-0.425439	0.027602	-1.489187
Cl	1.761872	0.0	0.0
H	-1.512775	-0.072521	-1.420781
H	-0.162405	1.034154	-1.832702
C	-0.501926	1.156283	0.733576
N	-0.635866	2.182706	1.292126
N	-0.455002	-1.271165	0.697651
O	-0.450181	-1.248887	1.921209
O	-0.670583	-2.250161	-0.001498
N	0.282475	-0.963568	-2.29614
H	0.467688	-0.57637	-3.21137
H	-0.313569	-1.772642	-2.403807
F	-2.474229	0.0	0.0
