13
Coordinates from ORCA-job run
  C   0.85443165124591     -0.70008789682698      0.35965243129353
  C   -0.44283984016798      0.09545945312673      0.09458735485434
  Br  1.49246199715465     -1.65511642110198     -1.19966397855713
  H   -0.65730087029948      0.58084635282499      1.06789434728914
  H   0.65648133930774     -1.45605259868545      1.12378509462684
  C   1.89017097418467      0.20605772637885      0.84238715193406
  N   2.68006537273495      0.98224686257010      1.23216503263473
  N   -1.48845814098062     -0.82462594960863     -0.29874956094305
  H   -2.16752934417817     -0.37101326598190     -0.89367125563612
  H   -1.96976790846166     -1.18291688550520      0.51522598409939
  N   -0.21592080845451      1.04705731465694     -0.96920106385215
  H   0.44874769882225      1.75566727465224     -0.67518972297450
  H   -1.08054212090777      1.52347803350028     -1.20122181476908
