13
Coordinates from ORCA-job run
  C   0.81871337551771     -0.67582286531910      0.40752102255757
  C   -0.40751532322650      0.20242926744735      0.10846371158902
  Br  1.45637720139681     -1.61280007242286     -1.17975652672510
  H   -0.60013964058371      0.74424988617399      1.04892857544567
  H   0.55692671759270     -1.46166595630835      1.12120833012936
  C   1.89875454328099      0.12840611741666      0.96102147729825
  N   2.74390222602186      0.78160871176652      1.44868802415442
  N   -1.50993104290224     -0.65668235301313     -0.30400137941996
  H   -1.77272179462528     -1.30083038427374      0.43457448850461
  H   -2.31749876418006     -0.08176409976487     -0.51313623027198
  N   -0.06681217156356      1.19083317222931     -0.87873938849601
  H   -0.08729015933556      0.77111319275244     -1.80072291148753
  H   -0.71076516739313      1.96992538331579     -0.85404919327832
