16
Coordinates from ORCA-job run
  C   0.88818406450104     -0.36170482207767     -0.45814268458751
  C   -0.64238004473588     -0.27463893499774     -0.25455786234526
  Br  1.34320420425629     -1.43879295997539     -1.99544506076233
  H   -0.99268105274287     -1.31043160211712     -0.25873317663171
  C   1.46074964276271      0.96583394024324     -0.61361231833293
  N   1.83218578179766      2.07253653440142     -0.75485898101764
  N   1.48280364708128     -1.03553625641425      0.77987140804144
  O   2.26229913201500     -0.37907818027062      1.45942021774666
  O   1.06832523670414     -2.16150491863821      1.01393008070006
  N   -1.18876814846119      0.41502831757190     -1.40633478848240
  H   -1.24340159205188      1.41277865917153     -1.23992508478592
  H   -2.11245833502672      0.07262676332146     -1.63025104727308
  C   -0.96507447048054      0.37846908816592      1.08955660201006
  H   -0.59538681249579     -0.19721125242350      1.94020873317897
  H   -0.54734938331784      1.38815999905073      1.14272713767409
  H   -2.05025186980542      0.45446562498831      1.18514682486749
