16
Coordinates from ORCA-job run
  C   0.90302323673265     -0.23355416392105     -0.43268303740285
  C   -0.63271177717227     -0.20777362046671     -0.28466372373131
  Br  1.41929440042729     -0.97934431192159     -2.15000778077132
  H   -0.95584717758916     -1.24993024075842     -0.40992949582087
  C   1.48539841148013      1.08981159394421     -0.29532612794437
  N   1.92984319540084      2.17186782709368     -0.17904759883183
  N   1.45198387870991     -1.15759925155736      0.65813483694981
  O   2.15910849400613     -0.64784603380995      1.51841278514915
  O   1.06913204973686     -2.31777770027529      0.61088421309997
  N   -1.14748843288960      0.70463806315621     -1.28738209758288
  H   -1.22931180001244      0.25320086883094     -2.18900510410043
  H   -2.05888851022240      1.04913028423912     -1.01640326691250
  C   -1.01350460613149      0.28689232800047      1.10490281292139
  H   -0.59789318868852     -0.33771201433994      1.89657160123619
  H   -2.10156257322638      0.25798911167865      1.20495901435800
  H   -0.67957560056156      1.31700726010701      1.24858296938385
