16
Coordinates from ORCA-job run
  C   0.90455574431800     -0.26905780546494     -0.40609704802274
  C   -0.62988402719993     -0.26216268595043     -0.24433015678935
  Br  1.42631737510125     -1.24217530432288     -2.00423143764522
  H   -0.92543534189437     -1.31960783345510     -0.21816567678006
  C   1.45214799209105      1.07474861646375     -0.47006553599187
  N   1.86911781113433      2.17257932964083     -0.52143111644520
  N   1.48812412035754     -1.01075494375674      0.79994379453955
  O   1.13801106188454     -2.17559449680907      0.92447978907405
  O   2.18766291322674     -0.36352513721987      1.56924274595122
  N   -1.17721865092739      0.48745357272136     -1.35841039886447
  H   -2.09743262598373      0.83879166667330     -1.12917319647308
  H   -1.24974666833910     -0.08639888816628     -2.18843535216458
  C   -1.01142283963696      0.41177734236926      1.06745153150747
  H   -2.09822784449243      0.37915804765432      1.17944590796931
  H   -0.58092497946506     -0.09339006978076      1.93302683188344
  H   -0.69464404017448      1.45715858940326      1.06774931825151
