16
Coordinates from ORCA-job run
  C   0.83417901953894     -0.49818749516408     -0.00834605007868
  C   -0.44201726731435      0.36735542006781     -0.08742062567292
  Br  0.91964881638170     -1.52199299515061      1.62641139939698
  H   -0.34527124301234      0.88167950800916     -1.04913611546576
  C   0.94661646977995     -1.40199507447643     -1.14275433135878
  N   0.99239074530201     -2.12598012615256     -2.06836564755750
  N   2.02383634907254      0.49055241891704     -0.08445833201618
  O   2.06834216335975      1.09216554642686     -1.14995642488874
  O   2.76653335769032      0.61100459124697      0.86840917993852
  N   -0.34556855253065      1.37281820919973      0.95379094297537
  H   -0.71707925243406      1.02529022039909      1.82961572248457
  H   -0.86335336427032      2.20130385135342      0.69300730313173
  C   -1.71270349792896     -0.47392189865412     -0.09518016120791
  H   -1.85084577337961     -0.97989871920984      0.86234644301719
  H   -1.70549638040396     -1.22547898523791     -0.88844612349008
  H   -2.56821158985098      0.18528552842547     -0.25951717920781
