16
Coordinates from ORCA-job run
  C   0.88087429715969     -0.39709049330334     -0.09959945954053
  C   -0.48158147557422      0.32460948245509     -0.02190740175237
  Br  1.13609710009541     -1.63094508243186      1.36352156179848
  H   -0.47627405622040      0.98031199515728     -0.89874618208223
  C   1.04577742916992     -1.10902472431991     -1.35747543529412
  N   1.13650716971442     -1.67383996868290     -2.38496781233068
  N   1.95596132913195      0.71717968621972     -0.05467414664198
  O   1.89588016936431      1.46845685907645     -1.01964125488703
  O   2.71767757378217      0.77891279906128      0.88876750600558
  N   -0.45342799530507      1.17306945450858      1.15427312970478
  H   -0.75201044102773      0.66353522664054      1.97709947053939
  H   -1.06585611454751      1.96808089734435      1.03033494130530
  C   -1.65544627929126     -0.64173666637416     -0.12705978838109
  H   -1.59822561482757     -1.26498699304373     -1.02288452747128
  H   -1.70333085735817     -1.29328261912902      0.74766571527766
  H   -2.58162223426595     -0.06424985317837     -0.17370631624988
