16
Coordinates from ORCA-job run
  C   0.81423472249089     -0.30467630808876     -0.47675893754007
  C   -0.72383040951137     -0.22319209517932     -0.22841650144049
  Br  1.19898936088397     -1.12114325242901     -2.19373636664927
  H   -1.08387723424603     -1.24972812437892     -0.34780612599802
  C   1.42027122048111      1.01494261213984     -0.43409028857384
  N   1.81011362258914      2.12455351346465     -0.42942843617448
  N   1.41793449104546     -1.18894241786267      0.61173860309374
  O   1.02327745224308     -2.34576010259989      0.63105714633262
  O   2.17357930463602     -0.64989906865666      1.41164240849642
  N   -1.41556885252211      0.62253786028517     -1.16622394129955
  H   -1.28363605487186      0.32058588982722     -2.12268526080945
  H   -1.12652822876742      1.58985838430484     -1.07820385547907
  C   -0.99198349110499      0.25809482596055      1.19232823638906
  H   -0.58872429807756     -0.41961106737883      1.94572292259817
  H   -0.57069362646407      1.25371873872112      1.35863234860465
  H   -2.07255797880427      0.31766061187066      1.32522804844959
