16
Coordinates from ORCA-job run
  C   0.84224079172928     -0.48713436396857     -0.36943678794921
  C   -0.62499305420310      0.00137097243128     -0.30515022382752
  Br  1.03584895685804     -2.41637632877140     -0.20671073786431
  H   -1.03067646185130     -0.27043248299429     -1.28606869270769
  C   1.43285448138369     -0.07255631340771     -1.63540717376708
  N   1.84866750203138      0.21249094202846     -2.69718597500388
  N   1.67628281544473      0.12926842029587      0.75915524281838
  O   1.11349847990064      0.26684947577134      1.83697733990746
  O   2.83931994961931      0.39986320987173      0.50137144993237
  N   -0.50799775664228      1.45181230511726     -0.24524832259406
  H   -1.16692976410042      1.90630601958644     -0.86089629091262
  H   -0.64679605276639      1.78843775398678      0.69897837751346
  C   -1.52224917319793     -0.62032533771516      0.75967516453152
  H   -2.51907657350788     -0.18785400208255      0.64273358190881
  H   -1.60886439203680     -1.70088884573704      0.64501177748240
  H   -1.16012974866098     -0.40083142441244      1.76220127053198
