16
Coordinates from ORCA-job run
  C   0.78889687672707     -0.51074608957084     -0.49617142218910
  C   -0.69274740267245     -0.20054237268565     -0.18065920232836
  Br  0.96071368936622     -1.74077424887800     -1.97546272576283
  H   -1.17517810212666     -1.17616604482097     -0.07543693942600
  C   1.51489878730234      0.71198406860561     -0.80035945706956
  N   2.01127516654098      1.74597720384370     -1.05924767845014
  N   1.39714887139937     -1.17533880059960      0.73997398619458
  O   2.31248503658861     -0.58759538843652      1.30310546758281
  O   0.86314776498161     -2.21742804581240      1.09146061276577
  N   -1.24407243290467      0.47744359032138     -1.33703847481032
  H   -2.22300760489302      0.25706486232013     -1.45396449544063
  H   -1.14582530242574      1.48178127511393     -1.24960519921805
  C   -0.80707373988871      0.58031651293114      1.12878738764291
  H   -0.25895911153014      1.52517343091849      1.06792050308639
  H   -1.86034728022848      0.80931679265410      1.30399983803007
  H   -0.44035521623632      0.01953325409550      1.99069779939248
