16
Coordinates from ORCA-job run
  C   0.85508397231461     -0.47030047887146     -0.36069225536495
  C   -0.62110694382040     -0.00862915889533     -0.31263238765889
  Br  1.08098427424213     -2.39727263873571     -0.20765988821874
  H   -1.01001218720121     -0.28496816976758     -1.29905394074292
  C   1.45404120300458     -0.03729106838752     -1.61646465567484
  N   1.85865149390581      0.28285616061394     -2.67244120570722
  N   1.66758277477673      0.15080027826127      0.78085025856630
  O   1.08261586084608      0.30610253660361      1.84435745058901
  O   2.83933791691654      0.40457746917591      0.54652694544740
  N   -0.53293002886994      1.44361086890002     -0.24963683808917
  H   -1.19808749584737      1.88538795032464     -0.86779372269601
  H   -0.68206890721271      1.77549679278666      0.69457412824255
  C   -1.51848756082723     -0.65126036310364      0.73971966109444
  H   -2.52167153832043     -0.23642884432521      0.61361567498336
  H   -1.17164234407633     -0.42900706210453      1.74700785669046
  H   -1.58429048983087     -1.73267427247508      0.61972291853922
