16
Coordinates from ORCA-job run
  C   0.83943901973946     -0.35285327517273     -0.14790236865807
  C   -0.57640695189152      0.30713158567827     -0.01027025420043
  Br  1.25515833440278     -1.51013988654757      1.33801306783778
  H   -0.65964805512062      0.91857715575408     -0.91669943772415
  C   0.96861713337587     -1.09887404257873     -1.38781633951417
  N   1.01249654650484     -1.71280441416044     -2.39018067170677
  N   1.83148165095938      0.82140187058530     -0.20159159962842
  O   1.82028257590765      1.42322445837542     -1.26981206412611
  O   2.45051419416179      1.11985617936325      0.80631709898464
  N   -0.71914552691654      1.17574818296820      1.12627895537268
  H   -0.09617511854246      1.97228245407605      1.10068560480612
  H   -0.58567958490290      0.67673589592629      1.99703168624634
  C   -1.67233595144545     -0.74639103851984     -0.01481992231372
  H   -2.63324834528057     -0.23281589992899     -0.05779054008327
  H   -1.59096975452086     -1.41810736561252     -0.87118569536806
  H   -1.64438016643084     -1.34197186020604      0.89974248007561
