16
Coordinates from ORCA-job run
  C   0.78580377603231     -0.38630356476848     -0.46430257150724
  C   -0.74035422135346     -0.18577247886703     -0.21059303274205
  Br  1.09587081265796     -1.32485700986694     -2.13345002882245
  H   -1.17053945865273     -1.19038293642604     -0.26812937057924
  C   1.48003827671000      0.88929220038924     -0.50289037940270
  N   1.94570024948153      1.96762596084688     -0.56239666704171
  N   1.34015514862393     -1.24559769781836      0.66954660594846
  O   0.86601766926709     -2.36866207642744      0.76051561973265
  O   2.14312982788022     -0.71607269057948      1.42860564405505
  N   -1.38302158655142      0.65098934003125     -1.19036582595982
  H   -1.27975348581326      0.28884415803689     -2.12930178152941
  H   -1.02975465166944      1.60026582386130     -1.15760994313360
  C   -0.95930140499385      0.39230061352011      1.18228381946982
  H   -0.46705121077384      1.36314150452622      1.28975280294147
  H   -0.59736984412692     -0.26956839385757      1.96997284560933
  H   -2.03156989671816      0.53575724739946      1.31836226296143
