16
Coordinates from ORCA-job run
  C   0.80140031254903     -0.54801561724425     -0.41146449793541
  C   -0.64019749008405      0.01510600740013     -0.30186422030938
  Br  0.82327921838972     -2.47985441371738     -0.55843897944043
  H   -1.13240003399185     -0.33554252737013     -1.22168692200503
  C   1.44160899230749      0.00583817624694     -1.59689399065720
  N   1.85610274089707      0.45533727715517     -2.60121135980004
  N   1.60800095209383     -0.13173580611704      0.82152356543503
  O   1.29157018055114     -0.66511034884967      1.87456843520363
  O   2.46444483271493      0.72436305455961      0.65355115858710
  N   -0.48769057384753      1.45755948529133     -0.22843953358341
  H   -1.27594834894525      1.88234592435571      0.24061791972974
  H   -0.38369288314761      1.87935233051738     -1.14247361400900
  C   -1.43329442967847     -0.48012133064488      0.89750194459532
  H   -1.05731196573376     -0.03296485140152      1.81756350581758
  H   -2.47623801346995     -0.18208430128295      0.76103862464541
  H   -1.39863349060474     -1.56347305889847      0.99710796372609
