16
Coordinates from ORCA-job run
  C   0.75121478361987     -0.54714349316634     -0.44931778624742
  C   -0.72680547479701     -0.00267184752539     -0.35084296303733
  Br  0.78305723857781     -2.44985458630953     -0.77286846200752
  H   -1.23183560296575     -0.47203406425392     -1.20123182115463
  C   1.47301910117587      0.12181480376547     -1.51847684009062
  N   1.98938569244106      0.67552922834824     -2.41827215033688
  N   1.44090999871251     -0.21481954599839      0.87625467421407
  O   1.54684691653758     -1.08349419589355      1.72492572582330
  O   1.73384387569647      0.97282689050736      0.99423007213295
  N   -0.84778004008111      1.42343390630060     -0.49498858697623
  H   -0.35348950682482      1.91690026014137      0.23796829135273
  H   -0.50908532959346      1.74915105587186     -1.39173329356082
  C   -1.38119944416967     -0.45068727367944      0.94769978412770
  H   -1.26802443262176     -1.52053399717958      1.12219852747187
  H   -0.95625642119938      0.08671496243532      1.80022113518512
  H   -2.44180135450820     -0.20513210336407      0.89523369310373
