19

C	-0.194072	-0.034076	-1.54729
C	0.0	0.0	0.0
F	-0.166056	-1.406455	-1.865371
H	1.092496	0.0	0.0
C	-1.529453	0.478502	-2.049003
H	-2.343663	-0.057772	-1.554953
H	-1.638486	1.546921	-1.860082
H	-1.582584	0.297408	-3.123945
N	0.915668	0.563987	-2.235858
H	1.7501	0.338515	-1.665223
H	0.812314	1.566741	-2.135704
C	-0.602252	-1.142774	0.776279
H	-0.387292	-1.02404	1.838741
H	-1.6876	-1.218045	0.654595
H	-0.136867	-2.063702	0.429281
N	-0.456949	1.304736	0.507351
O	-0.0735	2.325853	-0.07479
O	-1.203777	1.341217	1.494684
F	2.623359	0.0	0.0
