19

C	-0.469229	0.018513	-1.452479
C	0.0	0.0	0.0
F	0.252166	1.01497	-2.124298
H	1.09046	0.0	0.0
C	-0.059266	-1.281753	-2.120585
H	-0.237989	-1.19142	-3.196955
H	-0.63625	-2.12521	-1.737981
H	1.007359	-1.429791	-1.934207
N	-1.861068	0.343902	-1.592321
H	-2.327156	-0.205504	-2.299491
H	-2.367223	0.342577	-0.72007
C	-0.527868	-1.170949	0.80312
H	-0.290983	-1.017257	1.857806
H	-1.607916	-1.323615	0.718346
H	-0.002442	-2.071685	0.48222
N	-0.472231	1.277502	0.615993
O	0.195976	2.294441	0.456666
O	-1.547615	1.250066	1.241654
F	2.601261	0.0	0.0
