19

C	-0.193705	-0.020126	-1.54552
C	0.0	0.0	0.0
F	-0.151299	-1.39151	-1.873398
H	1.092731	0.0	0.0
C	-1.532045	0.478092	-2.051627
H	-2.340803	-0.079178	-1.573297
H	-1.660268	1.541568	-1.849284
H	-1.573956	0.308664	-3.128851
N	0.911449	0.590387	-2.228831
H	0.781873	1.593363	-2.162071
H	1.746736	0.385104	-1.652768
C	-0.596641	-1.152165	0.768023
H	-1.683998	-1.222305	0.656004
H	-0.36892	-1.050454	1.829136
H	-0.139367	-2.069053	0.400645
N	-0.441223	1.299145	0.536354
O	-1.074403	1.330614	1.597415
O	-0.134807	2.325854	-0.085517
F	2.620344	0.0	0.0
