19

C	-0.151364	-0.036102	-1.531264
C	0.0	0.0	0.0
F	-1.445513	-0.452999	-1.893724
H	1.091296	0.0	0.0
C	0.128313	1.291494	-2.193
H	1.128308	1.607712	-1.895526
H	0.086846	1.132549	-3.271093
H	-0.594438	2.052887	-1.899433
N	0.789904	-1.010654	-2.060469
H	1.669657	-0.817073	-1.551993
H	0.478699	-1.930167	-1.763336
C	-0.568003	-1.214065	0.700708
H	-0.060976	-2.105559	0.328395
H	-1.643204	-1.315706	0.553339
H	-0.364596	-1.150983	1.771236
N	-0.542654	1.238375	0.599936
O	-1.625205	1.182918	1.197619
O	0.106537	2.278996	0.476672
F	2.642197	0.0	0.0
