15

C	-0.36669	0.044128	-1.457331
C	0.0	0.0	0.0
Br	-2.344691	-0.127141	-1.797826
H	1.103721	0.0	0.0
H	0.051168	-0.835203	-1.946646
C	0.056898	1.259024	-2.142186
N	0.372425	2.246236	-2.69566
N	-0.376861	-1.309439	0.53158
H	-1.21807	-1.246413	1.094387
H	0.388882	-1.611563	1.122787
C	-0.506959	1.180296	0.806117
H	-0.061789	1.132576	1.803902
H	-1.600946	1.175634	0.906733
H	-0.203036	2.130327	0.357419
F	2.600346	0.0	0.0
