15

C	-0.597797	-0.023434	-1.404762
C	0.0	0.0	0.0
Br	-0.104669	1.547919	-2.488669
H	1.100337	0.0	0.0
H	-1.692393	-0.001051	-1.349454
C	-0.208312	-1.213815	-2.153075
N	0.085394	-2.158344	-2.785674
N	-0.463289	-1.287127	0.582944
H	-0.703678	-1.133744	1.557411
H	0.357537	-1.886241	0.587593
C	-0.528785	1.163753	0.810195
H	-0.319415	2.118057	0.325162
H	-1.611787	1.08384	0.984605
H	-0.015826	1.173175	1.775968
F	2.652008	0.0	0.0
