15

C	-0.354064	0.039009	-1.498323
C	0.0	0.0	0.0
Br	0.285165	-1.554957	-2.448995
H	1.095434	0.0	0.0
H	0.179209	0.869961	-1.963121
C	-1.786658	0.146103	-1.747751
N	-2.953855	0.241573	-1.856968
N	-0.511348	-1.147763	0.721258
H	-1.478525	-1.346384	0.478998
H	0.053856	-1.955244	0.488441
C	-0.487076	1.290625	0.642963
H	-1.582197	1.365088	0.681604
H	-0.091618	2.163954	0.114847
H	-0.100537	1.311636	1.663161
F	2.646572	0.0	0.0
