15

C	-0.366128	-0.019054	-1.458925
C	0.0	0.0	0.0
Br	-2.340772	-0.208577	-1.791553
H	1.098115	0.0	0.0
H	0.055741	-0.91655	-1.909828
C	0.057677	1.1657	-2.194624
N	0.384566	2.121117	-2.795465
N	-0.376823	-1.286451	0.585925
H	-1.217572	-1.199304	1.146091
H	0.388702	-1.561553	1.189903
C	-0.508716	1.213074	0.754333
H	-0.202906	2.143128	0.267215
H	-0.066622	1.207081	1.754234
H	-1.60268	1.21319	0.851885
F	2.604938	0.0	0.0
