15

C	-0.468968	0.004603	-1.45223
C	0.0	0.0	0.0
Br	0.179802	-1.554232	-2.439871
H	1.094746	0.0	0.0
H	-0.034329	0.861279	-1.971725
C	-1.923434	0.041122	-1.579106
N	-3.096772	0.103766	-1.617617
N	-0.477108	-1.198657	0.682453
H	0.318989	-1.612792	1.150534
H	-1.179899	-0.974846	1.374394
C	-0.450721	1.290089	0.674873
H	0.026775	1.340538	1.656943
H	-0.123242	2.169188	0.111034
H	-1.540758	1.345055	0.805456
F	2.642141	0.0	0.0
