15

C	-0.482221	-0.026989	-1.453157
C	0.0	0.0	0.0
Br	0.028352	1.568149	-2.496587
H	1.095148	0.0	0.0
H	-1.578751	-0.033668	-1.507183
C	0.009844	-1.199788	-2.171345
N	0.348616	-2.163613	-2.752714
N	-0.394214	-1.261768	0.63987
H	-1.274409	-1.627751	0.287666
H	0.334808	-1.94117	0.449857
C	-0.576142	1.175442	0.762078
H	-0.228684	1.100739	1.794043
H	-0.233143	2.1269	0.350875
H	-1.677287	1.168196	0.769579
F	2.632572	0.0	0.0
