15

C	-0.495106	0.000363	-1.428066
C	0.0	0.0	0.0
Br	-2.355635	-0.470081	-1.649263
H	1.088115	0.0	0.0
H	0.080271	-0.748247	-1.973831
N	-0.191417	1.322314	-2.107355
O	-0.700328	1.508679	-3.203822
O	0.601996	2.058015	-1.534776
N	-0.400239	-1.30124	0.628134
O	-0.044771	-2.294424	0.000995
O	-1.022884	-1.289796	1.683123
N	-0.515884	1.116608	0.831145
O	-1.450538	1.78292	0.387735
O	0.041565	1.276294	1.909919
Cl	3.116497	0.0	0.0
