15

C	-0.587003	-0.08785	-1.391002
C	0.0	0.0	0.0
Br	-2.473493	0.31524	-1.474269
H	1.089785	0.0	0.0
H	-0.459564	-1.102929	-1.753309
N	0.178958	0.779992	-2.372994
O	1.110529	0.197449	-2.916073
O	-0.173237	1.937613	-2.547795
N	-0.382393	-1.19972	0.813666
O	0.009489	-1.192789	1.97125
O	-0.992388	-2.113544	0.263129
N	-0.454787	1.238322	0.706447
O	-1.305092	1.148751	1.585166
O	0.055073	2.269087	0.28109
Cl	3.108784	0.0	0.0
