15

C	-0.505691	0.005231	-1.420868
C	0.0	0.0	0.0
Br	0.263975	-1.433099	-2.418881
H	1.089408	0.0	0.0
H	-0.184588	0.941478	-1.878032
N	-2.029813	0.016736	-1.512409
O	-2.599874	-0.694682	-2.321842
O	-2.558104	0.834168	-0.765029
N	-0.483122	-1.170063	0.784157
O	-1.502893	-1.739303	0.388815
O	0.174056	-1.467177	1.774793
N	-0.398904	1.257537	0.723347
O	-0.933336	1.160524	1.819448
O	-0.104014	2.293001	0.141347
Cl	3.136914	0.0	0.0
