15

C	-0.574606	-0.106273	-1.394991
C	0.0	0.0	0.0
Br	-2.469901	0.257567	-1.494787
H	1.08976	0.0	0.0
H	-0.422984	-1.119304	-1.752951
N	0.174284	0.779318	-2.3725
O	1.063411	0.198836	-2.984566
O	-0.153456	1.952311	-2.479305
N	-0.378803	-1.195193	0.821455
O	-0.960075	-2.127857	0.267964
O	-0.010313	-1.16506	1.988446
N	-0.468575	1.234686	0.70213
O	0.079365	2.266558	0.330477
O	-1.36796	1.139849	1.531162
Cl	3.106198	0.0	0.0
