19

C	0.0	0.0	0.0
C	-0.437567	0.60278	-1.356935
Cl	1.8067	0.0	0.0
H	0.180899	0.079041	-2.098876
C	-0.39011	0.867995	1.116528
N	-0.659182	1.570466	2.018572
C	-0.521275	-1.410991	0.222442
H	-1.610045	-1.37166	0.303237
H	-0.10372	-1.835871	1.136779
H	-0.240345	-2.03572	-0.628042
C	-0.1296	2.097218	-1.439323
H	0.899827	2.332622	-1.156982
H	-0.286186	2.440775	-2.465136
H	-0.809229	2.66129	-0.793306
C	-1.908254	0.343934	-1.662139
H	-2.117019	-0.710746	-1.84338
H	-2.591432	0.658432	-0.867393
H	-2.187935	0.899041	-2.562264
Cl	-4.898339	0.0	0.0
