19

C	0.0	0.0	0.0
C	-0.416619	-0.449809	-1.429051
Cl	1.807573	0.0	0.0
H	0.32808	-0.002808	-2.097337
C	-0.344441	1.41457	0.196325
N	-0.579296	2.555281	0.35217
C	-0.585207	-0.827425	1.128933
H	-0.237471	-1.858397	1.070176
H	-0.293525	-0.410226	2.094152
H	-1.677361	-0.796224	1.044178
C	-1.788885	0.067733	-1.845395
H	-1.797318	1.157158	-1.919513
H	-2.602747	-0.213078	-1.170913
H	-2.026912	-0.33371	-2.83638
C	-0.332682	-1.967477	-1.570468
H	-1.158787	-2.452618	-1.044175
H	-0.419003	-2.232531	-2.627831
H	0.614474	-2.368921	-1.199571
Cl	-4.717436	0.0	0.0
