19

C	0.0	0.0	0.0
C	-0.561194	0.133024	-1.425504
Cl	1.806197	0.0	0.0
H	-1.643898	0.213941	-1.251721
C	-0.350631	1.199634	0.776758
N	-0.550745	2.174498	1.401029
C	-0.505677	-1.236837	0.726434
H	-1.599853	-1.209797	0.687369
H	-0.125566	-2.137683	0.243587
H	-0.170207	-1.227545	1.765408
C	-0.302789	-1.110702	-2.269359
H	0.764923	-1.345653	-2.326977
H	-0.84027	-1.977154	-1.881876
H	-0.665718	-0.934066	-3.285432
C	-0.077862	1.39355	-2.134699
H	0.987011	1.335874	-2.377813
H	-0.249037	2.286159	-1.528694
H	-0.6363	1.515683	-3.066715
Cl	-3.801863	0.0	0.0
