13

C	-0.360465	-0.300295	-1.439179
C	0.0	0.0	0.0
Br	-0.269228	1.501845	-2.56078
H	1.098181	0.0	0.0
H	-1.409746	-0.52525	-1.635659
H	-0.327466	-0.884758	0.562628
N	0.516948	-1.263951	-1.920529
H	1.479996	-1.065022	-1.634799
H	0.440536	-1.434603	-2.910472
N	-0.665509	1.176762	0.564211
H	-0.271486	1.987679	0.097923
H	-0.354718	1.240853	1.528968
H	3.048998	0.0	0.0
