13

C	-0.271839	-0.177661	-1.49333
C	0.0	0.0	0.0
Br	-0.477313	1.784379	-2.34489
H	1.095347	0.0	0.0
H	-1.266705	-0.535199	-1.768343
H	-0.420763	0.922788	0.394265
N	0.747335	-0.919706	-2.054445
H	1.674001	-0.65829	-1.691507
H	0.713865	-1.035651	-3.055334
N	-0.442143	-1.15524	0.781153
H	0.201943	-1.9152	0.595741
H	-1.365798	-1.456615	0.4875
H	3.008251	0.0	0.0
