13

C	-0.408249	-0.113672	-1.459146
C	0.0	0.0	0.0
Br	-0.327589	1.67703	-2.337934
H	1.102207	0.0	0.0
H	-1.456309	-0.394856	-1.592249
H	-0.310225	-0.957565	0.445877
N	0.452852	-1.00493	-2.192875
H	0.197282	-1.958222	-1.958706
H	1.40781	-0.851134	-1.860099
N	-0.661769	1.077473	0.742626
H	-0.338728	1.001484	1.702166
H	-0.269549	1.948527	0.398448
H	3.072912	0.0	0.0
