13

C	-0.589429	0.024837	-1.389756
C	0.0	0.0	0.0
Br	0.011541	-1.677195	-2.388305
H	1.095825	0.0	0.0
H	-0.135877	0.795019	-2.010294
H	-0.335238	0.937126	0.463104
N	-1.997394	0.118408	-1.347468
H	-2.326813	-0.560864	-0.668469
H	-2.420703	-0.050253	-2.250277
N	-0.594167	-1.119454	0.757714
H	-0.433306	-0.933575	1.741093
H	-0.028865	-1.935403	0.541135
H	3.077911	0.0	0.0
