13

C	-0.565994	0.035384	-1.410387
C	0.0	0.0	0.0
Br	-0.241311	-1.686214	-2.288494
H	1.09734	0.0	0.0
H	-0.011983	0.766177	-2.001345
H	-0.377913	-0.882237	0.529259
N	-1.988441	0.33384	-1.517573
H	-2.491441	-0.408508	-1.039152
H	-2.09493	1.171428	-0.946861
N	-0.422294	1.260241	0.659945
H	0.435551	1.745587	0.906915
H	-0.893805	1.050186	1.531965
H	2.991357	0.0	0.0
