13

C	-0.255621	-0.277839	-1.489473
C	0.0	0.0	0.0
Br	-0.678881	1.67542	-2.521309
H	1.092425	0.0	0.0
H	-1.214717	-0.693968	-1.793003
H	-0.341069	-0.905527	0.519974
N	0.816353	-0.922293	-2.007709
H	1.733387	-0.644412	-1.62263
H	0.791688	-1.194059	-2.977048
N	-0.534238	1.181283	0.644601
H	0.092719	1.946119	0.427437
H	-1.428756	1.42854	0.239778
H	3.00786	0.0	0.0
