13

C	-0.266786	-0.375022	-1.45784
C	0.0	0.0	0.0
Br	-0.48116	1.460066	-2.56222
H	1.091998	0.0	0.0
H	-1.258884	-0.770339	-1.687012
H	-0.422057	0.966396	0.266952
N	0.759097	-1.176554	-1.91275
H	0.729468	-1.426717	-2.888997
H	1.682958	-0.864163	-1.583685
N	-0.442793	-1.041518	0.92641
H	-1.367634	-1.376497	0.676782
H	0.199193	-1.820786	0.841931
H	3.00986	0.0	0.0
