12

C	-0.503969	-0.043017	-1.432836
C	0.0	0.0	0.0
Cl	-0.154114	1.491324	-2.283343
H	1.092407	0.0	0.0
H	0.092603	-0.793053	-1.964213
H	-0.291156	-0.941924	0.48368
N	-1.936369	-0.258972	-1.475337
H	-2.152629	-1.108145	-0.96509
H	-2.238079	-0.378249	-2.435259
C	-0.559819	1.102346	0.771833
N	-0.998416	1.983234	1.410918
Br	3.534161	0.0	0.0
