12

C	-0.451938	0.013322	-1.451028
C	0.0	0.0	0.0
Cl	-2.267015	-0.163962	-1.513815
H	1.094829	0.0	0.0
H	-0.242986	0.98166	-1.905748
H	-0.33323	-0.925939	0.481307
N	0.140613	-1.018538	-2.265285
H	1.144739	-0.825902	-2.289527
H	0.036833	-1.908432	-1.786035
C	-0.493324	1.142505	0.758627
N	-0.876267	2.082818	1.348302
Br	3.246763	0.0	0.0
