12

C	-0.595162	-0.082855	-1.39803
C	0.0	0.0	0.0
Cl	-0.141736	-1.657661	-2.164728
H	1.092075	0.0	0.0
H	-1.687589	-0.149375	-1.333641
H	-0.320248	0.951318	0.437988
N	-0.140971	0.999255	-2.198761
H	-0.816196	1.306398	-2.886643
H	0.205942	1.777576	-1.644678
C	-0.515123	-1.055172	0.85401
N	-0.979988	-1.884068	1.538309
Br	3.557218	0.0	0.0
