12

C	-0.325723	-0.047569	-1.493008
C	0.0	0.0	0.0
Cl	-2.084627	-0.371208	-1.74149
H	1.094858	0.0	0.0
H	-0.137988	0.929907	-1.939116
H	-0.340649	-0.920989	0.482269
N	0.446173	-1.030986	-2.210152
H	0.320117	-1.933123	-1.761592
H	1.428493	-0.783868	-2.081758
C	-0.555167	1.153892	0.689031
N	-1.002479	2.085652	1.245813
Br	3.494857	0.0	0.0
