12

C	-0.558391	-0.042956	-1.424051
C	0.0	0.0	0.0
Cl	-0.073632	1.43751	-2.298799
H	1.092586	0.0	0.0
H	-0.079054	-0.874555	-1.943955
H	-0.299548	-0.933901	0.493339
N	-1.995889	-0.184871	-1.541959
H	-2.444005	0.570049	-1.032413
H	-2.268648	-1.060046	-1.106164
C	-0.566652	1.106731	0.760089
N	-1.089946	1.987795	1.333179
Br	3.529178	0.0	0.0
