12

C	-0.314918	-0.04172	-1.484538
C	0.0	0.0	0.0
Cl	-2.097443	-0.074137	-1.80542
H	1.095961	0.0	0.0
H	0.010187	0.911165	-1.917178
H	-0.36005	0.926791	0.450604
N	0.295703	-1.208701	-2.056862
H	1.262885	-1.245226	-1.735554
H	0.294343	-1.147093	-3.067916
C	-0.520955	-1.146277	0.732101
N	-0.930481	-2.055914	1.350011
Br	3.486106	0.0	0.0
