12

C	-0.409703	-0.073748	-1.482373
C	0.0	0.0	0.0
Cl	-0.331852	-1.804769	-1.98596
H	1.092555	0.0	0.0
H	-1.451461	0.221509	-1.627218
H	-0.37732	-0.834635	0.59312
N	0.422579	0.711079	-2.351033
H	0.197104	1.69009	-2.225822
H	1.397772	0.57597	-2.088939
C	-0.482973	1.257172	0.560626
N	-0.935888	2.259982	0.97274
Br	3.513387	0.0	0.0
