18

C	-0.624483	0.071886	-1.37815
C	0.0	0.0	0.0
Cl	0.246301	1.341271	-2.391027
H	1.095374	0.0	0.0
N	-0.373635	-1.214109	-2.162119
O	0.662009	-1.816674	-1.94737
O	-1.221084	-1.513793	-3.006277
N	-2.023171	0.273711	-1.354839
H	-2.218503	1.194933	-0.987857
H	-2.401273	0.184852	-2.289826
N	-0.428045	-1.265818	0.595113
H	0.399641	-1.697982	0.994282
H	-1.109183	-1.113033	1.327706
C	-0.392697	1.212661	0.835954
H	0.227384	1.202305	1.735702
H	-0.186513	2.150293	0.312984
H	-1.448207	1.18805	1.135997
H	2.860604	0.0	0.0
