18

C	-0.569336	0.049366	-1.408085
C	0.0	0.0	0.0
Cl	0.273577	1.408524	-2.319254
H	1.100282	0.0	0.0
N	-0.198322	-1.185462	-2.236241
O	-0.758431	-1.281269	-3.327475
O	0.606973	-1.983712	-1.775469
N	-1.970969	0.133485	-1.481753
H	-2.278751	0.344161	-2.420916
H	-2.3284	0.803655	-0.817983
N	-0.50531	-1.209486	0.680138
H	-0.390493	-1.039546	1.675526
H	0.158111	-1.947653	0.457291
C	-0.432887	1.221401	0.799137
H	-0.290754	2.148852	0.243715
H	0.208747	1.275706	1.683251
H	-1.475385	1.143059	1.132671
H	2.903232	0.0	0.0
