18

C	-0.23435	-0.27494	-1.493356
C	0.0	0.0	0.0
Cl	-1.880573	-0.952912	-1.841059
H	1.102502	0.0	0.0
N	-0.154401	1.064551	-2.238092
O	0.968149	1.394888	-2.600744
O	-1.168456	1.74843	-2.340842
N	0.74698	-1.134181	-2.07971
H	0.575729	-2.069339	-1.729342
H	1.654977	-0.83382	-1.685282
N	-0.321224	-1.155237	0.831719
H	-1.145112	-1.645361	0.506328
H	0.474447	-1.784161	0.829153
C	-0.616095	1.266317	0.550391
H	-1.706118	1.272082	0.444687
H	-0.214112	2.158399	0.065375
H	-0.366262	1.312416	1.611557
H	2.817665	0.0	0.0
