18

C	-0.234473	0.170614	-1.501976
C	0.0	0.0	0.0
Cl	-0.192151	-1.463148	-2.369513
H	1.104402	0.0	0.0
N	-1.659778	0.678487	-1.808176
O	-1.770184	1.822421	-2.247435
O	-2.593188	-0.064851	-1.526861
N	0.713642	1.070476	-1.966836
H	1.638364	0.837046	-1.571387
H	0.727823	1.164657	-2.972392
N	-0.585611	-1.208525	0.569758
H	-0.011478	-1.992202	0.276118
H	-0.454002	-1.135918	1.573922
C	-0.508138	1.220965	0.745258
H	-0.207933	2.137733	0.238668
H	-0.069229	1.230432	1.747709
H	-1.599271	1.189584	0.837887
H	2.882559	0.0	0.0
