18

C	-0.402957	-0.008006	-1.449994
C	0.0	0.0	0.0
Cl	-2.371778	0.198577	-1.554753
H	1.093058	0.0	0.0
N	0.034492	1.19646	-2.276613
O	0.498508	2.168332	-1.699288
O	-0.091819	1.085288	-3.494096
N	0.013364	-1.11434	-2.147921
H	-0.292933	-1.140132	-3.107884
H	-0.11005	-1.972174	-1.636404
N	-0.325817	-1.273779	0.638047
H	0.438373	-1.928038	0.514111
H	-1.213963	-1.659819	0.341561
C	-0.549852	1.128712	0.851747
H	-0.470206	2.101102	0.372067
H	-1.593668	0.937472	1.112629
H	0.041799	1.141757	1.769141
H	2.75803	0.0	0.0
