17

C	0.0	0.0	0.0
C	-0.227046	0.000137	-1.56726
Cl	1.763156	0.0	0.0
H	0.385717	-0.829118	-1.914849
C	-0.529785	1.097269	0.788804
N	-0.636292	2.03283	1.495508
N	-0.441068	-1.329069	0.584215
O	-0.506859	-2.276455	-0.189437
O	-0.556674	-1.378233	1.796981
N	0.470645	1.210293	-2.134159
O	0.161843	2.312702	-1.690404
O	1.253439	1.018972	-3.065804
C	-1.563687	-0.053283	-2.278337
H	-1.341981	-0.097524	-3.353719
H	-2.17409	0.804193	-2.025694
H	-2.102845	-0.938323	-1.962228
F	-2.292556	0.0	0.0
