17

C	0.0	0.0	0.0
C	-0.224621	-0.1522	-1.558167
Cl	1.770908	0.0	0.0
H	0.421747	-0.984701	-1.83076
C	-0.522565	1.166539	0.686479
N	-0.624359	2.161326	1.308484
N	-0.433103	-1.268922	0.707931
O	-0.495965	-2.284599	0.026295
O	-0.54169	-1.205172	1.92155
N	0.425628	1.027967	-2.233617
O	1.23883	0.783985	-3.127128
O	0.049813	2.152362	-1.911429
C	-1.555449	-0.330709	-2.261126
H	-2.043642	-1.224493	-1.888691
H	-2.213642	0.508009	-2.068538
H	-1.321323	-0.438191	-3.329907
F	-2.281837	0.0	0.0
