17

C	0.0	0.0	0.0
C	-0.215996	-0.08472	-1.5588
Cl	1.791764	0.0	0.0
H	0.423528	-0.911663	-1.863651
C	-0.514009	1.134426	0.743367
N	-0.635932	2.109291	1.390936
N	-0.423728	-1.304396	0.650995
O	-0.553525	-1.296387	1.863341
O	-0.46426	-2.289924	-0.076011
N	0.439711	1.112123	-2.198988
O	1.097759	0.893136	-3.217419
O	0.212256	2.225152	-1.735443
C	-1.550008	-0.230552	-2.263226
H	-1.325042	-0.292012	-3.335939
H	-2.206132	0.597762	-2.02369
H	-2.035713	-1.136933	-1.921452
F	-2.276683	0.0	0.0
