17

C	0.0	0.0	0.0
C	-0.500942	-0.126209	-1.456426
Cl	1.798558	0.0	0.0
H	-1.597765	-0.165582	-1.290346
C	-0.471726	1.249677	0.581083
N	-0.594032	2.343083	0.999694
N	-0.456693	-1.161728	0.8664
O	-0.633059	-2.226866	0.297602
O	-0.493369	-0.954783	2.070491
N	-0.111356	-1.386584	-2.166869
O	1.056179	-1.768503	-2.168057
O	-1.01528	-1.921113	-2.807438
C	-0.054512	1.035274	-2.328403
H	1.031111	1.071205	-2.439968
H	-0.405294	1.974654	-1.900467
H	-0.510103	0.923072	-3.314747
F	-2.493728	0.0	0.0
