17

C	0.0	0.0	0.0
C	-0.496638	0.129518	-1.470019
Cl	1.784658	0.0	0.0
H	-1.31053	-0.571368	-1.561064
C	-0.450824	1.087399	0.857258
N	-0.564257	2.041393	1.535443
N	-0.40914	-1.330844	0.623985
O	-0.437762	-1.358263	1.84511
O	-0.544571	-2.279568	-0.129538
N	0.5494	-0.312943	-2.472322
O	0.526446	-1.495089	-2.813492
O	1.316206	0.530313	-2.939985
C	-0.942723	1.531767	-1.82138
H	-1.225103	1.565635	-2.877118
H	-1.814103	1.718267	-1.197227
H	-0.153877	2.265132	-1.653946
F	-2.353704	0.0	0.0
