15

C	-0.396801	0.045454	-1.488253
C	0.0	0.0	0.0
F	-1.78139	0.178041	-1.590289
H	1.097391	0.0	0.0
C	0.274526	1.210232	-2.187563
H	-0.081002	2.143003	-1.744427
H	1.357192	1.132928	-2.055464
H	0.017885	1.196145	-3.247868
C	-0.044032	-1.23163	-2.135741
N	0.1848	-2.231641	-2.70762
C	-0.521935	-1.188553	0.668542
N	-0.948911	-2.148101	1.194307
C	-0.468474	1.211267	0.671423
N	-0.840314	2.194712	1.194561
Br	3.316753	0.0	0.0
