15

C	-0.474528	0.02098	-1.473
C	0.0	0.0	0.0
F	0.035356	-1.113829	-2.07565
H	1.096906	0.0	0.0
C	-1.985035	-0.002494	-1.628595
H	-2.432887	0.885061	-1.17911
H	-2.379021	-0.897436	-1.143621
H	-2.235251	-0.031478	-2.69047
C	0.076394	1.204784	-2.158246
N	0.405358	2.160757	-2.755491
C	-0.486803	-1.213098	0.653901
N	-0.898557	-2.187598	1.164289
C	-0.485431	1.186858	0.699425
N	-0.888385	2.150954	1.236513
Br	3.304551	0.0	0.0
