15

C	-0.390775	-0.029158	-1.49736
C	0.0	0.0	0.0
F	-0.017437	1.193246	-2.030548
H	1.09736	0.0	0.0
C	0.354803	-1.130496	-2.222566
H	1.422357	-0.995754	-2.029782
H	0.148817	-1.056802	-3.291964
H	0.040399	-2.111577	-1.861737
C	-1.853353	-0.149167	-1.666048
N	-3.013157	-0.27024	-1.808782
C	-0.468179	-1.213177	0.665136
N	-0.836613	-2.204917	1.175725
C	-0.519842	1.193054	0.661777
N	-0.951835	2.149735	1.188258
Br	3.342984	0.0	0.0
