11
Coordinates from ORCA-job run
  C   0.49235626703919     -0.10501390930504     -0.00419050829331
  C   -0.77207881730951      0.05827950099072     -0.42193509022954
  H   -1.05752383530525     -0.05079692496249     -1.45962531198824
  N   1.50457134867789     -0.49729447416986     -1.03515533528583
  O   1.11974287852826     -0.57472764589881     -2.19307628365918
  O   2.63514905355338     -0.71348544209496     -0.61544008797971
  C   1.00450661725991      0.04137735343582      1.31234475816087
  N   1.47973747127541      0.15995457821561      2.38346754167931
  N   -1.85391689835757      0.45670155678777      0.46613418893628
  O   -2.86003879515040      0.87171535341869     -0.11078253266543
  O   -1.69250529021132      0.35229005358255      1.67925866132479
