11
Coordinates from ORCA-job run
  C   0.49559679862281     -0.08092426643512     -0.02388613991854
  C   -0.81065768047816     -0.15125288809845     -0.32016141078363
  H   -1.17990383890053     -0.65223431618172     -1.20507656676420
  N   1.44510748517447     -0.77358801042955     -0.94954825208275
  O   0.96856604173786     -1.29867584121072     -1.94562777259769
  O   2.62369101640527     -0.75406178500017     -0.61531190073214
  C   1.10355924791756      0.58004993474453      1.07640247853719
  N   1.65217357608272      1.12915458576254      1.96224312530450
  N   -1.83257162466423      0.50306993281414      0.48296228962018
  O   -1.58418385542441      0.76164046316990      1.65773459422110
  O   -2.88037716647337      0.73782219086462     -0.11973044480401
