11
Coordinates from ORCA-job run
  C   0.50184123414142     -0.00957771449816     -0.04939641449445
  C   -0.79742502147879     -0.18225196134645     -0.33410128585284
  H   -1.13595105920843     -0.77989897610230     -1.17001490848361
  N   1.49108534641196     -0.67952196432762     -0.94758554015389
  O   1.06125877082453     -1.17193271076220     -1.98092237991047
  O   2.65154520053116     -0.68116892572283     -0.55374667991938
  C   1.06672824344401      0.71736048629163      1.03220085232785
  N   1.57805403614357      1.29933677653634      1.91929830752425
  N   -1.86205310614278      0.36652696149831      0.49284985052209
  O   -2.94160770098094     -0.21575344165556      0.38574006852573
  O   -1.61447594368571      1.33588147008885      1.20567812991472
