11
Coordinates from ORCA-job run
  C   0.57372066484142      0.25366375982110      0.12272841971238
  C   -0.68501671263154      0.46226336306265      0.53264279992200
  H   -0.95646394757848      1.25375866408536      1.22020167798082
  N   0.94224399916935     -0.79438180560197     -0.85542364589168
  O   1.71101571390133     -1.64880323856967     -0.43575393097437
  O   0.47462724909213     -0.67764875599570     -1.97904498344298
  C   1.66797962454677      1.01987112651906      0.61014971152915
  N   2.56585237599095      1.66897807043295      1.00852864179294
  N   -1.80922672289248     -0.32339604665480      0.04206774599164
  O   -2.86727943786912      0.29479927327456     -0.05507805518545
  O   -1.61645280657031     -1.50910441037355     -0.21101838143445
