11
Coordinates from ORCA-job run
  C   0.56321807940417      0.27060064294821      0.07613066629355
  C   -0.70032458241016      0.51437528458664      0.45502695697365
  H   -0.97244572896529      1.36401973348120      1.06877274608100
  N   0.97713645616292     -0.88529358544488     -0.75227664990158
  O   1.07539327350029     -0.66195476648482     -1.94937045742425
  O   1.23041024831978     -1.91224186187392     -0.14096682390263
  C   1.63437621873717      1.12931877089389      0.44680446892805
  N   2.52610479058125      1.83534550220360      0.75246699672238
  N   -1.82109793330422     -0.34201442730597      0.09824527541821
  O   -1.62016815770926     -1.26614106878060     -0.68557749677710
  O   -2.89060266431664     -0.04601422422335      0.63074431758871
