11
Coordinates from ORCA-job run
  C   0.55090097397800      0.31715182621128      0.01924585956368
  C   -0.72803599759837      0.59655106271241      0.29682216104763
  H   -1.05480294069962      1.55207409344162      0.68768862060886
  N   1.00822338745595     -1.00371773767894     -0.47126860417947
  O   0.87779097868503     -1.94011865280172      0.30389611145830
  O   1.49603382165231     -1.00227064170570     -1.59334969268121
  C   1.59166803974944      1.27629348683400      0.15767385537540
  N   2.47116037161458      2.04641122863948      0.29721430182276
  N   -1.79561349831562     -0.37782068504142      0.13629651020856
  O   -1.68686970486522     -1.20635991272956     -0.76255809963339
  O   -2.73045543165649     -0.25919406788145      0.92733897640889
