11
Coordinates from ORCA-job run
  C   0.57212837171118      0.24782075118073      0.15431648910912
  C   -0.70222555360819      0.48703151471843      0.49115147702261
  H   -0.99223941162768      1.28077362049656      1.16908550923776
  N   0.96112532787497     -0.81309427557299     -0.80319132050978
  O   0.51900793517349     -0.71791017265171     -1.93974680527219
  O   1.70694850139181     -1.67083786329392     -0.34817029949472
  C   1.66018307675934      0.98523195724101      0.69567892802867
  N   2.55802438802672      1.60213768052697      1.14201038469632
  N   -1.80925571365191     -0.28551270363872     -0.05489793743505
  O   -1.63678480681408     -1.48135861212944     -0.26967065607537
  O   -2.83791211523563      0.36271810312309     -0.23656576930737
