11
Coordinates from ORCA-job run
  C   0.54374073296022      0.29736569343916      0.10505871598674
  C   -0.76280948151053      0.56479032709733      0.25046918672947
  H   -1.12607039357089      1.50827726949929      0.63819967103339
  N   1.08214128178316     -0.97757588567984     -0.42284409876443
  O   1.33339821271809     -1.83001165747242      0.41542157950956
  O   1.26984410660033     -1.01035180067846     -1.62950703761146
  C   1.54541301462341      1.24456757638174      0.45444090285836
  N   2.38246155457840      2.02340131363896      0.73708110003717
  N   -1.81566022869990     -0.37686133281938     -0.09821424521642
  O   -1.49038677233440     -1.47245926406469     -0.54837884794438
  O   -2.96107202714790      0.02885776065831      0.09827307338200
