11
Coordinates from ORCA-job run
  C   0.48594870288078      0.03180761683516     -0.12442084900734
  C   -0.72901380835593     -0.49315775749833      0.09275182258058
  H   -0.91989564498896     -1.55692235841006      0.04435689630269
  N   1.58487695801652     -0.91458741650457     -0.49158202802867
  O   2.66746401158280     -0.40035765680931     -0.74568796082622
  O   1.31007982153653     -2.10579853482284     -0.51242536308783
  C   0.86887324044804      1.39737017656120     -0.04776237194308
  N   1.23408812940395      2.51486097865197      0.02283208549801
  N   -1.87303313819755      0.31664281848002      0.48331193808115
  O   -1.87775315193876      1.51019042160123      0.19316734153890
  O   -2.75163512038742     -0.30104828808447      1.08545848889181
