11
Coordinates from ORCA-job run
  C   0.47538663656601      0.01785820394485     -0.16516555713850
  C   -0.73397465918841     -0.47783257859217      0.13514608409197
  H   -0.95940639460353     -1.53509558734003      0.08944141539831
  N   1.52066896803588     -0.94899639117871     -0.61932595748259
  O   1.20896067306528     -2.13074676069756     -0.65220912169077
  O   2.60139445753476     -0.45970912041332     -0.92581562591028
  C   0.89570720328849      1.37267148220319     -0.09279388381194
  N   1.28421191851528      2.48210937422257     -0.02027953045995
  N   -1.81952022546333      0.36070799122983      0.62136315409613
  O   -1.84430483796010      1.54303342184839      0.28972338165761
  O   -2.62912373979033     -0.22400003522704      1.34091564125002
