11
Coordinates from ORCA-job run
  C   0.49439842963497     -0.08822179679685     -0.01695055474072
  C   -0.80790888815417     -0.15155572517937     -0.33203609760900
  H   -1.16419462182385     -0.64559831422688     -1.22667933855107
  N   1.45468859508761     -0.79267559191061     -0.92067747276418
  O   0.99196001487055     -1.31646764596192     -1.92435363588875
  O   2.62642119515269     -0.78454251638268     -0.56222557742449
  C   1.08426397464550      0.58292852315488      1.08901143272048
  N   1.62129627655861      1.14948332185931      1.97038112546666
  N   -1.83397509263312      0.51465218921968      0.45465617699503
  O   -2.85543317932683      0.79345824303059     -0.17246844260357
  O   -1.61151670401193      0.73953931319387      1.64134238439961
