11
Coordinates from ORCA-job run
  C   0.56625703283383      0.24780583822734      0.14446567197165
  C   -0.71484947655374      0.53515742549155      0.41552411163523
  H   -1.01383701405025      1.39940912077341      0.99547186147824
  N   0.98904905140228     -0.90964482237582     -0.67752718798015
  O   1.54003566553606     -1.80811930699430     -0.05783386956438
  O   0.78626520259822     -0.82367822680336     -1.87951452029822
  C   1.64103044947615      1.03348655643333      0.64373492225044
  N   2.53315847503297      1.68490889372072      1.05188674599695
  N   -1.82383294211268     -0.26152779409770     -0.08884383379097
  O   -1.60923541175023     -1.43602774332893     -0.37646940884159
  O   -2.89504103241262      0.33723005895380     -0.17089449285720
