11
Coordinates from ORCA-job run
  C   0.49996802840413     -0.05690743213012      0.01171156730012
  C   -0.78303082064878     -0.43735742883722      0.04972179640718
  H   -1.09399866832981     -1.47577031608252      0.03561581346885
  N   1.54896005598557     -1.10266532141905     -0.06839528993686
  O   1.19864939496658     -2.24831911869761      0.18471905366569
  O   2.66478363774280     -0.72788477306870     -0.40984457978883
  C   0.96295530441217      1.28725650694550     -0.00458704785496
  N   1.37857373416203      2.38878268979291     -0.02214471496702
  N   -1.85210399856353      0.55040474818268      0.07109834015855
  O   -1.82724725222109      1.39572941216954      0.96226943294932
  O   -2.69650941591008      0.42673103314461     -0.81016437140203
