11
Coordinates from ORCA-job run
  C   0.49637027392661     -0.07116824947799     -0.03486766305579
  C   -0.81665683253314     -0.21189015543350     -0.26940461856676
  H   -1.20117725582725     -0.81271781169660     -1.08276723564202
  N   1.43575965854749     -0.82044917419767     -0.92576078961515
  O   0.93914330549598     -1.50056850019919     -1.81215270305874
  O   2.62780974191744     -0.68386813221048     -0.67778498312145
  C   1.11898696253123      0.72012162670212      0.96693606998129
  N   1.67561357653743      1.37549174373386      1.77177069403602
  N   -1.82833305401713      0.49205550359218      0.50411702485795
  O   -2.89302361149786      0.66519167805387     -0.08937362268636
  O   -1.55549276508081      0.84580147113340      1.64828782687100
