11
Coordinates from ORCA-job run
  C   0.55456550249222      0.33280400783858      0.06666229569022
  C   -0.63797941184776      0.28262684295342      0.67447313032473
  H   -0.87738039363466      0.87833298459107      1.54704381750429
  N   0.87997569830342     -0.51531541662659     -1.10375209404179
  O   0.39951124568500     -1.64076851032370     -1.11945474504812
  O   1.61157334303966      0.00120220939214     -1.94037288625287
  C   1.59819973075533      1.19672301472925      0.50208365613283
  N   2.45330713788209      1.89667578920979      0.90766203085201
  N   -1.71828174515853     -0.60170062186175      0.24388213058675
  O   -2.17722548398373     -0.43284252761152     -0.87884236703408
  O   -2.08726562353304     -1.39873777229071      1.09861503128602
