11
Coordinates from ORCA-job run
  C   0.55271112353738      0.29715403883693      0.11235722023661
  C   -0.66406297537860      0.26582876213265      0.67196225026285
  H   -0.91602725247046      0.83863809904055      1.55458617950133
  N   0.91450836235900     -0.48702283599097     -1.09243885298765
  O   1.26183441032700      0.18915887868067     -2.05156308711455
  O   0.85639323079575     -1.70379556292056     -1.00155750154486
  C   1.59971791379629      1.11663704059224      0.61754984110639
  N   2.46960668271230      1.78324799201583      1.04887930244575
  N   -1.74757381333750     -0.56172162325376      0.16331960699930
  O   -1.82259853788503     -0.73629927783697     -1.04983545590425
  O   -2.50450914445614     -1.00182551129662      1.02574049699907
