11
Coordinates from ORCA-job run
  C   0.56331513675389      0.26974565568859      0.07003445912971
  C   -0.68119366785912      0.46617996131889      0.53069950272237
  H   -0.92878337048487      1.26260246495659      1.22157340291016
  N   0.94546592137153     -0.81012115905036     -0.86905061568150
  O   1.28027032806682     -1.86535549451164     -0.35251408721656
  O   0.94016915692919     -0.50332271382430     -2.05156189248957
  C   1.64510535063189      1.10840538445526      0.45591068093792
  N   2.54585713975168      1.79860084725150      0.77130486956516
  N   -1.81245246674659     -0.37053506950744      0.16113688508810
  O   -1.62982524898646     -1.26544340135153     -0.66019370913215
  O   -2.87092827942796     -0.09075647542555      0.72366050416635
