11
Coordinates from ORCA-job run
  C   0.48969035651543     -0.10889963815360     -0.03652119730609
  C   -0.80722431988519     -0.00453565702923     -0.36229055186364
  H   -1.17697736838099     -0.22415786577550     -1.35493213536903
  N   1.42638898016507     -0.58753125803942     -1.10016892660158
  O   2.60054678942778     -0.69435937420261     -0.76718991377701
  O   0.94486992713235     -0.83145399518883     -2.19725474095565
  C   1.09864662288137      0.18950416992662      1.21153261763737
  N   1.64794219389887      0.43904571978794      2.22302410466307
  N   -1.81272686493971      0.48193751037605      0.57060006127866
  O   -1.59313248521408      0.39132583549542      1.77563130571883
  O   -2.81802383160091      0.95012455280317      0.03556937657506
