11
Coordinates from ORCA-job run
  C   0.54154822357269      0.34302316693268      0.02654303621782
  C   -0.76925819386676      0.59889461226396      0.13404590435632
  H   -1.16457407916837      1.59601325348277      0.28316161799906
  N   1.07747793002648     -1.01609928289118     -0.21731134850940
  O   0.70805834996716     -1.57704461149933     -1.23875676487620
  O   1.86147924185192     -1.42064222567113      0.63110276310434
  C   1.52983853938394      1.35729078574757      0.15468375691326
  N   2.34304824153965      2.20280990919840      0.25558467683612
  N   -1.78137452755784     -0.44294406286046      0.01936211657746
  O   -1.53189898836192     -1.54453507716713      0.49960003167922
  O   -2.81434473738696     -0.09476646753616     -0.54801579029800
