11
Coordinates from ORCA-job run
  C   0.54213713096494      0.32999696846774      0.02255279125773
  C   -0.69720944617394      0.46750023489432      0.51474900109249
  H   -0.98826536589609      1.29097981478374      1.15467809001413
  N   0.96411606519910     -0.80964487040384     -0.82480503905317
  O   1.10826813422285     -1.88218330193612     -0.25739795415610
  O   1.16512360129050     -0.53327102569097     -1.99862320928936
  C   1.56444527812029      1.28839574025239      0.26355844461625
  N   2.41379286732179      2.07862884509587      0.46611077218495
  N   -1.75298999247871     -0.50473740518717      0.27275152730880
  O   -1.66849311566706     -1.21498123633808     -0.72567708550960
  O   -2.65192515690368     -0.51168376393789      1.11210266153388
