11
Coordinates from ORCA-job run
  C   0.49728866163737     -0.00615037744601     -0.07244900780533
  C   -0.81028027767682     -0.21582359371945     -0.28478749164592
  H   -1.17660041871627     -0.85535337050656     -1.07664510426009
  N   1.45829613203230     -0.67694919718960     -1.00233353141478
  O   2.64566927795635     -0.52922073281580     -0.73865530026172
  O   0.98158834454081     -1.30728215414492     -1.93524013930180
  C   1.09700485922172      0.77155628931950      0.95355978407251
  N   1.63757054546236      1.39648533199762      1.79284267154997
  N   -1.84132054836750      0.34388235420704      0.57636997837931
  O   -1.58624951776821      1.35942662108633      1.21828619557950
  O   -2.90296705832212     -0.27957117078815      0.57005194510834
