11
Coordinates from ORCA-job run
  C   0.53959498755967      0.33549302617781      0.01432719099522
  C   -0.69799751742566      0.47016168175776      0.51149135224406
  H   -0.99168730567777      1.30085062229135      1.14108535450521
  N   0.96512497628158     -0.81438104287585     -0.81703757966451
  O   1.09375692375105     -1.88354760413306     -0.23934482946424
  O   1.18290252751648     -0.54936839069907     -1.99066752719344
  C   1.55506262348251      1.30610232416826      0.23430696546155
  N   2.39927245897609      2.10591278736569      0.41991548874107
  N   -1.74627273324297     -0.51496041115519      0.28949199930757
  O   -1.67564042138331     -1.21930796995188     -0.71411907419682
  O   -2.62511651983767     -0.53695502294582      1.14955065926433
