11
Coordinates from ORCA-job run
  C   0.49144605747531     -0.00436986140710     -0.10883962033123
  C   -0.79630668840077     -0.37648518292531     -0.05174286404742
  H   -1.14098408652833     -1.33108971113028     -0.42648362874102
  N   1.44907316341482     -0.95901817990269     -0.75155204538224
  O   2.61773012631245     -0.59369768248540     -0.79295119379940
  O   0.98812062149615     -2.00821602954283     -1.17769427182360
  C   1.07526077067443      1.19828786230780      0.37049103916016
  N   1.60972469179112      2.17330357716141      0.75908161411911
  N   -1.82883414465874      0.43967884717722      0.56928947347001
  O   -2.86612998433533     -0.16789608852879      0.83773258859185
  O   -1.60010052724111      1.62950244927597      0.77166890878378
