18

C	-0.418779	-0.010765	-1.484232
C	0.0	0.0	0.0
Cl	0.178234	1.491332	-2.265756
H	1.095724	0.0	0.0
C	0.185609	-1.185292	-2.243257
H	1.257862	-1.195783	-2.04562
H	-0.259834	-2.123728	-1.912696
H	0.014954	-1.072921	-3.314717
C	-1.878283	-0.001649	-1.588698
N	-3.051636	-0.04112	-1.627847
C	-0.457893	-1.265268	0.725278
H	-0.009516	-2.171113	0.315624
H	-1.549691	-1.366945	0.707881
H	-0.134028	-1.188147	1.765733
N	-0.493319	1.211157	0.637211
H	0.228355	1.585781	1.240001
H	-1.314252	1.012591	1.197602
Br	3.626604	0.0	0.0
