18

C	-0.419699	-0.013676	-1.47572
C	0.0	0.0	0.0
Cl	0.107675	1.536337	-2.251235
H	1.102813	0.0	0.0
C	0.255188	-1.147725	-2.241887
H	-0.143167	-2.110992	-1.915941
H	1.329025	-1.104228	-2.039501
H	0.073559	-1.041033	-3.312493
C	-1.87875	-0.074796	-1.611851
N	-3.041242	-0.195297	-1.737487
C	-0.482205	-1.252641	0.718607
H	-0.043381	-2.156553	0.295795
H	-0.151283	-1.202235	1.759993
H	-1.574019	-1.324764	0.705526
N	-0.581684	1.170421	0.663208
H	-0.376678	1.083726	1.653205
H	-0.072405	1.990488	0.350008
Br	3.619359	0.0	0.0
