18

C	-0.327529	0.03943	-1.513157
C	0.0	0.0	0.0
Cl	-2.122854	0.291456	-1.766114
H	1.098167	0.0	0.0
C	0.419331	1.164489	-2.213403
H	1.488883	1.028011	-2.023665
H	0.218589	1.158116	-3.286088
H	0.100552	2.121678	-1.799401
C	-0.021579	-1.238066	-2.157588
N	0.209008	-2.260734	-2.689219
C	-0.550109	-1.227668	0.700591
H	-0.203314	-1.204411	1.734161
H	-1.64496	-1.222306	0.701798
H	-0.199025	-2.151406	0.236053
N	-0.396854	1.210002	0.706266
H	0.300494	1.929145	0.573744
H	-1.297007	1.549011	0.391591
Br	3.560031	0.0	0.0
