18

C	-0.408488	-0.031565	-1.480704
C	0.0	0.0	0.0
Cl	0.039836	1.544806	-2.255191
H	1.103027	0.0	0.0
C	0.336487	-1.124468	-2.240576
H	1.404554	-1.014837	-2.035154
H	0.150211	-1.034122	-3.311962
H	0.000591	-2.109532	-1.910641
C	-1.859977	-0.172898	-1.629266
N	-3.013651	-0.353618	-1.765398
C	-0.475424	-1.251888	0.72566
H	-1.568021	-1.310654	0.739808
H	-0.060175	-2.159877	0.287919
H	-0.115691	-1.209567	1.757918
N	-0.59514	1.166723	0.653992
H	-0.08591	1.990737	0.351394
H	-0.41042	1.07966	1.648138
Br	3.625977	0.0	0.0
