18

C	-0.469549	0.001313	-1.480683
C	0.0	0.0	0.0
Cl	0.376564	-1.299463	-2.394903
H	1.095471	0.0	0.0
C	-1.971153	-0.221981	-1.654099
H	-2.240297	-1.213628	-1.290784
H	-2.536228	0.530949	-1.097603
H	-2.244307	-0.148538	-2.707984
C	-0.117441	1.279692	-2.106525
N	0.07056	2.326906	-2.605686
C	-0.495068	-1.223247	0.755697
H	-0.288422	-2.148574	0.21446
H	0.036439	-1.254971	1.707119
H	-1.567883	-1.159332	0.967817
N	-0.400987	1.208448	0.710511
H	-1.36137	1.471555	0.525039
H	0.208166	1.975115	0.453235
Br	3.589572	0.0	0.0
