18

C	-0.469982	-0.051588	-1.480755
C	0.0	0.0	0.0
Cl	0.365279	-1.392245	-2.34511
H	1.094911	0.0	0.0
C	-1.973887	-0.268798	-1.645206
H	-2.24459	-0.238144	-2.702257
H	-2.532691	0.514133	-1.122818
H	-2.253246	-1.242169	-1.239858
C	-0.106486	1.199813	-2.153414
N	0.105717	2.226522	-2.685136
C	-0.494329	-1.194344	0.800568
H	0.038638	-1.191627	1.752154
H	-0.288925	-2.13855	0.292829
H	-1.567316	-1.122991	1.011735
N	-0.402102	1.230581	0.668233
H	-1.374384	1.463652	0.50536
H	0.182097	1.998996	0.362646
Br	3.600771	0.0	0.0
