18

C	-0.411172	-0.022543	-1.480003
C	0.0	0.0	0.0
Cl	0.044688	1.554444	-2.245567
H	1.103015	0.0	0.0
C	0.326588	-1.115985	-2.246613
H	-0.01275	-2.10074	-1.919704
H	1.395798	-1.011623	-2.044002
H	0.137898	-1.020563	-3.317098
C	-1.863644	-0.154894	-1.625094
N	-3.019441	-0.334181	-1.740723
C	-0.475514	-1.255081	0.719885
H	-0.059195	-2.16086	0.278579
H	-0.11609	-1.216762	1.752355
H	-1.56796	-1.314741	0.733498
N	-0.592255	1.164894	0.660557
H	-0.406844	1.071754	1.653774
H	-0.080543	1.988672	0.361786
Br	3.623628	0.0	0.0
