18

C	-0.359084	-0.036001	-1.514198
C	0.0	0.0	0.0
Cl	0.11132	1.538172	-2.269043
H	1.09667	0.0	0.0
C	0.402731	-1.134265	-2.248633
H	0.256279	-1.046777	-3.3267
H	1.463635	-1.026426	-2.004813
H	0.053532	-2.116845	-1.926587
C	-1.807432	-0.162187	-1.696003
N	-2.973027	-0.287245	-1.789185
C	-0.488948	-1.262326	0.700177
H	-0.07575	-2.170569	0.259513
H	-0.150949	-1.205819	1.735265
H	-1.583021	-1.328246	0.697288
N	-0.484519	1.157915	0.724972
H	0.045566	1.974106	0.450185
H	-1.464361	1.327273	0.521994
Br	3.612512	0.0	0.0
