18

C	-0.473656	0.092014	-1.476774
C	0.0	0.0	0.0
Cl	0.39067	-1.130766	-2.477441
H	1.093744	0.0	0.0
C	-1.972449	-0.143127	-1.660444
H	-2.223527	-1.162478	-1.368046
H	-2.547288	0.558346	-1.049034
H	-2.251746	0.000997	-2.705473
C	-0.145799	1.415634	-2.013213
N	0.01216	2.50623	-2.423162
C	-0.487828	-1.27268	0.674808
H	-1.560488	-1.228973	0.893041
H	0.04625	-1.364084	1.620709
H	-0.277276	-2.158927	0.073571
N	-0.405579	1.156272	0.789254
H	-1.369329	1.422135	0.625912
H	0.195444	1.943119	0.578888
Br	3.598187	0.0	0.0
