18

C	0.0	0.0	0.0
C	-0.663384	-0.076433	-1.368987
Cl	1.793824	0.0	0.0
H	-1.789251	-0.115624	-1.01191
C	-0.371427	1.303169	0.583611
N	-0.546279	2.358324	1.069518
C	-0.446683	-1.095117	0.966609
H	-0.086854	-0.856437	1.971959
H	-0.051665	-2.0579	0.654738
H	-1.543234	-1.096564	0.940199
N	-0.335162	-1.339851	-2.045485
O	0.28387	-1.290784	-3.119046
O	-0.73494	-2.396128	-1.541726
C	-0.393297	1.113924	-2.260275
H	-0.830933	1.999485	-1.801475
H	0.673433	1.274204	-2.425114
H	-0.866406	0.961841	-3.230376
H	-2.963089	0.0	0.0
