18

C	0.0	0.0	0.0
C	-0.444552	0.107548	-1.484596
Cl	1.796341	0.0	0.0
H	-0.316173	-0.883253	-1.92565
C	-0.387143	1.191445	0.764818
N	-0.66988	2.111711	1.436556
C	-0.605334	-1.239145	0.630886
H	-1.701163	-1.133459	0.606271
H	-0.295792	-2.125834	0.073358
H	-0.273901	-1.33147	1.666954
N	0.505863	0.969741	-2.269345
O	1.037245	0.466323	-3.26114
O	0.653469	2.132577	-1.903684
C	-1.835103	0.660722	-1.682377
H	-2.619331	0.236665	-0.994671
H	-2.154847	0.480287	-2.712924
H	-1.828708	1.735617	-1.489068
H	-3.958035	0.0	0.0
