18

C	0.0	0.0	0.0
C	-0.465395	0.045159	-1.48189
Cl	1.796267	0.0	0.0
H	-0.39825	-0.973897	-1.871014
C	-0.375512	1.228613	0.711216
N	-0.633919	2.188411	1.338056
C	-0.607273	-1.205099	0.692831
H	-0.27947	-1.24449	1.733552
H	-1.702899	-1.100505	0.65874
H	-0.29757	-2.119526	0.182245
N	0.507632	0.816945	-2.33213
O	1.015065	0.22365	-3.286773
O	0.696764	1.997964	-2.051083
C	-1.832682	0.652037	-1.680323
H	-1.783761	1.728776	-1.49679
H	-2.628954	0.253301	-0.99152
H	-2.158645	0.477265	-2.710642
H	-3.966583	0.0	0.0
