18

C	0.0	0.0	0.0
C	-0.591195	-0.061517	-1.409211
Cl	1.792714	0.0	0.0
H	-1.702953	-0.101065	-1.160828
C	-0.390505	1.292273	0.589071
N	-0.557725	2.344032	1.086962
C	-0.483568	-1.126606	0.902614
H	-0.09052	-2.081213	0.558119
H	-1.581864	-1.102203	0.841531
H	-0.149551	-0.940884	1.925618
N	-0.213938	-1.342218	-2.058884
O	-0.785125	-2.368009	-1.677762
O	0.627845	-1.318645	-2.966181
C	-0.21746	1.10679	-2.292847
H	-0.656341	0.977524	-3.283563
H	0.863273	1.19868	-2.408447
H	-0.618909	2.022651	-1.85611
H	-3.033089	0.0	0.0
