18

C	0.0	0.0	0.0
C	-0.225485	0.051008	-1.557714
Cl	1.792491	0.0	0.0
H	0.350844	-0.792552	-1.942024
C	-0.677351	1.030115	0.782996
N	-0.678159	1.914573	1.581203
C	-0.302016	-1.40803	0.549277
H	-1.3766	-1.551067	0.589361
H	0.177365	-2.158132	-0.08602
H	0.132317	-1.480113	1.551312
N	0.502704	1.238509	-2.136913
O	1.31499	1.020139	-3.037253
O	0.188521	2.351809	-1.727837
C	-1.576837	0.075336	-2.25583
H	-2.158883	-0.803562	-1.996741
H	-2.15713	0.943672	-1.962514
H	-1.368074	0.08899	-3.3385
H	-2.334602	0.0	0.0
