13
Coordinates from ORCA-job run
  C   -0.66367465742975      0.04804899551768      0.43039963279048
  C   0.81354893561911      0.40612623862868      0.15497157093265
  H   -0.68843800005273     -0.79431393521684      1.12686765542756
  H   0.85041782368615      1.26967459007472     -0.52106241520152
  H   -1.11582378868192      0.90415638137883      0.93912600236082
  C   -1.41774546147745     -0.28205543220065     -0.85134391980060
  H   -2.46474039059717     -0.49546176606903     -0.62875818272174
  H   -1.38972920310414      0.55547774023206     -1.55326058941974
  H   -0.99586004975307     -1.15838363072413     -1.34742081302262
  C   1.51240794248162     -0.70447042743496     -0.50385334228307
  N   2.03102453756162     -1.60746316161005     -1.04557647850208
  C   1.50685624640379      0.77610304615941      1.39456227371272
  N   2.02075606534395      1.08256136126431      2.40434860572714
