13
Coordinates from ORCA-job run
  C   -0.60243457101633     -0.07502735213052      0.51152366108145
  C   0.80021549578429      0.44080761894432      0.12036709565515
  H   -0.48351692674268     -1.02285319006648      1.04321784367626
  H   0.69401691081955      1.40854696921925     -0.38576493515638
  H   -1.02717629502170      0.64351277158209      1.21827022855363
  C   -1.50678028033560     -0.24073565283720     -0.70301163619105
  H   -1.10928857990623     -0.98373262361461     -1.39740278073437
  H   -1.62267725615803      0.70373524602289     -1.24112206153329
  H   -2.49957245175876     -0.57111614686119     -0.39200853127634
  C   1.46166362038692     -0.48148020180237     -0.81113300888116
  N   1.96689406775742     -1.24390758564197     -1.54682217432098
  C   1.63930946040649      0.64138867065113      1.30768772526648
  N   2.28734680578467      0.78186147653464      2.27619857386059
