13
Coordinates from ORCA-job run
  C   -0.55394907923359     -0.42156467314059      0.37930099644939
  C   0.89664195575525     -0.19173666067879     -0.09963848863742
  H   -0.64226611381592     -0.04285819255923      1.40096485658077
  H   1.00428727811967     -0.59594392264309     -1.11405324351471
  H   -0.71520301976787     -1.50253925612654      0.41782724654785
  C   -1.56932033803814      0.24550366327970     -0.53966784633575
  H   -2.58386608127785      0.03789763559336     -0.19439642637212
  H   -1.48152193813156     -0.12930177500116     -1.56292917454889
  H   -1.43770428819731      1.32932715071809     -0.55965685937972
  C   1.85512883678721     -0.88886586130515      0.76599653618300
  N   2.58956138916755     -1.47524741481858      1.46918524007652
  C   1.21390601192359      1.24074478555160     -0.15675586438658
  N   1.42330538670897      2.39458452113039     -0.20717697266236
