15

C	-0.598567	0.065557	-1.401315
C	0.0	0.0	0.0
Br	-0.101714	-1.648811	-2.244698
H	1.088699	0.0	0.0
H	-0.35861	-0.891958	0.51218
C	-2.123379	0.157187	-1.396072
H	-2.426092	1.118838	-0.97669
H	-2.535452	-0.65489	-0.792866
H	-2.512557	0.076091	-2.411608
C	-0.043663	1.119623	-2.249683
N	0.298614	1.950216	-3.010197
N	-0.436389	1.150521	0.833976
O	-0.575114	0.94116	2.036372
O	-0.59331	2.240485	0.286022
Cl	3.258291	0.0	0.0
