15

C	-0.452131	0.036338	-1.445745
C	0.0	0.0	0.0
Br	-2.435991	0.139104	-1.518699
H	1.093755	0.0	0.0
H	-0.3622	0.88445	0.521994
C	0.129868	1.295763	-2.084104
H	1.219271	1.237889	-1.998228
H	-0.227153	2.179095	-1.550975
H	-0.163735	1.365709	-3.132008
C	-0.070233	-1.127109	-2.243291
N	0.23036	-1.973521	-3.001782
N	-0.495327	-1.163476	0.767702
O	-0.517579	-2.256863	0.209047
O	-0.827439	-0.955992	1.933979
Cl	3.249024	0.0	0.0
