15

C	-0.613382	0.037464	-1.401389
C	0.0	0.0	0.0
Br	0.29451	-1.15937	-2.663445
H	1.092114	0.0	0.0
H	-0.357911	0.868036	0.555294
C	-2.106184	-0.295727	-1.399173
H	-2.525399	-0.150468	-2.395076
H	-2.249116	-1.335918	-1.104076
H	-2.624646	0.356963	-0.688444
C	-0.432268	1.391615	-1.922233
N	-0.373556	2.488645	-2.338474
N	-0.487884	-1.175241	0.763581
O	-0.304772	-2.291016	0.284176
O	-1.054679	-0.954057	1.836736
Cl	3.261294	0.0	0.0
