15

C	-0.46313	-0.152091	-1.453555
C	0.0	0.0	0.0
Br	-0.271386	1.654331	-2.238337
H	1.088854	0.0	0.0
H	-0.391523	0.8986	0.470589
C	0.411193	-1.104235	-2.263088
H	0.13699	-1.068204	-3.318849
H	0.276141	-2.115745	-1.881281
H	1.454602	-0.810613	-2.127075
C	-1.883868	-0.480943	-1.556003
N	-3.020183	-0.773168	-1.629083
N	-0.43859	-1.13383	0.85921
O	-0.574887	-0.890087	2.054702
O	-0.602206	-2.238962	0.341681
Cl	3.29479	0.0	0.0
