15

C	-0.473997	0.162662	-1.443777
C	0.0	0.0	0.0
Br	-0.103175	1.97711	-2.098264
H	1.107927	0.0	0.0
H	-0.370866	-0.961209	0.362884
C	0.314011	-0.826621	-2.301422
H	0.048402	-0.719108	-3.354104
H	0.081844	-1.844936	-1.975939
H	1.380675	-0.642707	-2.153063
C	-1.913713	-0.046223	-1.594252
N	-3.055912	-0.272284	-1.754028
N	-0.577371	1.020333	0.907567
O	-1.717479	0.794273	1.327709
O	0.089046	2.017818	1.167556
Cl	3.343558	0.0	0.0
