15

C	-0.594661	0.054471	-1.404336
C	0.0	0.0	0.0
Br	-0.113188	-1.676023	-2.224795
H	1.095317	0.0	0.0
H	-0.359491	-0.887484	0.520215
C	-2.11821	0.160469	-1.406224
H	-2.540692	-0.639171	-0.79378
H	-2.412534	1.130098	-1.000623
H	-2.504825	0.070844	-2.422103
C	-0.025135	1.091374	-2.26249
N	0.329088	1.912519	-3.025162
N	-0.438872	1.159306	0.820028
O	-0.58278	2.24582	0.258192
O	-0.597157	0.961342	2.022123
Cl	3.25689	0.0	0.0
