15

C	-0.594633	-0.084317	-1.402416
C	0.0	0.0	0.0
Br	-0.089036	-1.876639	-2.05898
H	1.106931	0.0	0.0
H	-0.355269	-0.834956	0.603217
C	-2.119711	-0.000633	-1.413509
H	-2.428351	0.997108	-1.096378
H	-2.503772	-0.187112	-2.417377
H	-2.531228	-0.748339	-0.731879
C	-0.039309	0.876026	-2.353982
N	0.302758	1.626602	-3.191056
N	-0.442746	1.230015	0.706224
O	-0.584156	1.151733	1.924372
O	-0.608285	2.253275	0.041487
Cl	3.257162	0.0	0.0
