15
Coordinates from ORCA-job run
  C   -0.30197985870753     -0.32686747734248     -0.40201635935460
  C   1.11632901928316      0.14879718512752      0.01925918604610
  Br  -0.06036503648802     -1.47355260697592     -1.97232310621666
  H   1.55961988512886      0.71018783759780     -0.81146742677304
  C   -1.16567743963436      0.85959418882133     -0.81283991854791
  H   -0.70635468085280      1.43938667217236     -1.61663824175031
  H   -2.13629765255871      0.50026636368957     -1.15863001364291
  H   -1.32549473392647      1.51220910102809      0.05089087401066
  N   -0.82583260177435     -1.15036902146702      0.66157135621199
  H   -1.65226051555113     -1.64849654063699      0.35352889446765
  H   -1.07928273428449     -0.56714939251000      1.45446489376210
  C   2.00021462647836     -0.97195515686517      0.35194651423183
  N   2.74712547443314     -1.83886333350086      0.61300951549848
  C   0.99415599451694      1.04532811669059      1.17637444151977
  N   0.83610025393740      1.76148406417120      2.09386939053686
