15
Coordinates from ORCA-job run
  C   -0.33591541272010     -0.27256757781600     -0.35718180415485
  C   1.09363757863946      0.16788325502628      0.05281959081333
  Br  -0.03825549706649     -1.43495550874697     -2.00129728228019
  H   1.59190230772966      0.59196425166084     -0.82555670126979
  C   -1.17317398116234      0.90885446884357     -0.80845928710835
  H   -0.67253091174011      1.46170461364821     -1.60398454010721
  H   -1.35413616055424      1.56911887829272      0.04294184018603
  H   -2.13149851055317      0.55646789036297     -1.19432161381872
  N   -0.94388922047198     -0.95462677415088      0.71092265275401
  H   -0.45477962524555     -1.79930937621570      0.98207876798924
  H   -1.91638022068486     -1.16563754141263      0.52938279090610
  C   1.88004367681817     -0.97287831027261      0.53268913617473
  N   2.47800590058102     -1.89975297202027      0.93551600737616
  C   1.02098651053831      1.19669220895195      1.09872269859726
  N   0.95598356589222      2.04604249384853      1.90672774394225
