13

C	-0.458927	-0.039218	-1.432444
C	0.0	0.0	0.0
F	-1.849538	-0.191781	-1.483543
H	1.091358	0.0	0.0
H	-0.262094	0.919583	-1.921674
H	-0.392666	-0.851567	0.550444
N	0.133896	-1.186713	-2.057066
H	-0.05707	-1.163631	-3.051073
H	1.141473	-1.161264	-1.91971
N	-0.482188	1.223544	0.684835
O	-0.970375	1.095688	1.808635
O	-0.348819	2.294618	0.095199
Br	3.517515	0.0	0.0
