13

C	-0.470893	0.069252	-1.435161
C	0.0	0.0	0.0
F	-0.229253	-1.198614	-2.016984
H	1.089084	0.0	0.0
H	-1.550786	0.21222	-1.520717
H	-0.379198	0.862305	0.549504
N	0.235075	1.116918	-2.071385
H	1.238247	0.996162	-1.939994
H	0.019755	1.155766	-3.059548
N	-0.569718	-1.203059	0.658126
O	-1.800473	-1.300736	0.633197
O	0.186187	-2.004977	1.193174
Br	3.570708	0.0	0.0
