13

C	-0.577079	0.078283	-1.405954
C	0.0	0.0	0.0
F	-0.332963	1.379749	-1.82643
H	1.087864	0.0	0.0
H	-0.043472	-0.591521	-2.080644
H	-0.389332	0.812918	0.612032
N	-1.9846	-0.180212	-1.501659
H	-2.467563	0.06723	-0.64707
H	-2.154856	-1.15262	-1.702856
N	-0.45338	-1.263669	0.62061
O	-0.259798	-2.299786	-0.016773
O	-1.014291	-1.213276	1.717278
Br	3.519329	0.0	0.0
