13

C	-0.504772	0.054613	-1.42301
C	0.0	0.0	0.0
F	-0.22733	-1.19366	-2.021654
H	1.0891	0.0	0.0
H	-1.590563	0.152667	-1.473025
H	-0.37498	0.86261	0.552651
N	0.130976	1.133874	-2.076353
H	1.139385	1.052082	-1.985563
H	-0.12334	1.162059	-3.05406
N	-0.548622	-1.193421	0.679217
O	-1.778752	-1.303213	0.661315
O	0.22175	-1.97184	1.226285
Br	3.589313	0.0	0.0
