13

C	-0.532628	0.117565	-1.418078
C	0.0	0.0	0.0
F	-0.388306	1.464985	-1.811996
H	1.08483	0.0	0.0
H	0.120566	-0.452126	-2.081959
H	-0.374662	-0.921314	0.447433
N	-1.874908	-0.327945	-1.555502
H	-2.459362	0.169252	-0.894252
H	-2.199898	-0.146655	-2.496131
N	-0.542753	1.113104	0.823614
O	0.226368	1.938836	1.295351
O	-1.772057	1.133689	0.976195
Br	3.592764	0.0	0.0
