13

C	-0.449923	0.060884	-1.448565
C	0.0	0.0	0.0
F	-0.236551	-1.235333	-1.976978
H	1.088949	0.0	0.0
H	-1.526751	0.233395	-1.545535
H	-0.415937	-0.877545	0.489762
N	0.27285	1.07186	-2.112077
H	0.075601	1.092946	-3.102568
H	1.271664	0.973718	-1.947573
N	-0.535254	1.186809	0.709591
O	-1.732666	1.138725	1.014628
O	0.206712	2.137525	0.927241
Br	3.569337	0.0	0.0
