13

C	-0.394633	-0.092364	-1.455407
C	0.0	0.0	0.0
F	-1.777316	-0.261338	-1.542785
H	1.090481	0.0	0.0
H	-0.144878	0.836388	-1.968242
H	-0.3852	-0.843486	0.572461
N	0.248413	-1.188563	-2.127129
H	0.184278	-2.017083	-1.5445
H	1.238748	-0.96772	-2.195836
N	-0.504804	1.228522	0.654263
O	-0.944949	1.127131	1.799239
O	-0.43728	2.281324	0.021091
Br	3.483658	0.0	0.0
