19

C	-0.043326	-0.011454	-0.027229
C	-0.345196	0.294721	-1.505551
F	1.383149	-0.091654	0.05913
H	-0.020086	1.336334	-1.673643
C	-0.469996	1.119842	0.87747
H	-0.183185	0.895241	1.908549
H	0.024007	2.047641	0.573993
H	-1.554749	1.24943	0.840766
C	-0.602559	-1.34338	0.417437
H	-0.352368	-2.118299	-0.309167
H	-1.68599	-1.26497	0.529954
H	-0.172432	-1.606377	1.387508
N	-1.731827	0.202965	-1.906273
H	-2.016878	-0.766433	-1.818737
H	-2.35654	0.726155	-1.293481
N	0.386565	-0.655842	-2.341127
H	0.181671	-0.414935	-3.304041
H	1.378606	-0.542423	-2.177346
Cl	-4.094306	0.845404	0.481971
