19

C	-0.012027	0.002429	-0.013767
C	-0.364476	0.409898	-1.462367
F	1.39847	0.121337	0.091393
H	0.454217	-0.004784	-2.065514
C	-0.617318	0.895072	1.04569
H	-0.233873	1.909777	0.932939
H	-0.33489	0.526991	2.036114
H	-1.708504	0.885869	0.973349
C	-0.339701	-1.455401	0.240097
H	-1.420659	-1.592891	0.295706
H	0.106779	-1.760544	1.189964
H	0.073944	-2.089856	-0.550664
N	-0.308728	1.86286	-1.595312
H	-0.487651	2.050257	-2.577331
H	-1.120035	2.23512	-1.107338
N	-1.612355	-0.113345	-2.000565
H	-1.569558	-1.12348	-2.06872
H	-2.399271	0.100638	-1.382161
Cl	-4.138955	0.212166	0.220514
