17

C	0.0	0.0	0.0
C	-0.299856	0.083676	-1.549655
Br	1.966326	0.0	0.0
H	0.578285	-0.385819	-2.008184
C	-0.633021	1.040944	0.792613
N	-0.641246	1.955627	1.554109
C	-0.258485	-1.418101	0.564074
H	0.203982	-1.489504	1.551941
H	-1.326861	-1.597919	0.636736
H	0.215318	-2.157664	-0.087879
C	-0.257923	1.47957	-1.991794
N	-0.229426	2.57574	-2.414632
C	-1.495663	-0.630681	-2.201806
H	-1.265117	-0.756035	-3.271361
H	-2.41957	-0.078037	-2.072843
H	-1.630262	-1.616535	-1.756609
H	-2.181994	0.0	0.0
