17

C	0.0	0.0	0.0
C	-0.228961	0.006387	-1.570073
Br	1.966366	0.0	0.0
H	0.464458	-0.760221	-1.933541
C	-0.659711	1.109209	0.672994
N	-0.680993	2.176019	1.201502
C	-0.26805	-1.381862	0.634085
H	0.188716	-1.39809	1.622711
H	-1.336175	-1.553155	0.716359
H	0.214035	-2.158272	0.029749
C	0.250318	1.280808	-2.126437
N	0.553099	2.301763	-2.620038
C	-1.576286	-0.297578	-2.243777
H	-2.296623	0.492276	-2.076779
H	-1.37005	-0.402503	-3.321812
H	-1.9982	-1.22517	-1.861054
H	-2.181156	0.0	0.0
