17

C	0.0	0.0	0.0
C	-0.225059	0.01135	-1.573856
Br	1.966418	0.0	0.0
H	0.506856	-0.715593	-1.939433
C	-0.677337	1.099627	0.66424
N	-0.69869	2.15866	1.211129
C	-0.271749	-1.388548	0.618019
H	-1.340984	-1.566207	0.681054
H	0.209596	-2.155459	0.003497
H	0.176367	-1.424269	1.614909
C	0.204573	1.313061	-2.10373
N	0.488741	2.350002	-2.57508
C	-1.551798	-0.361916	-2.251652
H	-1.930266	-1.303129	-1.856892
H	-1.342817	-0.473428	-3.328662
H	-2.314171	0.393349	-2.096701
H	-2.19705	0.0	0.0
