17

C	0.0	0.0	0.0
C	-0.247381	0.058092	-1.563531
Br	1.966258	0.0	0.0
H	0.522954	-0.60969	-1.966747
C	-0.643577	1.080721	0.729651
N	-0.652177	2.056347	1.413608
C	-0.273777	-1.40209	0.588609
H	0.181382	-1.459984	1.581119
H	0.199186	-2.155728	-0.047405
H	-1.344003	-1.570622	0.655334
C	0.094582	1.397912	-2.057137
N	0.321587	2.455151	-2.517084
C	-1.553726	-0.385138	-2.239777
H	-2.354406	0.33	-2.088287
H	-1.338105	-0.494525	-3.315109
H	-1.88235	-1.343027	-1.838855
H	-2.204925	0.0	0.0
