18

C	-0.613742	0.017118	-1.412508
C	0.0	0.0	0.0
Br	-0.03826	1.656566	-2.29406
H	1.091273	0.0	0.0
N	-0.044822	-1.09359	-2.29493
O	-0.840786	-1.670733	-3.032945
O	1.155812	-1.288559	-2.232308
C	-2.122798	-0.043593	-1.407263
H	-2.505549	0.788599	-0.815363
H	-2.508636	0.034311	-2.421022
H	-2.454791	-0.995983	-0.988902
N	-0.402644	-1.32307	0.663167
O	-0.426147	-2.332697	-0.036811
O	-0.662403	-1.297673	1.864333
N	-0.43804	1.117281	0.766208
H	0.277624	1.343387	1.446013
H	-1.299893	0.917271	1.257625
Br	3.454016	0.0	0.0
