18

C	-0.603868	-0.000306	-1.411957
C	0.0	0.0	0.0
Br	0.003813	1.651629	-2.270876
H	1.096328	0.0	0.0
N	-0.013536	-1.104515	-2.282739
O	1.133684	-1.447434	-2.053774
O	-0.735485	-1.528532	-3.182911
C	-2.111818	-0.051421	-1.445669
H	-2.488574	0.718721	-0.774499
H	-2.474217	0.113705	-2.457562
H	-2.446	-1.036076	-1.11573
N	-0.414762	-1.261767	0.711018
O	-0.656266	-2.256073	0.029069
O	-0.438	-1.235585	1.939056
N	-0.523779	1.125141	0.764317
H	-0.411954	0.871168	1.740728
H	0.115615	1.895066	0.602345
Br	3.457129	0.0	0.0
