18

C	-0.476786	-0.005275	-1.456695
C	0.0	0.0	0.0
Br	-0.243532	-1.669004	-2.448013
H	1.095179	0.0	0.0
N	-1.98115	0.236195	-1.463353
O	-2.626457	-0.319944	-0.57812
O	-2.450561	0.938935	-2.351279
C	0.244616	1.099467	-2.201437
H	1.31833	0.92025	-2.101771
H	-0.042925	1.105339	-3.251335
H	-0.006604	2.055641	-1.741176
N	-0.402155	-1.198548	0.843785
O	-0.04707	-2.303282	0.45559
O	-0.998284	-0.976589	1.897509
N	-0.442588	1.231597	0.594613
H	0.333192	1.614654	1.121527
H	-1.200719	1.039668	1.238723
Br	3.399009	0.0	0.0
