16

C	0.0	0.0	0.0
C	-0.518666	-0.213426	-1.420258
F	1.396453	0.0	0.0
H	-1.572319	-0.495907	-1.313039
H	-0.30418	-0.872913	0.58949
C	-0.489404	1.26596	0.655208
H	-1.582649	1.26227	0.658824
H	-0.125155	1.324849	1.683785
H	-0.110709	2.127679	0.102085
N	0.183414	-1.283948	-2.121695
H	1.171824	-1.18906	-1.916187
H	-0.125529	-2.173269	-1.749105
N	-0.348957	1.006216	-2.216188
H	-1.096811	1.644041	-1.959629
H	-0.523994	0.72638	-3.175197
Cl	-3.859007	0.0	0.0
