16

C	0.0	0.0	0.0
C	-0.468455	-0.052347	-1.48153
F	1.391447	0.0	0.0
H	0.46418	-0.055615	-2.059809
H	-0.306127	-0.926873	0.49125
C	-0.475144	1.190587	0.795384
H	-1.565632	1.19728	0.821128
H	-0.109435	2.12103	0.352314
H	-0.090934	1.12532	1.816793
N	-1.279813	1.05756	-1.983602
H	-0.834188	1.945043	-1.774211
H	-2.175985	1.030712	-1.497626
N	-1.144648	-1.323031	-1.700793
H	-1.449904	-1.32352	-2.669081
H	-2.003676	-1.297117	-1.149974
Cl	-3.878774	0.0	0.0
