16

C	0.0	0.0	0.0
C	-0.352506	-0.125774	-1.492151
F	1.403559	0.0	0.0
H	0.174032	0.714096	-1.968138
H	-0.321223	-0.900565	0.536657
C	-0.52243	1.249529	0.656926
H	-1.613818	1.207294	0.695864
H	-0.214425	2.130337	0.086052
H	-0.132124	1.34044	1.673791
N	-1.747691	-0.045622	-1.835022
H	-2.022394	0.901258	-2.049724
H	-2.39621	-0.351267	-1.109796
N	0.198529	-1.367194	-2.058605
H	0.979653	-1.688015	-1.498178
H	-0.541196	-2.05826	-2.032246
Cl	-4.414275	0.0	0.0
