16

C	0.0	0.0	0.0
C	-0.46802	-0.175775	-1.436038
F	1.409	0.0	0.0
H	-1.556411	-0.277755	-1.390486
H	-0.305839	-0.886547	0.561197
C	-0.49418	1.251111	0.675235
H	-0.125187	1.290956	1.703215
H	-1.588112	1.230635	0.682622
H	-0.140396	2.140903	0.14839
N	0.107713	-1.413667	-1.943506
H	-0.155257	-1.48137	-2.920567
H	1.117463	-1.319663	-1.915616
N	-0.157615	0.966725	-2.308035
H	0.763593	1.321656	-2.06811
H	-0.8279	1.708038	-2.136483
Cl	-3.870454	0.0	0.0
