16

C	0.0	0.0	0.0
C	-0.410418	0.058066	-1.465658
F	1.418217	0.0	0.0
H	-1.504907	0.076905	-1.419857
H	-0.059239	-0.854413	-1.976858
N	-0.523427	1.101852	0.747007
H	-1.541438	0.881556	0.694138
H	-0.398122	1.920175	0.15801
C	-0.445945	-1.300658	0.634513
H	-1.538474	-1.303518	0.569987
H	-0.116527	-1.308282	1.676903
H	-0.004773	-2.154235	0.109675
N	0.11357	1.289538	-2.072288
H	-0.268753	1.390333	-3.004223
H	1.119501	1.196118	-2.155938
F	-2.915942	0.0	0.0
