16

C	0.0	0.0	0.0
C	-0.457121	0.088617	-1.452077
F	1.389117	0.0	0.0
H	-1.54324	-0.036889	-1.398058
H	0.00573	-0.741723	-1.999624
N	-0.537893	1.143084	0.694315
H	-1.562464	0.965979	0.572033
H	-0.329502	1.036915	1.684099
C	-0.448657	-1.318175	0.609977
H	-0.059299	-2.168458	0.040062
H	-1.541895	-1.285769	0.589612
H	-0.076249	-1.389257	1.638481
N	-0.03125	1.369012	-2.0545
H	-0.761463	1.651885	-2.701491
H	-0.066534	2.041047	-1.290306
F	-2.945194	0.0	0.0
