16

C	0.0	0.0	0.0
C	-0.468224	-0.100111	-1.438623
F	1.432648	0.0	0.0
H	-0.162972	0.836872	-1.927609
H	-1.563489	-0.109253	-1.318137
N	-0.341465	1.303822	0.515774
H	0.519318	1.741803	0.864512
H	-1.050687	1.223567	1.233555
C	-0.460586	-1.155243	0.837298
H	-0.137495	-2.089805	0.401898
H	-1.546524	-1.062271	0.822416
H	-0.056132	-1.055679	1.852153
N	0.029447	-1.308299	-2.130503
H	0.990248	-1.153031	-2.41314
H	-0.52414	-1.45196	-2.961591
F	-2.931338	0.0	0.0
