16

C	0.0	0.0	0.0
C	-0.416959	0.143361	-1.457462
F	1.418292	0.0	0.0
H	-1.511309	0.154464	-1.403488
H	-0.070019	-0.736682	-2.025184
N	-0.508084	1.062352	0.816228
H	-0.37062	1.913693	0.275817
H	-1.528893	0.862671	0.762047
C	-0.459999	-1.326013	0.561254
H	-0.127882	-1.400931	1.599763
H	-0.036974	-2.154813	-0.014852
H	-1.55294	-1.303669	0.499356
N	0.097963	1.409472	-1.99788
H	-0.333617	1.58881	-2.895852
H	1.095862	1.312127	-2.1451
F	-2.93681	0.0	0.0
