16

C	0.0	0.0	0.0
C	-0.424142	-0.012767	-1.464073
F	1.404025	0.0	0.0
H	-1.518197	0.006151	-1.407487
H	-0.082712	-0.949615	-1.935719
N	-0.510421	1.143925	0.699641
H	-0.369351	1.933568	0.073093
H	-1.53092	0.942465	0.664506
C	-0.463471	-1.258702	0.700266
H	-0.128869	-1.223414	1.740297
H	-1.556733	-1.243277	0.639047
H	-0.041839	-2.144603	0.214951
N	0.091145	1.186193	-2.139724
H	1.084847	1.067109	-2.294686
H	-0.355365	1.278484	-3.043423
F	-2.943981	0.0	0.0
