16

C	0.0	0.0	0.0
C	-0.432358	-0.088751	-1.460691
F	1.400044	0.0	0.0
H	-0.162937	0.866921	-1.949491
H	-1.523543	-0.154242	-1.393248
N	-0.545096	1.148709	0.662714
H	-0.390765	1.964445	0.072149
H	-1.566094	0.930916	0.596194
C	-0.441406	-1.243419	0.752361
H	-1.534298	-1.250361	0.706939
H	-0.092531	-1.170303	1.78645
H	-0.014673	-2.126188	0.27539
N	0.142889	-1.255273	-2.141282
H	-0.399756	-1.472377	-2.967632
H	1.084192	-1.032902	-2.438042
F	-2.946252	0.0	0.0
