16

C	0.0	0.0	0.0
C	-0.22641	0.054403	-1.534956
F	1.402932	0.0	0.0
H	0.491611	0.825446	-1.851286
H	0.175609	-0.909906	-1.902948
N	-0.535611	1.176071	0.63073
H	-0.42492	1.06329	1.634928
H	-1.549943	1.072354	0.452182
C	-0.483419	-1.283485	0.642
H	-0.068346	-2.165806	0.145936
H	-0.185552	-1.301389	1.698813
H	-1.575566	-1.248002	0.559753
N	-1.547544	0.359314	-2.065031
H	-2.264685	0.247665	-1.317496
H	-1.775512	-0.312543	-2.790974
F	-3.085983	0.0	0.0
