16

C	0.0	0.0	0.0
C	-0.433661	0.149014	-1.457564
F	1.399685	0.0	0.0
H	-0.042569	-0.704096	-2.024392
H	-1.525595	0.112536	-1.435309
N	-0.531533	1.121306	0.729328
H	-0.340611	0.97054	1.716601
H	-1.556265	0.948228	0.594714
C	-0.440335	-1.33945	0.564047
H	-1.534051	-1.311359	0.530908
H	-0.039213	-2.170083	-0.027402
H	-0.081135	-1.440768	1.595223
N	0.039355	1.385736	-2.089639
H	-0.355461	2.140637	-1.537053
H	1.039215	1.435045	-1.912157
F	-2.920871	0.0	0.0
