16

C	0.0	0.0	0.0
C	-0.224971	-0.010848	-1.540942
F	1.396123	0.0	0.0
H	0.04288	-1.026242	-1.886181
H	0.565236	0.652335	-1.923338
N	-0.542571	1.154198	0.654219
H	-1.559191	0.963729	0.629959
H	-0.405292	1.948925	0.035426
C	-0.497858	-1.244325	0.695716
H	-0.088833	-2.136247	0.214182
H	-0.179209	-1.21744	1.741242
H	-1.58999	-1.220852	0.626584
N	-1.517251	0.470815	-1.999448
H	-2.259385	0.200265	-1.318899
H	-1.713944	0.059391	-2.902774
F	-3.109635	0.0	0.0
