11
Coordinates from ORCA-job run
  C   0.26931055620124     -0.22137762807722     -0.40843837626893
  C   -0.72731499394652      0.28235738858377      0.33754707330931
  H   0.02481800238112     -0.72848297802130     -1.34230792084769
  H   -0.49972781987857      0.79998545319586      1.26804834594906
  C   1.71935115785968     -0.09699915927471     -0.04565958650740
  H   1.83898318651981      0.41172547138505      0.91427565489430
  H   2.20114332372464     -1.07645624208174      0.03315982822682
  H   2.27592117194059      0.47508912173578     -0.79479446573729
  N   -2.08644678628471      0.31083604050241     -0.00293869347012
  H   -2.69763324287288      0.17417857658352      0.78793987756499
  H   -2.31840455564440     -0.33185604453141     -0.74683173711306
