11
Coordinates from ORCA-job run
  C   0.39104321437992      0.72726468113028     -0.40504098913999
  C   -0.91457500690562      0.41809887077619     -0.49626893930684
  H   0.73436954363400      1.63131787690643     -0.89514647795354
  H   -1.59435196996344      1.05596296894323     -1.05464339757722
  C   1.38429950282133     -0.13873528622195      0.31965986052755
  H   1.41609613367091     -1.15136610248446     -0.09752483212937
  H   2.39154360915918      0.27384223096493      0.25444014314080
  H   1.14534382361874     -0.23475516714325      1.38609598872355
  N   -1.49944305290290     -0.75247190657631     -0.00277414757593
  H   -2.47244821025283     -0.64925451299901      0.23824065344568
  H   -0.98187758725929     -1.17990365329606      0.75096213784533
