11
Coordinates from ORCA-job run
  C   0.37668654444521      0.47512299428464     -0.69151431419774
  C   -0.93951805286674      0.44926988276264     -0.41687390737700
  H   0.71269015494629      1.10008540455638     -1.51122416529939
  H   -1.63780867610113      1.03366349017984     -1.00984490572236
  C   1.38358413939082     -0.34293117237968      0.06932968116096
  H   2.39051684329377     -0.19717250950625     -0.32291811893931
  H   1.41171485969136     -0.07482558375209      1.13277024939232
  H   1.16016084916738     -1.41397733026441      0.01073853887246
  N   -1.54436113646280     -0.37069418571908      0.54116798016014
  H   -0.91878890314645     -0.66837748896793      1.27520862073306
  H   -2.39487662235771      0.01183649880594      0.92316034121685
