11
Coordinates from ORCA-job run
  C   0.37132981961911      0.51802114413008     -0.66382991130081
  C   -0.92609758196882      0.55065620810749     -0.31160662575916
  H   0.69061332258363      1.14692689436950     -1.48716571023643
  H   -1.62394916082014      1.19743766158914     -0.83638231818027
  C   1.38753117076685     -0.32875213029271      0.05168607973646
  H   1.44548970393308     -0.07578290050394      1.11622903551833
  H   2.38380895092440     -0.19497174789366     -0.37080501860271
  H   1.15163642274779     -1.39815713867881     -0.01486278970923
  N   -1.47881615119215     -0.12639584752339      0.77983163834564
  H   -2.45331927379875     -0.35561176469636      0.66480731679830
  H   -0.94722722279502     -0.93337037860734      1.07109830338988
