11
Coordinates from ORCA-job run
  C   0.43988492898389      0.77170442857217      0.23836624711859
  C   -0.89516465788935      0.66506159166514      0.11681698429902
  H   0.84646757906878      1.72237985795420      0.56434084548079
  H   -1.53655031766802      1.51602620507593      0.32945934381764
  C   1.37947234594762     -0.35897818536806     -0.07919430034655
  H   2.41915696015070     -0.06096725263009      0.05946349372566
  H   1.20691713542947     -1.22949955399192      0.56584647337674
  H   1.26879633365641     -0.69623953080347     -1.11569306196071
  N   -1.57014487830511     -0.45587507310507     -0.37619714603185
  H   -1.05260478189535     -1.31737746179897     -0.28389133627729
  H   -2.50723064747904     -0.55523502556985     -0.01931754320205
