11
Coordinates from ORCA-job run
  C   0.35523029767719      0.51229665344275     -0.67597267457297
  C   -0.93299551746819      0.54884609939006     -0.29176611245416
  H   0.65410951062006      1.13327338813869     -1.51287889834741
  H   -1.64159903368743      1.19419291420605     -0.80376514619500
  C   1.38870316851931     -0.33104925498928      0.01891871656845
  H   1.15185366921925     -1.40074639904003     -0.03872634896286
  H   2.37422331616659     -0.19855448323739     -0.42848720076722
  H   1.47142454929517     -0.07383151094106      1.08066676069298
  N   -1.45937072696993     -0.11753414321383      0.81910076399150
  H   -2.43756668699052     -0.34303542781838      0.73164809349506
  H   -0.92401254638148     -0.92485783593757      1.10226204655162
