11
Coordinates from ORCA-job run
  C   0.32401841803632      0.23787037876613     -0.35639984413049
  C   -0.78182107783073     -0.18070696920673      0.28025165370680
  H   0.22761159638815      0.97623789732885     -1.15294260741491
  H   -0.70337271233719     -0.92389826418004      1.07211304528923
  C   1.69940437500530     -0.27732020266680     -0.05166731497452
  H   1.67352362181461     -0.99468085283154      0.77251834731017
  H   2.14295926375358     -0.78227840506948     -0.91568872385239
  H   2.38004927610736      0.53168747575733      0.23107355714442
  N   -2.10249562071271      0.16589577011430     -0.03533227220507
  H   -2.69418750370324      0.26125783338390      0.77611859076371
  H   -2.16368963652146      0.98793533860409     -0.61904443163696
