11
Coordinates from ORCA-job run
  C   0.28816314647456     -0.27796579959976     -0.35819135316577
  C   -0.74956022360015      0.28519756475725      0.28164429311065
  H   0.09106756024931     -0.99060564677528     -1.15960142954199
  H   -0.56958778830749      1.00513468116791      1.07840730247641
  C   1.72138557067298      0.04013908230500     -0.05053334296231
  H   1.79444025500956      0.74870339464547      0.77841642394801
  H   2.28351667901179     -0.85704078767809      0.22657888799527
  H   2.23097158934891      0.48466409808502     -0.91133284290940
  N   -2.10528863962065      0.12654566794332     -0.03575554466057
  H   -2.70493659304648      0.10849203869069      0.77525743176501
  H   -2.27917155619236     -0.67526429354154     -0.62488982605531
