15
Coordinates from ORCA-job run
  C   1.08155630216407     -0.16149486313246      0.25385301581644
  C   -0.29993542122654     -0.01740428133713     -0.37677899049837
  F   0.85771019657768     -0.46365495148666      1.61848961223594
  H   -0.12691304723071      0.11170682973758     -1.45216432363684
  H   1.60324558760137     -1.03422185573809     -0.15013655270279
  N   1.86834661530925      1.00249522638185      0.14198973893628
  H   2.70654295021433      0.89671740291628     -0.40192719682891
  H   1.31694358343499      1.80979374848506     -0.10864876113985
  N   -0.87326888183286      1.23550191702906      0.11543352977453
  H   -1.03925276613480      1.14774870384833      1.11205605100006
  H   -1.76468181367604      1.41180655982205     -0.33102972466278
  C   -1.16694477013712     -1.25107013853599     -0.14873069418657
  H   -1.35161134379968     -1.38964934716289      0.91755427021557
  H   -0.68352571594931     -2.15574474336664     -0.53057032743974
  H   -2.12821147531464     -1.14253020746034     -0.65838964688297
