15
Coordinates from ORCA-job run
  C   0.85572947054095      0.53083756008946      0.08392298603040
  C   -0.41888333297045     -0.12655670479886     -0.43069569841677
  F   1.32931730994840      1.38198802935457     -0.95115981587390
  H   -0.12116116025783     -0.77169256190931     -1.26900074076364
  H   0.63481818395731      1.19942116408106      0.92220067370569
  N   1.83368308433780     -0.41430400434846      0.47348809002502
  H   2.67112607165182      0.04142316575603      0.81115502490735
  H   2.07880453309449     -1.01125071307063     -0.30696469675066
  N   -1.38841122114166      0.82848722746082     -0.95565826612778
  H   -1.75507146251462      1.38879905816198     -0.19332088182634
  H   -0.92170092319643      1.45933895956828     -1.59600754001118
  C   -1.07158593718202     -0.97449378991834      0.64854879375721
  H   -1.34080580307136     -0.35183958874826      1.50869315884907
  H   -0.40139603125277     -1.75724963456920      1.00076272301663
  H   -1.98546278194364     -1.42190816710915      0.25503618947890
