15
Coordinates from ORCA-job run
  C   1.10111481520039     -0.19100506064447     -0.06651360320866
  C   -0.38482698522110     -0.03988361395334     -0.37695629006683
  F   1.23306148349969     -0.65467378529524      1.26461435246559
  H   -0.44690686471000      0.05520045843737     -1.46891017967769
  H   1.54930706501978     -0.97253741599670     -0.68778989572522
  N   1.76699641880830      1.03965357380846     -0.26364227897812
  H   2.75317391800501      0.95731375840780     -0.05410355156832
  H   1.34462742431287      1.71605703283338      0.36270382461488
  N   -0.87855119913323      1.17743335864994      0.27770396151112
  H   -1.73568987549255      0.99932809173465      0.78216203528123
  H   -1.06090224915396      1.90042027754285     -0.40397640375260
  C   -1.16502774189345     -1.26500242881241      0.07076499596672
  H   -2.19946564325639     -1.21182272252045     -0.27751736243025
  H   -0.71928083694032     -2.18401852989177     -0.31685085501867
  H   -1.15762972904503     -1.32646299430008      1.16031125058683
