15
Coordinates from ORCA-job run
  C   0.99233629295043      0.53078098931645     -0.11517563661295
  C   -0.37958103030324      0.01170037688226     -0.51241307528487
  F   1.59310738921134      1.10979480097019     -1.21586261946758
  H   -0.21588742020319     -0.53751191988750     -1.44490232997678
  H   0.88101549912842      1.34189787199361      0.62339054914949
  N   1.86922950911639     -0.54219262065391      0.30078667487836
  H   1.61613803223259     -0.85680437713187      1.22948696905291
  H   2.81215591897683     -0.17358416679155      0.35179318383861
  N   -1.23194665576297      1.16226975696023     -0.80964403177977
  H   -1.64285249093297      1.51550474435840      0.04776358820406
  H   -1.99483769185840      0.88010839095337     -1.41179522160670
  C   -0.95530219037460     -0.93424029667874      0.54004864632102
  H   -0.35309256257189     -1.83808597269193      0.64889941361485
  H   -1.96593135583193     -1.23495211919910      0.25471112692619
  H   -1.02355124377681     -0.43468545839991      1.51391276274318
