15
Coordinates from ORCA-job run
  C   0.92509880029544      0.53508416235242     -0.05930550094268
  C   -0.43833683540628     -0.02407179036202     -0.40809301156046
  F   1.36233060834999      1.30739001140504     -1.13410785444319
  H   -0.29205378734795     -0.59694783067803     -1.33640254484301
  H   0.82622529383272      1.23604269026051      0.78233621056734
  N   1.90719884454685     -0.50667376107808      0.11676649540185
  H   2.82254747354716     -0.07475992645178      0.17188711275596
  H   1.74422438112851     -0.98388972170907      0.99495811596393
  N   -1.34884162841954      1.10982869093830     -0.55355603865294
  H   -1.00769436355391      1.71468258248794     -1.29153895004053
  H   -2.26294392478746      0.77647139566462     -0.83577521577090
  C   -0.95235396538498     -0.94837260371750      0.68399444253415
  H   -0.96486117845150     -0.42969773808981      1.64656653941808
  H   -0.34513123243966     -1.85239658622124      0.75800027312374
  H   -1.97640848590938     -1.26168957480131      0.46526992648865
