15
Coordinates from ORCA-job run
  C   1.00971340493900     -0.12846308255565      0.00348930548358
  C   -0.46028406047546     -0.08315516558167     -0.40280271331065
  F   1.04846307237176     -0.33711837790930      1.40838947479048
  H   -0.47196726012627      0.01580708971132     -1.49329307305352
  H   1.51066637415880     -0.99615661171112     -0.43439346335339
  N   1.70709376492056      1.04763128259549     -0.36531958655533
  H   1.31430687226740      1.84813664884565      0.11261368801469
  H   2.68632220085275      0.97916864932890     -0.12172443084411
  N   -1.18945802369235      1.05619304771706      0.14545946252746
  H   -1.04057358030422      1.11040537581545      1.14630062542267
  H   -0.89374141264302      1.92571415677192     -0.27905550099283
  C   -1.16992117159814     -1.36991033523865     -0.00632481345011
  H   -2.19661409446352     -1.34756378485165     -0.37231241102827
  H   -0.66368220764868     -2.24628158058982     -0.42019306175477
  H   -1.19032387855862     -1.47340731234793      1.08016649810410
