15
Coordinates from ORCA-job run
  C   1.10523048497738      0.01577641540611     -0.39662413650763
  C   -0.40596932100523     -0.03967441317150     -0.57345364938164
  F   1.64165059410745     -1.25307614228672     -0.56626852083545
  H   -0.59225521968958     -0.21425250954114     -1.63896545818170
  H   1.54390550724995      0.63923771898670     -1.18776007994932
  N   1.44003627913762      0.44663719878176      0.94085115455491
  H   1.23300288230430      1.43674084741768      1.00458301801185
  H   2.43830753354609      0.33289105782253      1.07492132750095
  N   -0.90534013302427      1.30130911368964     -0.24393053906967
  H   -1.13313474967694      1.32907749440407      0.74402580304304
  H   -1.76248748791298      1.48801055868933     -0.74795320294053
  C   -1.03302832565193     -1.16270029690500      0.24291965953938
  H   -0.79612117055578     -1.02796243860175      1.30005625998192
  H   -0.65409502781434     -2.13747931182438     -0.06775615304636
  H   -2.11870184599174     -1.15553529286734      0.11535451728025
