15
Coordinates from ORCA-job run
  C   1.00913816459313      0.06767309503767     -0.42708039737699
  C   -0.50097887609049     -0.10550403560227     -0.57105905172742
  F   1.63859144454743     -1.13633623140057     -0.70929446862685
  H   -0.68602451909001     -0.36105655441650     -1.62117592592235
  H   1.37522208709975      0.77668184362455     -1.18804957688171
  N   1.38079714398004      0.42271546042375      0.92452288821724
  H   2.38291812664242      0.30691007445245      1.02045570485150
  H   1.17211416018835      1.39957806936989      1.08745122642370
  N   -1.23924621381152      1.12163170249017     -0.28390911496668
  H   -1.16819236327944      1.35042653738178      0.70009019148284
  H   -0.89479751383901      1.90358541990035     -0.82871565644776
  C   -1.02048375088445     -1.22918300751555      0.30948265197576
  H   -2.09468915764082     -1.34163974569452      0.15539897521183
  H   -0.83017986909513     -1.00587954267124      1.36060521452884
  H   -0.52418886332025     -2.16960308537996      0.06927733925804
