15
Coordinates from ORCA-job run
  C   0.98807491724668      0.54976253409714     -0.01226017331186
  C   -0.39855756978917      0.04204978550466     -0.37317033071238
  F   1.34512211728832      1.46063110951899     -1.02415690727986
  H   -0.27760297243033     -0.53659573338033     -1.30776848299599
  H   0.93929938895922      1.13429649000436      0.91070726181109
  N   1.98745833044979     -0.45164898589186      0.08610383531072
  H   2.28321289599641     -0.64369259811092      1.02809875609839
  H   1.76777891131480     -1.30110591069683     -0.41121829456415
  N   -1.28069687214600      1.19355544892850     -0.52231339222413
  H   -2.19915237909427      0.88919385615988     -0.82163515602835
  H   -0.90814884345519      1.80781242155510     -1.23527137735855
  C   -0.94897625463010     -0.86743067532494      0.71400372157046
  H   -1.95343439002275     -1.21070257914416      0.45269878541212
  H   -0.32438185463987     -1.74985925283141      0.86178855653140
  H   -1.01899542504753     -0.31526591038818      1.65439319774108
