15
Coordinates from ORCA-job run
  C   1.01930978519927     -0.07009492157978      0.05644041443785
  C   -0.47193468734491     -0.05050030411907     -0.28055439573134
  F   1.11927077393678     -0.29187321145790      1.44276630343073
  H   -0.55969863195974      0.15782916006030     -1.35441837558690
  H   1.51536832867172     -0.93885619357176     -0.39220760367825
  N   1.66300067179419      1.15698088004720     -0.26281872286895
  H   2.60657079023183      1.04525885085401     -0.59664715915882
  H   1.13113397215280      1.74403444911893     -0.88504027500943
  N   -1.20493031668444      0.99209868909768      0.43527985087174
  H   -0.95353028700480      0.93510471515940      1.41635329037604
  H   -0.92815095891398      1.91347125274409      0.11864581114798
  C   -1.11164417396088     -1.39844495454536      0.01602019694241
  H   -0.63188425580009     -2.20211823646006     -0.54903832818111
  H   -1.02290549117183     -1.62958479855892      1.07936209143613
  H   -2.16997551914594     -1.36330537678876     -0.24314309842807
