15
Coordinates from ORCA-job run
  C   0.92765669892758      0.55928907116597      0.00020839466442
  C   -0.40381816989403     -0.03144619516165     -0.45847954216355
  F   1.29333466629370      1.51600334776931     -0.96706280059793
  H   -0.18290922137250     -0.61392956947054     -1.36411933058113
  H   0.79215234527122      1.12713291336075      0.92784641023227
  N   1.96955726745787     -0.38935891954993      0.14471295811792
  H   2.31536953575157     -0.49734885495608      1.08241564379623
  H   1.78554397459115     -1.27982237510189     -0.29003960103902
  N   -1.39977225051243      0.96668721988150     -0.82960529891542
  H   -0.97593942552163      1.62986996226338     -1.46714611061561
  H   -1.67979099204903      1.48571723320247     -0.00352422776613
  C   -0.99100852100983     -0.94993835676692      0.60238994169745
  H   -0.32838473504238     -1.78175993972717      0.84422272897773
  H   -1.17995396661468     -0.39168229320709      1.52609647507074
  H   -1.94303720627657     -1.34841324370212      0.25008435912205
