14

C	-0.078757	0.015557	-0.000203
C	-0.487698	0.168479	-1.47106
Cl	1.762049	0.011463	0.064113
H	0.088077	1.009923	-1.868623
H	-1.547521	0.422816	-1.454657
C	-0.485479	1.172531	0.800405
N	-0.63445	2.169633	1.404278
C	-0.475415	-1.259336	0.604326
N	-0.533016	-2.340504	1.063569
C	-0.26869	-1.100616	-2.27897
H	0.759081	-1.464887	-2.207776
H	-0.947471	-1.881123	-1.930714
H	-0.489857	-0.906771	-3.331665
Cl	-3.221783	-0.19108	0.18276
