12
Coordinates from ORCA-job run
  C   0.54048551780514     -0.26161207925794     -0.42438189507315
  C   -0.45298678984334      0.41804187996972      0.49334072983550
  F   0.40520620109667      0.28994968824936     -1.68427538387681
  H   -0.35379843177462      0.05764157985573      1.51868941984996
  H   0.29801447537754     -1.32436857209781     -0.53374345410388
  H   -0.32865981845918      1.49662541155222      0.44018127306314
  N   1.87297080971985      0.03388976979748      0.03136900253685
  H   2.53885473452991     -0.31896112138870     -0.64555972903041
  H   2.05333901547276     -0.42445636392874      0.91626054200862
  N   -1.84409350005866      0.09700500743074      0.06590423604953
  O   -2.59427439110773      1.03427536041976     -0.18723766930052
  O   -2.13505782275835     -1.09603056060181      0.00845292804117
