12
Coordinates from ORCA-job run
  C   -0.75353056950648      0.42277489878310      0.42512205038624
  C   0.72425542761268      0.10251088711989      0.60915053488463
  F   -1.23001297576024      0.57367704531310      1.73552220279250
  H   1.23620348189504      0.91029044647614      1.12779539272607
  H   -0.87929548670644      1.39622941960490     -0.05300698595238
  H   0.83784637807180     -0.84157828700935      1.13958081787369
  N   -1.44906750523472     -0.57933175123508     -0.26901066847012
  H   -1.95628987247107     -0.27967844788083     -1.08194789217001
  H   -0.96911308871410     -1.45362416955271     -0.40495919050281
  N   1.34310425812199     -0.04773601750249     -0.73053194951968
  O   1.54636757258058      0.98766549513034     -1.36089032857367
  O   1.55053238011096     -1.19019951924700     -1.13782398347445
