12
Coordinates from ORCA-job run
  C   -0.74821319473606      0.24096919275273      0.53393718287648
  C   0.51963844845358      0.74999654861079     -0.14901159820905
  F   -0.33491198467400     -0.15713361600531      1.81190329554177
  H   0.97722216195521      1.54677879921706      0.43261708718403
  H   -1.41491019874177      1.09492928732000      0.68429486208959
  H   0.30152151494898      1.07091820768330     -1.16745880096544
  N   -1.43388694786821     -0.79742710504421     -0.11832920702119
  H   -0.88414605090927     -1.34894813703395     -0.75570112286682
  H   -2.34757643473368     -0.56319876464550     -0.46144557540302
  N   1.53665236477151     -0.33504711597389     -0.24314167307650
  O   1.27449326330235     -1.27136319471362     -1.00095208029879
  O   2.55311705823137     -0.22947410216740      0.43328763014895
