12
Coordinates from ORCA-job run
  C   -0.57017034266498     -0.30867319604039      0.34599076520725
  C   0.50713130171493      0.29831421462823     -0.52703136878344
  F   -0.34057213244328     -1.66903746319944      0.42471057671090
  H   0.54969961797307     -0.22375464094808     -1.47952813763321
  H   -0.49234763758539      0.06964542883230      1.37121962434602
  H   0.34381052720671      1.36800472551741     -0.66886949904149
  N   -1.84596231172314     -0.12650109907032     -0.29442221691923
  H   -2.10582039901610      0.85234772703198     -0.29151749256428
  H   -2.55015885341373     -0.63879509526176      0.22309656688422
  N   1.83658793042559      0.15655751784167      0.13116007728157
  O   1.94252863021590      0.64044205640709      1.25621285718467
  O   2.72327366931041     -0.41855017573869     -0.49202175267298
