12
Coordinates from ORCA-job run
  C   -0.68395063867983      0.29927554000179      0.46779392677669
  C   0.78329974230561     -0.08622564072817      0.51165079528164
  F   -1.16927981934865      0.02690097237580      1.76396778429152
  H   1.30515407990649      0.49188797105069      1.27282588363013
  H   -0.79904663583862      1.37231218619437      0.31566565483738
  H   0.90181593681398     -1.15420331994217      0.68834617349916
  N   -1.35622843063463     -0.39959800511142     -0.55062519370777
  H   -1.32264154715972     -1.40142362978023     -0.41619816792824
  H   -2.31324846907895     -0.09611382402862     -0.65983331324615
  N   1.40307010410487      0.23028092979261     -0.80105932323255
  O   1.44147396300980      1.41975635740055     -1.10664243059979
  O   1.80958171459966     -0.70484953722519     -1.48389178960203
