12
Coordinates from ORCA-job run
  C   -0.61189395364909     -0.15884673543029      0.48591955444651
  C   0.48497523603206      0.14073086200871     -0.51824520222345
  F   -0.32077613947006     -1.42651517591239      0.99260879947259
  H   0.38381066911492      1.15508238613066     -0.90552581464634
  H   -0.55271829962316      0.53061283102771      1.32866835991846
  H   0.48396633151542     -0.59260867457154     -1.32414313079671
  N   -1.90336505967927     -0.13385741714045     -0.08527673009703
  H   -2.48573750148350      0.62971991535010      0.21024527706828
  H   -1.94921101170921     -0.29469440446379     -1.07828997963523
  N   1.82404498898143      0.06227360427652      0.13353945922156
  O   2.65742942479181     -0.69231234465540     -0.35707324454655
  O   1.98847531517865      0.77941515338015      1.11757265181791
