12
Coordinates from ORCA-job run
  C   -0.87424907607170      0.39989405642340     -0.04972250360859
  C   0.61096140936851      0.72956563018804      0.02492122797187
  F   -1.49850881889897      1.54834929806505      0.45985075344736
  H   0.84520768892901      1.60837479270940     -0.57204500801280
  H   -1.19896231771658      0.32004796833703     -1.08906414602778
  H   0.91089171418699      0.86600666272346      1.06270407641054
  N   -1.21751729598907     -0.74744053266819      0.68142711591063
  H   -1.70870767446690     -1.46153946677441      0.17480941360400
  H   -0.51741167899518     -1.11644297107299      1.30339929286414
  N   1.37539296142152     -0.41623129033170     -0.52535375495700
  O   1.90517125682066     -1.18544644363487      0.27583802652704
  O   1.36973183141171     -0.54413770396423     -1.74776449412942
