12
Coordinates from ORCA-job run
  C   -0.76533243238102      0.30190593730977      0.41030506623615
  C   0.55947399563492      0.76054632599096     -0.17469654080466
  F   -0.45762299466466     -0.28262367850651      1.65827122583325
  H   0.42850349233420      1.08736167763368     -1.20640343716482
  H   -1.36556845635015      1.18501674863233      0.64328151123076
  H   1.00050739204125      1.54630836473616      0.43336326800802
  N   -1.49699001908333     -0.54423682775246     -0.44530383759334
  H   -2.37769544004396     -0.80942095932582     -0.02663919189498
  H   -0.96260216838435     -1.36665226780668     -0.69037247322730
  N   1.55999912366789     -0.34866374895323     -0.18980919571461
  O   2.64718298412231     -0.13614792507230      0.33523277449784
  O   1.22914452310690     -1.39439364688592     -0.74722916940633
