12
Coordinates from ORCA-job run
  C   -0.70286078859415      0.26081409190721      0.60327287746576
  C   0.79681545236465      0.00719001007537      0.52128319878036
  F   -1.00175975861593      0.07009910905352      1.96077646881918
  H   1.34472132834933      0.70581858760108      1.15004683961878
  H   -0.92755882210508      1.30819919531343      0.39238712118727
  H   1.01709934521636     -1.02405235942288      0.79240202307823
  N   -1.44719516361838     -0.59567265150342     -0.22064944917564
  H   -0.96317221665816     -1.38271963787652     -0.61927041543484
  H   -2.08318384410464     -0.15541673939038     -0.86019967623288
  N   1.23258497230590      0.21384054198583     -0.88145107872956
  O   1.30761992986277      1.37837947386616     -1.26735500509959
  O   1.42688956559732     -0.78647962160940     -1.57124290427708
