11
Coordinates from ORCA-job run
  C   -0.85686019554762     -0.20860592012639      0.11836332856406
  C   0.43885511791254     -0.28854541293263      0.49724979024013
  H   0.65877042473960     -0.88638888714465      1.37973608263009
  C   -1.88898752826381     -0.88435514701179      0.85240323496643
  N   -2.72953805840022     -1.44080748768954      1.45710540500329
  C   -1.26750894924653      0.54967041035419     -1.02984010434890
  N   -1.58959353953367      1.17413201321941     -1.97261858010175
  C   1.57715220748387      0.37297433446821     -0.19923844603288
  H   2.09960269340747      1.04302894244089      0.48994064062214
  H   2.30374078016719     -0.37792064849465     -0.52349477648280
  H   1.25336704728117      0.94581780291696     -1.06860657505980
