11
Coordinates from ORCA-job run
  C   -0.84293126840443      0.27659939193387      0.06677074952488
  C   0.45742533821757      0.35866380186291      0.42833748079622
  H   0.71495358084167      1.10732249964555      1.17514913454918
  C   -1.30268676245725     -0.67125042986157     -0.90888629616988
  N   -1.66626544786188     -1.45148975245826     -1.70999074482357
  C   -1.83120696403297      1.14113952814274      0.64698441566728
  N   -2.63458257489245      1.85233737849652      1.12699638662496
  C   1.55287851497104     -0.49393952198619     -0.11105487070404
  H   2.03207672826814     -1.04423415782662      0.70420834598873
  H   1.19485192354191     -1.20754247735292     -0.85347459426219
  H   2.32548693180866      0.13239373940396     -0.56704000719157
