11
Coordinates from ORCA-job run
  C   -0.85923131929833     -0.16367378866640      0.16375783521792
  C   0.44922416583708     -0.46771987458892      0.31817979927556
  H   0.68550538039438     -1.33094418073718      0.93784995257944
  C   -1.88347777676668     -0.94836794806007      0.79261860547937
  N   -2.71535512052148     -1.59511560967718      1.31370289536444
  C   -1.29135569750629      0.95227152539357     -0.62980420199433
  N   -1.63243805426587      1.86915169262240     -1.28202452946422
  C   1.58157945099755      0.28395838510355     -0.29123086765205
  H   2.25068851019031      0.65290150533344      0.49190771855477
  H   2.17374864093603     -0.38268430298984     -0.92558208416533
  H   1.24211182000330      1.12922259626665     -0.89037512319558
