11
Coordinates from ORCA-job run
  C   -0.85777939067498     -0.19954570823255      0.12840191173748
  C   0.44169789786031     -0.29277130915512      0.49110921354100
  H   0.66593325713971     -0.89156318090736      1.37182888157299
  C   -1.88719159087764     -0.86386245686033      0.87656115648310
  N   -2.72376219804207     -1.41139408328217      1.49475614881025
  C   -1.27481700048558      0.56203681162689     -1.01519149541549
  N   -1.60175074640728      1.18952015339584     -1.95432879140036
  C   1.57839039048015      0.35636278341376     -0.21936134855788
  H   2.29357374700407     -0.40225978912722     -0.55079296426705
  H   1.25043160542885      0.93125754390828     -1.08582042068377
  H   2.11527402857446      1.02221923522000      0.46283770817972
