11
Coordinates from ORCA-job run
  C   -0.84556159579868      0.26327168136480      0.07956975568746
  C   0.46112322264204      0.38282891467006      0.40535758267799
  H   0.72273794154712      1.16319863144575      1.11778237147522
  C   -1.30958890584646     -0.72922211194810     -0.84854718211763
  N   -1.67695039159393     -1.54672501786899     -1.60969885846898
  C   -1.83750893850690      1.12971241055654      0.65015119321486
  N   -2.64485597017061      1.84287056096451      1.12077683655023
  C   1.55876571381996     -0.46816132783128     -0.13223802984134
  H   2.30376691901872      0.15496603311535     -0.63589974107036
  H   1.19415360564495     -1.21750005916832     -0.83547691776134
  H   2.07391839924380     -0.97623971530031      0.68822298965390
