11
Coordinates from ORCA-job run
  C   -0.84457449629517     -0.22045091006748      0.17139749498646
  C   0.47628031298422     -0.31138015993034      0.44631929247034
  H   0.76413124486539     -0.95107123968903      1.27855790805085
  C   -1.34316216691297      0.59281241914300     -0.90196151440998
  N   -1.73807857085252      1.26265565473191     -1.78395510459889
  C   -1.81690767155903     -0.93837002991025      0.94580605190512
  N   -2.60829171335393     -1.52828025928005      1.58424566373864
  C   1.55682498646214      0.39254944312028     -0.29860010430747
  H   2.12704134761938      1.03077596949657      0.38290457908367
  H   1.16689584795438      1.00642165285636     -1.11085891608133
  H   2.25984087908812     -0.33566254047097     -0.71385535083742
