11
Coordinates from ORCA-job run
  C   -0.85810355506195     -0.14462621208663      0.18465914696017
  C   0.44192117435912     -0.50885653452335      0.26224979641752
  H   0.66583758600981     -1.42786810547984      0.80080677937499
  C   -1.27358355846956      1.04794115914364     -0.49889241602123
  N   -1.60030829945802      2.02730557882831     -1.06152555993546
  C   -1.89067725714200     -0.93901284418480      0.78734618416850
  N   -2.73184787890755     -1.59366240565958      1.28289295360355
  C   1.58027262769403      0.24771534905702     -0.32943278533875
  H   2.12224890495228     -0.38589386390017     -1.03773926307203
  H   1.25328923281467      1.15123369539567     -0.84452653857936
  H   2.29095102320915      0.52672418340973      0.45416170242212
