11
Coordinates from ORCA-job run
  C   -0.85646008745552     -0.15590565484498      0.18375820355067
  C   0.45174574628380     -0.47809146796527      0.29949416968699
  H   0.69284854970057     -1.35457179276548      0.89808973903798
  C   -1.29507183132890      0.97779881373849     -0.58073633818387
  N   -1.64045278297670      1.90862094683826     -1.21070538113318
  C   -1.87470384534375     -0.93950486068303      0.82398128371769
  N   -2.70320956581586     -1.58616999407397      1.35042539760744
  C   1.57718781571351      0.27093457070378     -0.32527334882692
  H   1.23282390066695      1.12947184584941     -0.90248013643706
  H   2.14707376065738     -0.39080908396766     -0.98431821077425
  H   2.26821833989851      0.62022667717044      0.44776462175453
