11
Coordinates from ORCA-job run
  C   -0.83950806958603     -0.17962343413437      0.23441335105113
  C   0.47556354724448     -0.49475368070774      0.22679839905717
  H   0.76609080895620     -1.41167994193197      0.73627644147098
  C   -1.34074807081680      1.00460974723081     -0.40481497083755
  N   -1.73785880911994      1.97733715443882     -0.93267223666723
  C   -1.80205125726932     -1.02000926951482      0.88840688324078
  N   -2.58461584566130     -1.71238638207875      1.42696224656072
  C   1.54653319028227      0.31205677802562     -0.42114462231424
  H   1.15505114514380      1.20865956250329     -0.90241437400904
  H   2.06689609411693     -0.29105211245340     -1.17111598397468
  H   2.29364726670971      0.60784157862252      0.32130486642196
