11
Coordinates from ORCA-job run
  C   -0.83854090657159      0.25430599889374      0.15379264765597
  C   0.49031617418441      0.50475070520337      0.16525843548163
  H   0.80517501432210      1.48241051098525      0.52517008792532
  C   -1.78458975185425      1.23921812307731      0.59623075932082
  N   -2.55380338631997      2.05030758271105      0.95997092901530
  C   -1.37178999061056     -0.99931774874117     -0.30003114482746
  N   -1.79516074690186     -2.03049718820101     -0.67427272740783
  C   1.54584700218441     -0.44977585799076     -0.27413002715210
  H   1.12986404626107     -1.39804910471720     -0.61530025936764
  H   2.23945464905443     -0.64509099207744      0.54909361218786
  H   2.13322789625183     -0.01026202914315     -1.08578231283188
