15

C	0.0	0.0	0.0
C	-0.39175	-0.30594	-1.46365
Cl	1.7546	0.0	0.0
H	0.237	0.314126	-2.10053
H	-0.397083	-0.699534	0.730161
N	-0.449353	1.381018	0.386004
O	-0.63429	1.57493	1.581261
O	-0.53283	2.213383	-0.511726
N	-1.731312	-0.245904	-1.884869
H	-2.43617	-0.494188	-1.180154
H	-1.956417	0.691839	-2.1876
N	0.10971	-1.722301	-1.710091
O	-0.241575	-2.580965	-0.904089
O	0.782764	-1.919254	-2.717387
Cl	-4.141346	0.0	0.0
