15

C	0.0	0.0	0.0
C	-0.46924	0.001244	-1.461469
Cl	1.754709	0.0	0.0
H	0.086617	0.771782	-1.993397
H	-0.382266	-0.838904	0.575481
N	-0.452286	1.262099	0.681612
O	-0.6989	1.172786	1.878376
O	-0.481158	2.283354	0.001791
N	-1.842366	0.090637	-1.735794
H	-2.506088	-0.28214	-1.047549
H	-2.125425	1.039392	-1.927433
N	0.049171	-1.30898	-2.045727
O	-0.199619	-2.333477	-1.414375
O	0.626235	-1.256032	-3.127917
Cl	-4.39313	0.0	0.0
