15
Coordinates from ORCA-job run
  C   0.79891247505538     -0.68343873799237      0.20114418316637
  C   -0.41576568648554      0.21818556754993      0.26175549743210
  Cl  0.84102516005000     -1.75065482645176      1.60728877334397
  H   -0.39745797269709      0.80195952940135      1.18132049685524
  H   0.83921521030407     -1.28771510725330     -0.70118199294964
  N   2.07048372085263      0.13242612643202      0.20513815753703
  O   3.02555462050669     -0.36040033449375     -0.38023187522078
  O   2.04414182579243      1.19759047565068      0.81263193937903
  C   -1.72679836794580     -0.53014996957589      0.08481595526565
  H   -2.55199343852243      0.18295071285655      0.09138096828647
  H   -1.73203868131360     -1.07114478095168     -0.86419507167195
  H   -1.87437800602229     -1.23880974001041      0.89894104218097
  N   -0.31538126121765      1.22306262071398     -0.85162770402986
  O   -0.91039857090623      2.28049587503344     -0.68717053390392
  O   0.30487897254942      0.88464258909121     -1.85900983567068
