15
Coordinates from ORCA-job run
  C   0.80574181984733     -0.66997030776228      0.21903761525499
  C   -0.42891178333742      0.20571483625671      0.24987647878559
  Cl  0.82119106497442     -1.75717446946658      1.61010846187901
  H   -0.45370942605670      0.77732602222168      1.17691062898962
  H   0.88985480408481     -1.25923145558785     -0.69018588256032
  N   2.05878130314504      0.17150586539913      0.27882451057397
  O   1.98940870839146      1.22696348191181      0.89974972433344
  O   3.04368578709918     -0.29306125177808     -0.27969183745516
  C   -1.71756045492900     -0.56603579182932      0.01816643080956
  H   -2.55677403894406      0.13041680373139      0.00582140023887
  H   -1.67932418257498     -1.09356645751432     -0.93765554353546
  H   -1.87860745337554     -1.28889384426570      0.81708484116114
  N   -0.31140104676827      1.22809273888421     -0.84584588212433
  O   -0.93470035198591      2.27017494577455     -0.68817304675370
  O   0.35132525042963      0.91773888402466     -1.83502789959723
