15
Coordinates from ORCA-job run
  C   0.78372543177072     -0.68524863458376      0.24825474024797
  C   -0.42826696404072      0.22184897072609      0.23491576736706
  Cl  0.73914907458564     -1.74622428074088      1.65920720178706
  H   -0.45800282206046      0.81138699490898      1.15053361425858
  H   0.87327673208648     -1.29406982102237     -0.64742528072116
  N   2.05655770032708      0.12456356622281      0.32274673475675
  O   2.00069762682031      1.19252245278793      0.92333080421529
  O   3.04180179763785     -0.37553512222177     -0.20352771011795
  C   -1.73141739148101     -0.52147959276462     -0.00860916336690
  H   -2.55070500725880      0.19657020791921     -0.05953239744768
  H   -1.68543390722609     -1.07548269851377     -0.94899746437450
  H   -1.93081800496168     -1.21786727929009      0.80500371150766
  N   -0.26138040071997      1.21902369296751     -0.87743982323205
  O   -0.87145009322044      2.27405877033626     -0.75894400568660
  O   0.42426622774109      0.87793277326846     -1.84051672919352
