15
Coordinates from ORCA-job run
  C   0.82484380256112     -0.60969150934908      0.30567272895637
  C   -0.46200067629622      0.18153957062593      0.20566727422416
  Cl  0.78724575345817     -1.66696532882874      1.71939172744288
  H   -0.60659625648918      0.76860076540980      1.11186516891882
  H   1.02831808476792     -1.20908929716760     -0.57766034392103
  N   2.01029488055778      0.31499593272949      0.45502146761398
  O   3.07049178492242     -0.09549517912498      0.00202816736714
  O   1.81594054891253      1.37774411625878      1.03557885376483
  C   -1.67198515526431     -0.67945118305040     -0.11755652048848
  H   -1.51489664025702     -1.22281151924523     -1.05213494255799
  H   -2.55033495752018     -0.04135863426807     -0.22159972025877
  H   -1.85592425079758     -1.39476855981028      0.68319251132248
  N   -0.31380760259990      1.18735018339527     -0.90167573926121
  O   -1.01689781886193      2.18706507475202     -0.82766535244099
  O   0.45530850290638      0.90333556767308     -1.81912528068220
