15

C	-0.328893	0.07597	-1.488437
C	0.0	0.0	0.0
F	-1.684739	0.374508	-1.683254
H	1.097659	0.0	0.0
H	-0.197906	-0.909401	-1.954528
N	0.457728	1.118894	-2.076331
H	0.493975	1.004249	-3.080906
H	1.408108	1.063702	-1.714017
C	-0.520028	-1.231591	0.580483
N	-0.975894	-2.206691	1.050775
C	-0.495595	1.227924	0.764885
H	-1.586101	1.275725	0.765155
H	-0.102102	2.125555	0.288752
H	-0.135245	1.190951	1.794452
Cl	3.351911	0.0	0.0
