15

C	-0.466682	0.043576	-1.448261
C	0.0	0.0	0.0
F	0.036419	-1.08755	-2.108822
H	1.09464	0.0	0.0
H	-0.015855	0.907722	-1.942944
N	-1.887074	0.111557	-1.561374
H	-2.293479	-0.71303	-1.131491
H	-2.148926	0.117549	-2.539531
C	-0.517544	-1.212172	0.631101
N	-1.016446	-2.157014	1.119844
C	-0.454222	1.243649	0.770153
H	-0.035849	1.223025	1.777759
H	-0.064388	2.132497	0.267998
H	-1.541469	1.314703	0.821217
Cl	3.395145	0.0	0.0
