15

C	-0.441143	-0.011986	-1.454007
C	0.0	0.0	0.0
F	-0.115672	-1.22195	-2.037216
H	1.096031	0.0	0.0
H	0.143877	0.749248	-1.991853
N	-1.877598	0.125914	-1.595843
H	-2.158792	1.053342	-1.300169
H	-2.106929	0.034411	-2.579618
C	-0.511034	-1.176498	0.697594
N	-0.908765	-2.116917	1.276899
C	-0.44137	1.284312	0.710027
H	0.037158	1.338696	1.688509
H	-1.524596	1.327456	0.850537
H	-0.109153	2.154744	0.136709
Cl	3.393658	0.0	0.0
