15

C	-0.354585	-0.085618	-1.4871
C	0.0	0.0	0.0
F	-0.186024	1.213775	-2.037015
H	1.097773	0.0	0.0
H	-1.411687	-0.315207	-1.662405
N	0.474239	-1.047031	-2.099574
H	0.363499	-1.048669	-3.105164
H	1.44891	-0.886762	-1.849491
C	-0.489772	-1.206176	0.660939
N	-0.952467	-2.150745	1.183941
C	-0.531121	1.253591	0.688748
H	-0.246461	1.246022	1.742157
H	-1.621675	1.316206	0.619792
H	-0.093508	2.132157	0.217847
Cl	3.387389	0.0	0.0
