14

C	-0.397658	0.064418	-1.464994
C	0.0	0.0	0.0
F	-1.767455	0.294064	-1.608164
H	1.09675	0.0	0.0
H	0.124953	0.908741	-1.923893
C	-0.073024	-1.162175	-2.207848
N	0.151124	-2.151172	-2.799576
C	-0.527623	-1.200293	0.640233
N	-0.968915	-2.140263	1.189309
C	-0.454167	1.261472	0.73939
H	-1.541049	1.358505	0.747558
H	-0.014354	2.137542	0.256743
H	-0.086297	1.229119	1.765635
Cl	3.271532	0.0	0.0
