14

C	-0.509366	0.017024	-1.438048
C	0.0	0.0	0.0
F	-0.089992	-1.105577	-2.121851
H	1.095604	0.0	0.0
H	-1.606618	0.006942	-1.450119
C	-0.066055	1.219854	-2.164138
N	0.218831	2.195235	-2.751333
C	-0.509722	-1.211233	0.637139
N	-0.986165	-2.159217	1.141304
C	-0.463538	1.245627	0.761951
H	-0.011882	2.134201	0.317748
H	-0.120173	1.181623	1.795156
H	-1.553441	1.349489	0.759569
Cl	3.288924	0.0	0.0
