14

C	-0.411697	0.000208	-1.472579
C	0.0	0.0	0.0
F	0.008201	1.174738	-2.068363
H	1.096163	0.0	0.0
H	0.073982	-0.830581	-1.992032
C	-1.875803	-0.091167	-1.649136
N	-3.041622	-0.14392	-1.780534
C	-0.47439	-1.241403	0.604775
N	-0.887909	-2.229501	1.087682
C	-0.51502	1.225214	0.751723
H	-0.134408	1.206941	1.773872
H	-0.134708	2.124037	0.266237
H	-1.608019	1.25898	0.778567
Cl	3.304028	0.0	0.0
