14

C	-0.395061	0.068461	-1.466532
C	0.0	0.0	0.0
F	-1.750376	0.369054	-1.614192
H	1.096785	0.0	0.0
H	0.173134	0.878095	-1.9335
C	-0.140126	-1.182502	-2.195873
N	0.011445	-2.189015	-2.779783
C	-0.535221	-1.193051	0.646268
N	-0.981833	-2.128587	1.198687
C	-0.442839	1.267855	0.736478
H	-0.008846	2.140104	0.241647
H	-0.059472	1.241393	1.757302
H	-1.529197	1.367302	0.759435
Cl	3.267006	0.0	0.0
