14

C	-0.3955	0.095316	-1.464694
C	0.0	0.0	0.0
F	-1.751976	0.394309	-1.60564
H	1.096694	0.0	0.0
H	0.16958	0.915826	-1.916324
C	-0.136629	-1.14077	-2.217531
N	0.019648	-2.137449	-2.816673
C	-0.534281	-1.205649	0.623552
N	-0.977914	-2.153377	1.157378
C	-0.44391	1.25341	0.759928
H	-1.530464	1.351173	0.784948
H	-0.011029	2.135302	0.281327
H	-0.060403	1.208488	1.779994
Cl	3.267536	0.0	0.0
