14

C	-0.507272	-0.009083	-1.437935
C	0.0	0.0	0.0
F	-0.081603	-1.13924	-2.104152
H	1.095628	0.0	0.0
H	-1.604771	-0.024412	-1.452209
C	-0.070917	1.186759	-2.181543
N	0.201428	2.154218	-2.787918
C	-0.501773	-1.2038	0.659369
N	-0.968905	-2.146661	1.181646
C	-0.467821	1.255319	0.743229
H	-0.121024	1.209419	1.776087
H	-0.022913	2.139688	0.283541
H	-1.558427	1.352484	0.742924
Cl	3.289362	0.0	0.0
