14

C	-0.403987	0.055612	-1.46352
C	0.0	0.0	0.0
F	-1.779949	0.254454	-1.60063
H	1.096734	0.0	0.0
H	0.097038	0.911645	-1.926075
C	-0.055079	-1.164151	-2.20698
N	0.191096	-2.147776	-2.79912
C	-0.522016	-1.200635	0.645222
N	-0.951807	-2.144139	1.197378
C	-0.458135	1.262225	0.735529
H	-0.091542	1.233546	1.762355
H	-1.54541	1.355749	0.742417
H	-0.020501	2.138571	0.251334
Cl	3.276873	0.0	0.0
