14

C	-0.495987	0.016222	-1.442703
C	0.0	0.0	0.0
F	-0.038267	-1.088132	-2.131727
H	1.095601	0.0	0.0
H	-1.592717	-0.024816	-1.464875
C	-0.084974	1.235645	-2.16075
N	0.208251	2.202412	-2.756207
C	-0.5175	-1.219805	0.615497
N	-0.981717	-2.172313	1.122992
C	-0.475189	1.237554	0.765896
H	-0.027472	2.132502	0.32916
H	-1.566371	1.334387	0.757496
H	-0.137434	1.169556	1.80057
Cl	3.292226	0.0	0.0
