14

C	-0.41169	-0.001695	-1.472675
C	0.0	0.0	0.0
F	-0.003573	1.177663	-2.06714
H	1.096108	0.0	0.0
H	0.082376	-0.826862	-1.992831
C	-1.874109	-0.107947	-1.649091
N	-3.037856	-0.177791	-1.786399
C	-0.473487	-1.241369	0.60614
N	-0.890379	-2.22908	1.086946
C	-0.517892	1.225666	0.748545
H	-0.136109	2.124187	0.263704
H	-1.610965	1.25912	0.771442
H	-0.14096	1.208123	1.772017
Cl	3.29654	0.0	0.0
