16

C	-0.529711	0.018007	-1.430748
C	0.0	0.0	0.0
Cl	0.169403	-1.251338	-2.454152
H	1.094019	0.0	0.0
H	-1.61663	-0.083999	-1.485637
N	-0.269645	1.359735	-2.064417
O	-1.223455	2.146463	-2.023119
O	0.839163	1.610288	-2.512045
C	-0.528013	-1.233502	0.713325
H	-0.097862	-1.23773	1.716019
H	-0.227396	-2.153749	0.206838
H	-1.624335	-1.217367	0.8076
N	-0.39303	1.206001	0.730244
H	0.347794	1.887012	0.614058
H	-1.263196	1.609554	0.40287
F	2.628921	0.0	0.0
