16

C	-0.392761	-0.014306	-1.454815
C	0.0	0.0	0.0
Cl	0.175449	1.418877	-2.332763
H	1.102056	0.0	0.0
H	0.035278	-0.886185	-1.943366
N	-1.885846	-0.141317	-1.640594
O	-2.59023	0.860191	-1.637565
O	-2.301025	-1.302983	-1.697541
C	-0.455161	-1.269211	0.699827
H	-0.132206	-2.156094	0.150113
H	-1.540588	-1.308831	0.839975
H	0.031708	-1.303664	1.679255
N	-0.580527	1.168614	0.686678
H	-0.224944	1.116604	1.637165
H	-0.128477	1.990163	0.293707
F	2.645473	0.0	0.0
