16

C	-0.298723	-0.098526	-1.490123
C	0.0	0.0	0.0
Cl	0.130787	1.368455	-2.38339
H	1.09474	0.0	0.0
H	0.24768	-0.928832	-1.93222
N	-1.753373	-0.393202	-1.736015
O	-2.038055	-1.55184	-2.047078
O	-2.57596	0.493291	-1.505276
C	-0.502038	-1.249938	0.703783
H	-1.597305	-1.289693	0.772846
H	-0.095094	-1.23609	1.715615
H	-0.151067	-2.158111	0.205125
N	-0.477809	1.200328	0.662716
H	0.20223	1.93227	0.498249
H	-1.37153	1.502356	0.291472
F	2.626054	0.0	0.0
