16

C	-0.639534	0.082205	-1.36698
C	0.0	0.0	0.0
Cl	0.030257	-1.090615	-2.526221
H	1.0937	0.0	0.0
H	-1.72103	-0.065782	-1.347738
N	-0.482986	1.462957	-1.948624
O	0.646374	1.885303	-2.140845
O	-1.530195	2.070456	-2.178343
C	-0.443312	-1.27297	0.704077
H	-1.526151	-1.284468	0.903648
H	-0.187067	-2.162457	0.124348
H	0.092403	-1.337139	1.654179
N	-0.407308	1.216026	0.720756
H	0.436191	1.584682	1.144044
H	-1.073069	1.008199	1.455247
F	2.6279	0.0	0.0
