16

C	-0.335674	0.00342	-1.458399
C	0.0	0.0	0.0
Cl	-2.111251	-0.107674	-1.838204
H	1.098149	0.0	0.0
H	0.013163	0.927591	-1.90574
N	0.332327	-1.090803	-2.243094
O	0.141865	-2.25512	-1.907613
O	1.021555	-0.730235	-3.194653
C	-0.507847	-1.171034	0.818874
H	-0.109258	-2.11712	0.455162
H	-1.603929	-1.229851	0.825086
H	-0.158743	-1.030957	1.845951
N	-0.421611	1.310672	0.504005
H	-1.354109	1.247372	0.897806
H	0.219246	1.55946	1.248096
F	2.618377	0.0	0.0
