17

C	-0.345993	0.000877	-1.464413
C	0.0	0.0	0.0
F	-1.74129	0.000744	-1.70907
H	1.097264	0.0	0.0
C	0.185916	1.197482	-2.147568
N	0.586729	2.138151	-2.724453
C	0.186342	-1.194583	-2.149272
N	0.587595	-2.13434	-2.72741
C	-0.495706	-1.265389	0.683696
H	-0.056451	-2.1564	0.227387
H	-1.588608	-1.36108	0.670509
H	-0.163149	-1.246757	1.724871
C	-0.495622	1.264757	0.68492
H	-0.056383	2.156155	0.229382
H	-0.162931	1.245142	1.72603
H	-1.588509	1.36049	0.671948
F	2.586708	0.0	0.0
