17

C	-0.36764	-0.00703	-1.470157
C	0.0	0.0	0.0
F	0.075979	1.151719	-2.096673
H	1.097095	0.0	0.0
C	0.235927	-1.154256	-2.179873
N	0.703364	-2.048909	-2.779283
C	-1.837158	-0.061665	-1.681837
N	-3.006605	-0.122203	-1.782612
C	-0.469409	-1.280048	0.675741
H	-0.020868	-2.159863	0.206453
H	-1.562125	-1.397301	0.682208
H	-0.121273	-1.265398	1.711842
C	-0.539351	1.245804	0.681756
H	-1.636145	1.260969	0.753241
H	-0.20493	2.145684	0.162524
H	-0.128877	1.284971	1.694321
F	2.597603	0.0	0.0
