17

C	-0.364851	0.020358	-1.470844
C	0.0	0.0	0.0
F	0.078086	-1.133029	-2.107246
H	1.097089	0.0	0.0
C	-1.833795	0.078741	-1.685227
N	-3.004513	0.117908	-1.781854
C	0.242265	1.174487	-2.167291
N	0.685953	2.082248	-2.765307
C	-0.53939	-1.252039	0.670275
H	-0.205418	-2.14698	0.142315
H	-0.128146	-1.300991	1.682006
H	-1.636066	-1.267647	0.741953
C	-0.470536	1.27395	0.686376
H	-0.122621	1.250805	1.722342
H	-1.563407	1.389831	0.693555
H	-0.022822	2.158371	0.224703
F	2.597214	0.0	0.0
