17

C	-0.371329	-0.019666	-1.468413
C	0.0	0.0	0.0
F	0.085899	1.12479	-2.110671
H	1.097095	0.0	0.0
C	0.214718	-1.185555	-2.162482
N	0.654112	-2.108179	-2.740753
C	-1.842501	-0.056217	-1.675879
N	-3.01355	-0.08379	-1.771057
C	-0.473592	-1.271206	0.689592
H	-1.566703	-1.381325	0.700857
H	-0.121964	-1.248444	1.724128
H	-0.032686	-2.158156	0.226859
C	-0.530626	1.254934	0.672698
H	-0.194194	2.148287	0.143639
H	-1.626686	1.2757	0.748779
H	-0.1151	1.301095	1.682689
F	2.602466	0.0	0.0
