14

C	-0.608974	-0.004176	-1.373678
C	0.0	0.0	0.0
Cl	-0.022736	1.44771	-2.238948
H	1.089332	0.0	0.0
H	-0.258434	0.92318	0.518798
N	-0.154829	-1.204183	-2.22583
O	0.917533	-1.70465	-1.944884
O	-0.891114	-1.493757	-3.162425
C	-2.069855	0.0173	-1.379489
N	-3.240782	0.113622	-1.330603
N	-0.486482	-1.107875	0.778635
O	-0.274319	-1.069017	1.998106
O	-0.984836	-2.081047	0.176178
H	2.465186	0.0	0.0
