14

C	-0.433511	-0.020762	-1.432471
C	0.0	0.0	0.0
Cl	-2.22777	0.046442	-1.642932
H	1.092545	0.0	0.0
H	-0.33908	0.904725	0.49557
N	0.089471	1.295996	-2.063827
O	0.622073	1.222694	-3.16112
O	-0.108909	2.311908	-1.416714
C	0.076578	-1.126041	-2.235363
N	0.474701	-1.997191	-2.916266
N	-0.457173	-1.138535	0.750203
O	-0.612351	-2.219744	0.159412
O	-0.547891	-0.990026	1.97785
H	2.483695	0.0	0.0
