14

C	-0.504581	0.000803	-1.4268
C	0.0	0.0	0.0
Cl	0.308462	1.162883	-2.465543
H	1.089424	0.0	0.0
H	-0.313985	-0.906336	0.512781
N	-0.219895	-1.446634	-1.959977
O	-0.819628	-2.324653	-1.351287
O	0.532766	-1.59578	-2.904038
C	-1.953693	0.159485	-1.544259
N	-3.122011	0.23911	-1.652662
N	-0.47883	1.126021	0.764716
O	-0.360831	1.032871	1.993521
O	-0.864837	2.145759	0.169396
H	2.502387	0.0	0.0
