15

C	0.0	0.0	0.0
C	-0.532144	0.067288	-1.421875
F	1.359112	0.0	0.0
H	-1.623	-0.075063	-1.333326
H	-0.375468	0.812805	0.618254
N	-0.379371	-1.257716	0.747649
O	-0.397885	-1.143885	1.97015
O	-0.535092	-2.300155	0.120292
C	0.104379	-0.912022	-2.414029
H	-0.277296	-0.700978	-3.414203
H	1.190196	-0.802926	-2.428481
H	-0.15214	-1.933383	-2.147858
C	-0.294185	1.437143	-1.885431
N	-0.062417	2.509178	-2.306093
Br	-3.600896	0.0	0.0
