15

C	0.0	0.0	0.0
C	-0.530459	0.471833	-1.338068
F	1.352941	0.0	0.0
H	-0.154532	1.50061	-1.422076
H	-0.371025	0.608973	0.824605
N	-0.386647	-1.422532	0.348927
O	-0.76672	-2.168904	-0.545783
O	-0.208395	-1.722919	1.526433
C	-2.059948	0.497699	-1.403716
H	-2.500086	-0.489359	-1.2965
H	-2.488703	1.110725	-0.611042
H	-2.380949	0.903939	-2.363179
C	0.087223	-0.273101	-2.440993
N	0.602785	-0.819193	-3.342691
Br	-5.170359	0.0	0.0
