13

C	-0.484854	-0.049305	-1.44471
C	0.0	0.0	0.0
F	-0.216049	1.157101	-2.076391
H	1.095621	0.0	0.0
H	-1.568093	-0.208676	-1.49354
H	0.035347	-0.839396	-1.990342
C	-0.470188	-1.218991	0.656024
N	-0.905096	-2.190534	1.153384
C	-0.49942	1.242608	0.736797
H	-0.127115	1.242153	1.762289
H	-1.59314	1.28866	0.754612
H	-0.112486	2.128394	0.233787
Br	3.53798	0.0	0.0
