13

C	-0.392953	0.005964	-1.461291
C	0.0	0.0	0.0
F	-1.781416	0.089736	-1.61565
H	1.097229	0.0	0.0
H	-0.056981	-0.903643	-1.962319
H	0.049777	0.877599	-1.949858
C	-0.489641	-1.211118	0.657873
N	-0.914286	-2.170748	1.187215
C	-0.482821	1.2505	0.736355
H	-0.060151	2.134543	0.252274
H	-0.132481	1.236085	1.769483
H	-1.572367	1.323136	0.726536
Br	3.506795	0.0	0.0
