15

C	0.0	0.0	0.0
C	-0.415227	-0.179224	-1.481421
Cl	1.784814	0.0	0.0
H	0.460557	0.037014	-2.105819
H	-0.337058	-0.859564	0.56723
C	-0.442973	1.197957	0.708446
N	-0.577239	2.117667	1.428254
N	-1.388048	0.847862	-1.983834
O	-1.133132	2.016512	-1.710624
O	-2.233704	0.489669	-2.795174
C	-0.919498	-1.583533	-1.728769
H	-0.184739	-2.303615	-1.356763
H	-1.085283	-1.763919	-2.790344
H	-1.850472	-1.650447	-1.169206
F	-2.350476	0.0	0.0
