15

C	0.0	0.0	0.0
C	-0.227541	0.060689	-1.558885
Cl	1.783174	0.0	0.0
H	0.346033	-0.78545	-1.942256
H	-0.380984	-0.948105	0.35966
C	-0.520165	1.085199	0.820009
N	-0.65382	1.971005	1.582837
N	0.519501	1.244012	-2.122804
O	0.283907	2.348533	-1.642756
O	1.259844	1.038113	-3.086039
C	-1.573002	0.092166	-2.259835
H	-2.132114	0.976895	-1.977645
H	-1.36513	0.066343	-3.33906
H	-2.167997	-0.7542	-1.940769
F	-2.390801	0.0	0.0
