14

C	0.0	0.0	0.0
C	-0.372628	-0.30895	-1.452241
Br	1.980435	0.0	0.0
H	0.143257	-1.225508	-1.754288
H	-0.260591	-0.833637	0.653729
H	0.037939	0.495306	-2.07586
N	-0.531691	1.203855	0.550533
H	-1.464614	1.020096	0.905362
H	-0.608028	1.911466	-0.169064
C	-1.873572	-0.444751	-1.66657
H	-2.079942	-0.711756	-2.706535
H	-2.320913	-1.208557	-1.030877
H	-2.424691	0.466285	-1.443426
Br	-4.943834	0.0	0.0
