15

C	0.0	0.0	0.0
C	-0.295674	-0.035805	-1.522284
Br	1.946859	0.0	0.0
H	0.399611	-0.749689	-1.969124
H	-1.304926	-0.410918	-1.665881
C	-0.538048	1.139496	0.712255
N	-0.600356	2.180062	1.275042
N	-0.402831	-1.270198	0.681909
O	-0.399205	-2.287068	-0.019457
O	-0.454057	-1.260449	1.913462
C	-0.147429	1.34424	-2.149192
H	-0.907799	2.02541	-1.760154
H	-0.27233	1.27577	-3.234941
H	0.833614	1.777246	-1.946006
H	-2.035428	0.0	0.0
