15

C	0.0	0.0	0.0
C	-0.306988	-0.027987	-1.521564
Br	1.947029	0.0	0.0
H	0.449607	-0.659694	-1.992321
H	-1.275284	-0.495408	-1.671027
C	-0.529278	1.132348	0.728546
N	-0.580587	2.163285	1.310092
N	-0.407712	-1.279732	0.669966
O	-0.419338	-2.288974	-0.042428
O	-0.454867	-1.282185	1.901248
C	-0.296181	1.375215	-2.10952
H	-0.387999	1.325691	-3.198045
H	-1.135862	1.951687	-1.715777
H	0.626851	1.906925	-1.870812
H	-2.032814	0.0	0.0
