15

C	0.0	0.0	0.0
C	-0.300048	-0.070953	-1.522282
Br	1.946951	0.0	0.0
H	-1.29324	-0.487377	-1.656018
H	0.421651	-0.762122	-1.960822
C	-0.540997	1.153011	0.68547
N	-0.583244	2.209352	1.22274
N	-0.411705	-1.260554	0.704552
O	-0.420907	-2.290465	0.022177
O	-0.465277	-1.225687	1.935414
C	-0.208483	1.301286	-2.174233
H	0.787622	1.736263	-2.061265
H	-0.935813	1.984518	-1.729054
H	-0.424514	1.21703	-3.244393
H	-2.038297	0.0	0.0
