15

C	0.0	0.0	0.0
C	-0.268633	-0.168416	-1.52855
Br	1.962976	0.0	0.0
H	0.403967	0.554909	-2.002629
H	-1.291724	0.14289	-1.721786
C	-0.519911	1.271786	0.470961
N	-0.58489	2.412283	0.781859
N	-0.387861	-1.08168	0.95541
O	-0.458996	-0.759333	2.143074
O	-0.376112	-2.24522	0.54771
C	-0.041627	-1.541819	-2.152621
H	-0.078084	-1.42853	-3.242077
H	0.9277	-1.962926	-1.885436
H	-0.815062	-2.243536	-1.846411
H	-2.00142	0.0	0.0
