16

C	0.0	0.0	0.0
C	-0.423676	-0.047566	-1.465877
Cl	1.756661	0.0	0.0
H	0.105826	-0.874582	-1.937351
H	-0.378629	0.864066	0.538578
N	-0.464256	-1.229239	0.731114
O	-0.455975	-2.28556	0.10745
O	-0.758049	-1.074127	1.910397
N	0.14177	1.185497	-2.112313
O	-0.024853	2.25609	-1.532606
O	0.693696	1.042506	-3.201251
C	-1.906009	-0.091151	-1.757276
H	-2.446296	0.750673	-1.330564
H	-2.368232	-0.983466	-1.34141
H	-2.034862	-0.104498	-2.843382
Cl	-4.671849	0.0	0.0
