16

C	0.0	0.0	0.0
C	-0.637759	-0.273181	-1.347603
Cl	1.749105	0.0	0.0
H	-1.683601	-0.552214	-1.127314
H	-0.356917	0.961418	0.362272
N	-0.436636	-0.982347	1.07787
O	-0.912771	-2.054063	0.737923
O	-0.241307	-0.599356	2.227338
N	-0.034997	-1.420806	-2.103384
O	0.673596	-2.23118	-1.513651
O	-0.340996	-1.503878	-3.293232
C	-0.646309	0.981606	-2.199798
H	0.365224	1.358525	-2.376275
H	-1.242527	1.73265	-1.679124
H	-1.123619	0.773622	-3.154284
Cl	-3.51195	0.0	0.0
