16

C	0.0	0.0	0.0
C	-0.507965	-0.237531	-1.411314
Cl	1.756553	0.0	0.0
H	-0.068057	-1.155657	-1.798553
H	-0.360128	0.93481	0.421794
N	-0.444192	-1.100526	0.928567
O	-0.568887	-0.784628	2.106093
O	-0.582829	-2.221249	0.450631
N	0.063987	0.858714	-2.261601
O	-0.049818	2.010103	-1.847036
O	0.569702	0.531943	-3.333169
C	-2.016293	-0.210926	-1.544566
H	-2.280718	-0.249261	-2.604001
H	-2.478855	-1.062241	-1.05047
H	-2.463862	0.676931	-1.101616
Cl	-4.917203	0.0	0.0
