14

C	0.0	0.0	0.0
C	-0.517904	0.123476	-1.417514
F	1.369171	0.0	0.0
H	-1.616059	0.109249	-1.376378
H	-0.177028	-0.73391	-1.997388
N	-0.510292	0.965711	0.853834
H	-1.53142	0.971264	0.756958
H	-0.270197	0.746033	1.813325
N	-0.274003	-1.465476	0.501713
O	-0.291801	-2.371514	-0.323973
O	-0.358875	-1.603371	1.718232
C	-0.031965	1.353188	-2.032512
N	0.369426	2.314698	-2.572299
Br	-3.694541	0.0	0.0
