14

C	0.0	0.0	0.0
C	-0.509172	-0.063119	-1.424277
F	1.376556	0.0	0.0
H	-1.607455	-0.087088	-1.388323
H	-0.151372	-0.981082	-1.88937
N	-0.507337	1.070639	0.718571
H	-1.528393	1.069079	0.617364
H	-0.270418	0.973846	1.698706
N	-0.273276	-1.382074	0.691032
O	-0.288918	-1.362162	1.917642
O	-0.359008	-2.383914	-0.009566
C	-0.035664	1.086754	-2.1855
N	0.343755	1.983285	-2.840917
Br	-3.684382	0.0	0.0
