14

C	0.0	0.0	0.0
C	-0.525828	0.089632	-1.420804
F	1.373725	0.0	0.0
H	-0.480997	1.145684	-1.697656
H	-1.582446	-0.206471	-1.416999
N	-0.511585	1.006264	0.813972
H	-1.533345	1.003302	0.706003
H	-0.289324	0.794435	1.780402
N	-0.273991	-1.425866	0.571665
O	-0.547174	-2.329045	-0.208489
O	-0.128426	-1.537827	1.78618
C	0.254081	-0.683669	-2.379161
N	0.874071	-1.258626	-3.192814
Br	-3.691328	0.0	0.0
