12

C	-0.521494	0.019163	-1.433023
C	0.0	0.0	0.0
Br	-0.063216	-1.611868	-2.36572
H	1.090698	0.0	0.0
H	-1.60577	0.112841	-1.454381
H	-0.041605	0.840012	-1.966099
C	-0.543584	-1.104504	0.779988
N	-0.974257	-1.997768	1.409205
N	-0.495277	1.291168	0.620147
O	0.325818	2.171608	0.841654
O	-1.71076	1.374732	0.809957
Cl	3.245766	0.0	0.0
