12

C	-0.376419	0.021174	-1.460991
C	0.0	0.0	0.0
Br	-2.303523	0.041806	-1.764155
H	1.095803	0.0	0.0
H	0.036704	0.911278	-1.92714
H	0.017716	-0.873636	-1.939364
C	-0.515665	-1.153978	0.717981
N	-0.904581	-2.120303	1.260291
N	-0.410483	1.267772	0.691581
O	-0.726348	1.198577	1.874877
O	-0.339987	2.297508	0.028559
Cl	3.147367	0.0	0.0
