12

C	-0.49549	0.049309	-1.439066
C	0.0	0.0	0.0
Br	-0.14542	-1.629828	-2.344057
H	1.094714	0.0	0.0
H	0.049225	0.821454	-1.975949
H	-1.569309	0.227636	-1.49326
C	-0.541218	-1.111255	0.766359
N	-0.993093	-2.022964	1.352764
N	-0.377263	1.289509	0.688381
O	-0.459693	1.279811	1.911375
O	-0.519103	2.277457	-0.029706
Cl	3.169617	0.0	0.0
