12

C	-0.539408	0.04056	-1.425264
C	0.0	0.0	0.0
Br	-0.062798	-1.559766	-2.401076
H	1.090678	0.0	0.0
H	-1.626002	0.114648	-1.427256
H	-0.085544	0.88371	-1.944824
C	-0.52949	-1.124037	0.7654
N	-0.938329	-2.035852	1.382355
N	-0.490969	1.276437	0.652514
O	-1.705924	1.356345	0.847593
O	0.332256	2.149094	0.892908
Cl	3.237536	0.0	0.0
