12

C	-0.542159	-0.052159	-1.41945
C	0.0	0.0	0.0
Br	0.014699	1.496447	-2.442426
H	1.090974	0.0	0.0
H	-1.630438	-0.068921	-1.425448
H	-0.130572	-0.931014	-1.91498
C	-0.504716	-1.154924	0.738344
N	-0.927968	-2.100282	1.292626
N	-0.525784	1.235327	0.695029
O	0.270921	1.925287	1.314629
O	-1.734837	1.44277	0.589285
Cl	3.237493	0.0	0.0
