12

C	-0.379832	-0.239775	-1.439891
C	0.0	0.0	0.0
Br	-2.307136	-0.258315	-1.74042
H	1.093469	0.0	0.0
H	0.005887	-1.209414	-1.748734
H	0.039572	0.547225	-2.059922
C	-0.519769	-1.001775	0.915573
N	-0.908503	-1.859002	1.618346
N	-0.397749	1.375552	0.452858
O	-0.329744	2.265766	-0.387885
O	-0.692785	1.525738	1.634531
Cl	3.148839	0.0	0.0
