12

C	-0.523137	0.01582	-1.433211
C	0.0	0.0	0.0
Br	-0.060768	-1.61899	-2.3538
H	1.090718	0.0	0.0
H	-0.041491	0.833553	-1.971473
H	-1.607703	0.109734	-1.455185
C	-0.542773	-1.103862	0.782811
N	-0.967864	-1.998723	1.41311
N	-0.491311	1.293076	0.617604
O	0.334767	2.161679	0.860231
O	-1.707914	1.385683	0.787926
Cl	3.252721	0.0	0.0
