13

C	-0.572192	-0.012531	-1.394702
C	0.0	0.0	0.0
Cl	0.254953	1.076032	-2.49568
H	1.088567	0.0	0.0
H	-1.633748	0.222682	-1.42863
H	-0.316181	-0.894213	0.540191
N	-0.489786	-1.442897	-1.901109
O	0.315724	-1.748063	-2.765124
O	-1.289999	-2.205971	-1.361787
N	-0.52332	1.138275	0.762481
O	-1.187609	2.007369	0.180271
O	-0.251071	1.166784	1.962967
F	2.509429	0.0	0.0
