13

C	-0.643905	-0.010466	-1.354787
C	0.0	0.0	0.0
Cl	-0.244353	1.497486	-2.208534
H	1.087256	0.0	0.0
H	-1.72863	-0.103555	-1.348123
H	-0.288244	0.912329	0.526397
N	-0.199343	-1.151495	-2.247161
O	-1.029021	-1.506296	-3.083631
O	0.923589	-1.603906	-2.105578
N	-0.517962	-1.111417	0.798227
O	-1.002605	-2.082551	0.200141
O	-0.412802	-1.038714	2.02223
F	2.494223	0.0	0.0
