13

C	-0.522846	-0.121272	-1.39652
C	0.0	0.0	0.0
Cl	-2.292706	-0.342869	-1.494207
H	1.090398	0.0	0.0
H	-0.062987	-1.003047	-1.840495
H	-0.325561	-0.869044	0.571706
N	-0.092295	1.013016	-2.319986
O	1.110691	1.018531	-2.544841
O	-0.923988	1.781554	-2.77947
N	-0.508715	1.174044	0.704649
O	-0.753849	1.060284	1.907592
O	-0.60524	2.228509	0.072051
F	2.498268	0.0	0.0
