18

C	0.0	0.0	0.0
C	-0.366516	-0.085951	-1.530998
Br	1.965575	0.0	0.0
H	0.559887	0.178598	-2.04164
C	-0.389028	1.307197	0.684703
H	0.02393	1.333675	1.697437
H	0.025233	2.147072	0.124652
H	-1.479718	1.332667	0.70429
C	-0.416311	-1.164352	0.774933
N	-0.560894	-2.122251	1.444168
C	-1.432046	0.863482	-2.087489
H	-1.359447	1.875042	-1.685128
H	-1.273962	0.913632	-3.177057
H	-2.421769	0.491775	-1.828919
N	-0.625082	-1.487485	-1.867684
H	-0.678622	-1.543587	-2.88012
H	-1.557026	-1.689925	-1.51099
H	-2.922904	0.0	0.0
