18

C	0.0	0.0	0.0
C	-0.60819	0.001256	-1.404051
Br	1.96446	0.0	0.0
H	-1.694799	-0.048118	-1.141562
C	-0.513801	1.18139	0.80157
H	-0.130094	1.159894	1.824012
H	-1.612612	1.075888	0.793321
H	-0.215183	2.100755	0.298981
C	-0.337347	-1.255678	0.685172
N	-0.52893	-2.276648	1.236053
C	-0.221405	-1.203477	-2.246426
H	0.846529	-1.185105	-2.49351
H	-0.793851	-1.186113	-3.178593
H	-0.441058	-2.142078	-1.732507
N	-0.334633	1.277227	-2.058704
H	-1.196673	1.63299	-2.452519
H	0.337526	1.153885	-2.805933
H	-3.270454	0.0	0.0
