18

C	0.0	0.0	0.0
C	-0.265238	0.126658	-1.559239
Br	1.970669	0.0	0.0
H	0.583029	-0.42784	-1.995719
C	-0.2533	1.246466	0.893409
H	0.268882	2.104307	0.478214
H	-1.319896	1.427848	0.972072
H	0.163278	1.042199	1.883745
C	-0.638352	-1.176441	0.568422
N	-0.714219	-2.152154	1.242834
C	-0.144337	1.567314	-2.03609
H	-0.208345	1.584994	-3.124518
H	-0.990969	2.140078	-1.644963
H	0.795541	2.032814	-1.740962
N	-1.502195	-0.412001	-2.152122
H	-1.230744	-0.797626	-3.063157
H	-1.860549	-1.170387	-1.561649
H	-2.119025	0.0	0.0
