16

C	-0.006934	-0.009916	0.01794
C	-0.593312	-0.089194	-1.402738
Cl	1.816263	0.084174	-0.059438
H	-1.729302	-0.047023	-1.128265
N	-0.513403	1.212811	0.577241
H	-0.261009	1.250071	1.559468
H	-1.540134	1.098311	0.492764
C	-0.376672	-1.262911	0.798388
H	-0.007066	-1.172201	1.823275
H	0.036827	-2.170781	0.354725
H	-1.469205	-1.286801	0.793066
C	-0.265782	-1.326399	-2.091741
N	-0.027948	-2.33704	-2.643366
C	-0.245924	1.063645	-2.221513
N	0.005006	1.966856	-2.93011
F	-2.881474	0.160601	-0.169983
