16

C	-0.014011	-0.015168	0.022919
C	-0.601191	-0.231989	-1.399663
Cl	1.798115	0.101485	-0.091193
H	-1.74613	-0.18407	-1.104231
N	-0.516699	1.196218	0.615383
H	-0.241702	1.985194	0.037193
H	-1.540371	1.080733	0.527222
C	-0.384842	-1.191447	0.902801
H	-0.008171	-1.006494	1.909288
H	-1.476723	-1.221875	0.905361
H	0.02497	-2.127252	0.519886
C	-0.242754	-1.498456	-2.009332
N	0.024062	-2.540234	-2.486067
C	-0.304832	0.882601	-2.28208
N	-0.090882	1.809164	-2.973927
F	-2.876048	0.116055	-0.213659
