13
Coordinates from ORCA-job run
  C   0.45310163779789      0.36396309893830     -0.46467925124596
  C   -0.96328472287327     -0.02690674809151     -0.06410370768274
  H   0.73713307871083     -0.14102143424764     -1.38927168849315
  H   -1.62485219763952      0.33144810004652     -0.85718225466359
  H   -1.22920644744820      0.49825114286673      0.85893584633192
  N   1.44933045946750     -0.13392971984178      0.56716774712012
  O   2.59142000228494     -0.31724693514078      0.16743790745300
  O   1.04093392029215     -0.29109213111302      1.71326830129468
  C   0.63099599113470      1.80820363341630     -0.58947558604645
  N   0.72296072937333      2.97449686311433     -0.68997897630447
  N   -1.02910031989409     -1.47786696400981      0.01738766590167
  H   -1.95060081365116     -1.80821799789320     -0.23165347197279
  H   -0.82983131755510     -1.78108090804445      0.96114746830778
