13
Coordinates from ORCA-job run
  C   0.57378767288086      0.11131074062527     -0.38799225029784
  C   -0.59761948515503     -0.56498181240178      0.33763042755215
  H   0.71594104631189     -0.35145577964244     -1.36464120954241
  H   -0.36471360766422     -1.63092983254229      0.39963307546876
  H   -0.64697486819628     -0.16166837717108      1.35762759567811
  N   1.82841421722552     -0.14375627934114      0.40403490333247
  O   2.06678782658940      0.60900279443192      1.34217996254362
  O   2.46685476683557     -1.14112721823810      0.08188746059964
  C   0.34649191136534      1.54503179201687     -0.52351262584384
  N   0.09399769849513      2.68562183693965     -0.63940278478898
  N   -1.79105479227960     -0.37307333402555     -0.46734495575337
  H   -2.22396164423399      0.51727083444180     -0.25706626105658
  H   -2.46695074217460     -1.10124536509313     -0.28203333789173
