16
Coordinates from ORCA-job run
  C   -0.96662147462574     -0.33725791943401      0.01188229413637
  C   0.56225521592873     -0.37874867973376      0.01581124631449
  Cl  -1.61761438863354      0.10335009130151      1.62267814157115
  H   0.83091254730877     -0.56685263415606     -1.03974664394222
  H   -1.32876371633628     -1.35407411631103     -0.17104035359593
  C   -1.54797808793904      0.59828208077130     -1.03344424411898
  H   -1.30093714685308      1.63735731826537     -0.81292276524056
  H   -2.63498330715079      0.51112093081273     -1.05780901921153
  H   -1.15825233078572      0.34507817411251     -2.02369058221210
  N   1.01655666110658     -1.44331835470528      0.90358184380846
  H   2.02867491416078     -1.44456559219032      0.94593589470186
  H   0.72642719774413     -2.34732638767592      0.54816684213783
  C   1.21548935928114      0.92644491182322      0.44146715030849
  H   0.98879571278329      1.13410351849712      1.48733422084247
  H   0.88582415845217      1.76692436699015     -0.17116728136317
  H   2.30121468555860      0.84848229163248      0.33396325586338
