16
Coordinates from ORCA-job run
  C   -0.63702289018016      0.25291627920662     -0.60440098440838
  C   0.61946147004584     -0.29654948881729      0.09035210950891
  Cl  -0.51734913840753     -0.04015287608669     -2.37808961185941
  H   0.70376535860345     -1.35403423423103     -0.18843867847131
  H   -0.66060272449340      1.34187316388567     -0.48946795231482
  C   -1.93583280874505     -0.35859986706497     -0.11076774895025
  H   -2.11648728583678     -0.08961543983557      0.93170171089761
  H   -2.77915035038320      0.00326166118273     -0.70007380252425
  H   -1.90118822308806     -1.44760021228294     -0.19826903111567
  N   0.54415533354048     -0.23961520595904      1.54718607821903
  H   -0.22548891419348     -0.79159601998450      1.90183259777582
  H   0.42131034808389      0.71710592222272      1.86010943091783
  C   1.88240551454679      0.43392611370703     -0.34437888522528
  H   2.04563516293102      0.36641428096999     -1.41929177246918
  H   2.74004816338498      0.00721929696098      0.17663886310707
  H   1.81534098419120      1.49404662612628     -0.07564232308772
