16
Coordinates from ORCA-job run
  C   -0.58442953215072     -0.30902882359239     -0.83115172097923
  C   0.74597906855182     -0.47329652423746     -0.07674394638701
  Cl  -1.28023717799995     -1.94456542097103     -1.13623085218282
  H   1.35943836151513     -1.14744308327501     -0.68504998627862
  H   -0.37345925027522      0.09276114909034     -1.82590457427564
  C   -1.62386512183580      0.54254774126754     -0.13000203562708
  H   -2.54019231391954      0.58935340552773     -0.71968096783514
  H   -1.25492073159239      1.56204475215363      0.00537838150936
  H   -1.87619019209090      0.12308481278402      0.84534219703372
  N   0.65707526579778     -1.06991958064386      1.24639063822651
  H   0.17369918724644     -1.95900461755258      1.20321612649829
  H   0.14637783820962     -0.46347270717035      1.87686321104436
  C   1.47031788604827      0.86352284638609      0.03027158061023
  H   0.95279770278360      1.54251580461922      0.71369944817463
  H   2.47296041662173      0.69613687410955      0.42559325737725
  H   1.55364859309014      1.35576337150455     -0.94199075690881
