14

C	-0.487192	-0.027812	-1.409868
C	0.0	0.0	0.0
Cl	0.144501	1.286759	-2.358135
H	1.091101	0.0	0.0
H	-0.321795	-0.909677	0.51064
N	-0.119773	-1.355522	-2.085743
O	0.442214	-2.202102	-1.404363
O	-0.448847	-1.452314	-3.263917
N	-2.028774	-0.043693	-1.473958
O	-2.530621	-1.109263	-1.120824
O	-2.623416	0.980682	-1.772185
C	-0.497539	1.170985	0.692355
N	-0.859515	2.120983	1.283311
H	2.563565	0.0	0.0
