14

C	-0.48115	-0.005593	-1.412497
C	0.0	0.0	0.0
Cl	0.114932	1.404755	-2.261951
H	1.091827	0.0	0.0
H	-0.283781	0.961328	0.439369
N	-0.045845	-1.255238	-2.175216
O	0.566741	-2.10598	-1.543812
O	-0.347799	-1.285473	-3.36254
N	-2.016021	-0.039485	-1.486601
O	-2.519039	-1.160061	-1.500524
O	-2.609629	1.02804	-1.401285
C	-0.541682	-1.074235	0.806905
N	-0.986283	-1.909985	1.504617
H	2.553108	0.0	0.0
