14

C	-0.429899	-0.010207	-1.427468
C	0.0	0.0	0.0
Cl	-0.169729	1.501575	-2.244412
H	1.094866	0.0	0.0
H	-0.306459	-0.939697	0.464163
N	0.325769	-1.157789	-2.128257
O	1.097751	-0.909745	-3.034811
O	0.059422	-2.256746	-1.652927
N	-1.905198	-0.419481	-1.65625
O	-2.222876	-0.64697	-2.816066
O	-2.631661	-0.480161	-0.674747
C	-0.524935	1.125136	0.738339
N	-0.894918	2.049598	1.363737
H	2.590419	0.0	0.0
