14

C	-0.471941	-0.021766	-1.410374
C	0.0	0.0	0.0
Cl	-2.227605	-0.236127	-1.638142
H	1.091588	0.0	0.0
H	-0.308049	-0.942622	0.461856
N	-0.049979	1.209698	-2.189201
O	0.648925	2.018934	-1.590263
O	-0.409276	1.265398	-3.360849
N	0.262015	-1.192624	-2.069298
O	-0.140405	-2.307094	-1.76139
O	1.269494	-0.913146	-2.707005
C	-0.527277	1.109086	0.763064
N	-0.959041	1.978997	1.425527
H	2.566136	0.0	0.0
