12
Coordinates from ORCA-job run
  C   0.12582215703986     -0.50766713252193     -0.23050217954907
  C   -0.74755728625737      0.63972758186145      0.27600504990376
  Cl  -0.12855682612693     -0.70225071607273     -1.99107697683531
  H   -0.51015848217460      1.55094278281110     -0.28025009517237
  H   -0.20229270870210     -1.44466883324278      0.22356371261349
  H   -0.51838126199247      0.82346428111644      1.33098296080375
  C   1.59416616666215     -0.25812773099443      0.05567767695639
  H   1.92497353320331      0.66924818456534     -0.41664707002031
  H   2.20510135815322     -1.07492830835481     -0.32968938549578
  H   1.75769361463079     -0.18350795889070      1.13431136778956
  C   -2.17695225042874      0.36186890957066      0.15396324923560
  N   -3.32285801400712      0.12489894015239      0.07166168977027
