12
Coordinates from ORCA-job run
  C   0.17299694058256     -0.72407662659556     -0.27635540776040
  C   -1.11932757554627     -0.17862234313850      0.33220497581101
  Cl  0.01066867645483     -0.76107746139504     -2.05891535995859
  H   -1.97510599745537     -0.75593064023422     -0.02596731626131
  H   0.27304524797534     -1.76670752995019      0.03314555110927
  H   -1.07294071314474     -0.29165201233816      1.42079469496984
  C   1.40135307680006      0.07080733009439      0.11847245164538
  H   1.32842149968280      1.09807680605048     -0.24218293881097
  H   2.30008496446006     -0.38043252679356     -0.30316320653955
  H   1.49907037809561      0.08681593726036      1.20791902201504
  C   -1.33235403220576      1.23316753803723      0.01814535305634
  N   -1.48591246569912      2.37063152900278     -0.22409781927605
