16
Coordinates from ORCA-job run
  C   0.90400342168664      0.14745232720964     -0.44076279421943
  C   -0.56895777791483      0.45104727503453     -0.15140817826293
  H   1.01026116976928      0.28838612155282     -1.52322075893024
  H   -0.80246848953590      1.45713538662362     -0.50944566788476
  N   1.26356353704597     -1.22885670271676     -0.14774146342331
  H   1.32849342722679     -1.35083658385634      0.85421357618265
  H   2.15988236839797     -1.44871271382270     -0.56272154033270
  C   1.76597897333266      1.16446285632734      0.20192809857431
  N   2.48097441113508      1.94894719397861      0.70471283434961
  N   -0.84234294934077      0.51618696171882      1.32684815486614
  O   -1.86815614038022      1.10309204730561      1.65255111918564
  O   -0.06206124204577     -0.04257128248029      2.09789422395206
  C   -1.52101922350871     -0.56716709801518     -0.75682191355921
  H   -1.32422024687319     -1.55888322598291     -0.35162903110082
  H   -1.37351961839213     -0.60663754685919     -1.83845551123530
  H   -2.55141162060287     -0.27204501601762     -0.55594114816171
