16
Coordinates from ORCA-job run
  C   0.91783487583586      0.12677156400176     -0.41547719374121
  C   -0.55920209754911      0.45735899491124     -0.17614100083627
  H   1.05816107272430      0.25151462989333     -1.49600169765599
  H   -0.76646668736258      1.46036124646764     -0.55753403320923
  N   1.24564832331938     -1.25072658456818     -0.09408047421492
  H   2.15632934490754     -1.48462093248201     -0.46902703403754
  H   1.27108118612490     -1.36407965130366      0.91113856071130
  C   1.77385202438484      1.14222649995680      0.23619883679681
  N   2.47795976852218      1.93853724732560      0.73633841772755
  N   -0.86850109952479      0.55306971489867      1.29254514452149
  O   -1.87162247652052      1.19151630001471      1.59258161094907
  O   -0.13557469198311     -0.04148378983629      2.08286015352255
  C   -1.50503720704179     -0.56033570370349     -0.79124080782653
  H   -1.33915100869404     -1.54362247043704     -0.35375032232108
  H   -1.31714202066507     -0.62968185474396     -1.86461904995337
  H   -2.53816930647799     -0.24780521039512     -0.63479111043262
