16
Coordinates from ORCA-job run
  C   0.88846542072663      0.05511504459342     -0.38441872523355
  C   -0.56655003145841      0.50020414184464     -0.13992015523382
  H   0.99537858007359     -0.04496586790620     -1.46993000650107
  H   -0.65976017543532      1.56910034105289     -0.34729993561790
  N   1.10938180384714     -1.25806737637751      0.19731282250301
  H   1.27258244740235     -1.18800368582464      1.19486255127874
  H   1.91578687400570     -1.70265003641472     -0.22059480551465
  C   1.86210992692051      1.08376972044047      0.03550883506657
  N   2.67572052217435      1.87783845251769      0.33145142197694
  N   -0.81357679564632      0.37410571862888      1.34064934618898
  O   -0.17987686269418      1.15095314673863      2.05533936210617
  O   -1.55726493981268     -0.51767018614723      1.73704869498757
  C   -1.55393119366609     -0.32578075659154     -0.93143577451929
  H   -1.41387360987196     -0.12231612609850     -1.99616644612044
  H   -2.57837462205454     -0.06642945914583     -0.66411682536563
  H   -1.39521734451079     -1.38520307131047     -0.74029036000163
