16
Coordinates from ORCA-job run
  C   0.90660065739793      0.15283679627641     -0.43094617994454
  C   -0.57027604089656      0.45250399230865     -0.15387004800850
  H   1.02307089782318      0.30744210508749     -1.51051932193348
  H   -0.80130893332717      1.46111653650012     -0.50573820611471
  N   1.26348790306262     -1.22647266054483     -0.15168837968373
  H   1.31217806840750     -1.36492214600678      0.84954636135715
  H   2.16918187486626     -1.43614071061180     -0.55190980840027
  C   1.75932612091424      1.16562463713051      0.22947191006739
  N   2.46132959445035      1.95497267142522      0.74329189398194
  N   -0.85066019462665      0.50722278082878      1.32270270351607
  O   -1.85546662214000      1.12450119166349      1.65919243378697
  O   -0.09409962292296     -0.09751580990159      2.08260029498730
  C   -1.51184977037359     -0.56555323354105     -0.77450787704686
  H   -1.32385842371886     -1.55556110351629     -0.36183061992660
  H   -2.54669791513570     -0.27239534984503     -0.59352043926989
  H   -1.34195759378060     -0.60865969725328     -1.85227471736826
