16
Coordinates from ORCA-job run
  C   0.93576512468413      0.38340682981872     -0.06050971282890
  C   -0.59579472322152      0.45555979438837     -0.14764185740600
  H   1.29153902190981      1.38685812168861      0.18610711647379
  H   -0.82810875641169      1.22668286176930     -0.88548603850560
  N   1.47025750462357      0.01373061212850     -1.36400627218760
  H   2.45102727122206      0.26043154229621     -1.41495571239849
  H   1.40288977426593     -0.98751276645600     -1.50275322006718
  C   1.34061563028354     -0.52448375207150      1.03245498360678
  N   1.67733643908986     -1.29061253202918      1.85748177405913
  N   -1.08070923060914      1.01548483964152      1.16570419572023
  O   -0.69246114375019      2.15124331728261      1.43426972515927
  O   -1.79749038796482      0.31685855851616      1.87629781779071
  C   -1.26422137998287     -0.85836544411865     -0.47583791491513
  H   -2.34833529247043     -0.74630621085099     -0.47674832415429
  H   -0.95607783254511     -1.17307463828701     -1.47475542476111
  H   -1.00523201912313     -1.62990113371669      0.25037886441439
