15
Coordinates from ORCA-job run
  C   -0.40520030152759      0.12492936940321     -0.22201488347505
  C   0.92025681040699     -0.62111791684382     -0.17874937637590
  F   -0.76182917410604      0.33284705271167     -1.54837317821895
  H   1.14752640753678     -0.80405572797228      0.88612250866957
  H   0.77364585427981     -1.59650506356322     -0.65259987566060
  N   -0.21514459671826      1.45454856824216      0.33384263339697
  H   -1.02941768918427      2.01845343638459      0.11758906568734
  H   -0.13309972601189      1.39646132444109      1.34239373965632
  C   -1.53430765211112     -0.67249801966870      0.40800664018747
  H   -1.65555036524002     -1.63160820587579     -0.09988979186070
  H   -1.33739519224404     -0.85684450157045      1.46672203287382
  H   -2.46781687557546     -0.11281264868026      0.31710352584808
  N   1.94302303121014      0.12034396659510     -0.89950231180769
  H   2.85899407528642     -0.24241250641528     -0.66985475318685
  H   1.89431539399858      1.08727087281198     -0.60179597573385
