15
Coordinates from ORCA-job run
  C   -0.40247400286628      0.31981967842207     -0.07328096003246
  C   1.10125895910004      0.10378210423549     -0.03622846185253
  F   -0.76276325493693      0.18759007118264     -1.45356346533232
  H   1.57012882767700      0.95918909586777     -0.54985573871192
  H   1.42007010147874      0.13059800501969      1.00810856749951
  N   -0.71070416962218      1.62248435491074      0.39861015004980
  H   -0.26617315314999      2.32525059755346     -0.17932018326001
  H   -1.71062950775187      1.77972671115208      0.38727510406810
  C   -1.18724854143214     -0.73355506881258      0.67142666738846
  H   -0.90460432886234     -1.72024182172358      0.31062542359320
  H   -0.97998630266901     -0.66538510836874      1.74017739483145
  H   -2.25678827332648     -0.58253401296439      0.50502259140119
  N   1.43962937371794     -1.19106607167946     -0.61238005148889
  H   2.43264837694288     -1.36093843097818     -0.52024171104935
  H   1.21663589570061     -1.17572010381700     -1.59937532710422
