15
Coordinates from ORCA-job run
  C   -0.51838408740012      0.19755371001368     -0.28008183939200
  C   0.83659192170847     -0.29609911989264     -0.76064947158947
  F   -1.31594051414895      0.30434548695230     -1.45059070020358
  H   1.21374812842528      0.44179676807450     -1.48835876553981
  H   0.68405704584035     -1.23397772123331     -1.30031180822130
  N   -0.36086050604389      1.47486459764892      0.33405463122377
  H   -0.05009272736506      2.15179368712324     -0.35337870872173
  H   -1.23646572362631      1.79674905245926      0.72745384489372
  C   -1.21932488157313     -0.76793200953349      0.64596754034581
  H   -2.20381856188250     -0.37551156236614      0.91397007419894
  H   -1.35960995217167     -1.72312203399140      0.13860960831677
  H   -0.62462669644410     -0.92598907437466      1.54299854703635
  N   1.70662653248125     -0.53083743486624      0.38365104500027
  H   2.61199951320060     -0.85886088004993      0.07316338228656
  H   1.83610050899977      0.34522653403592      0.87450262036569
