18

C	-0.332232	0.052018	-1.486245
C	0.0	0.0	0.0
F	-1.709921	0.271949	-1.680007
H	1.097185	0.0	0.0
N	0.388652	1.123539	-2.100655
H	1.323963	1.166314	-1.702063
H	0.467701	0.985508	-3.101612
C	-0.08711	-1.256961	-2.152499
N	0.095586	-2.287455	-2.68713
C	-0.526175	-1.251778	0.685051
H	-1.618481	-1.306386	0.626
H	-0.103839	-2.159357	0.249131
H	-0.23883	-1.231438	1.739281
C	-0.495097	1.267486	0.690553
H	-0.106815	2.163241	0.206034
H	-0.149105	1.264629	1.727334
H	-1.587867	1.315706	0.685278
Br	3.557708	0.0	0.0
