18

C	-0.336828	0.037128	-1.498624
C	0.0	0.0	0.0
F	-0.398428	1.389807	-1.90599
H	1.096071	0.0	0.0
N	0.618237	-0.64444	-2.279494
H	1.523913	-0.733931	-1.827735
H	0.308666	-1.458988	-2.777629
C	-1.69985	-0.482185	-1.775884
N	-2.788645	-0.884463	-1.959113
C	-0.415253	-1.340402	0.601941
H	0.045922	-1.447016	1.586165
H	-1.502011	-1.421878	0.713058
H	-0.063771	-2.173172	-0.011869
C	-0.563463	1.171507	0.782627
H	-0.175776	2.116618	0.405479
H	-0.274112	1.07908	1.832886
H	-1.658649	1.196553	0.730408
Br	3.596712	0.0	0.0
