18

C	-0.491138	-0.022541	-1.441296
C	0.0	0.0	0.0
F	-1.928925	-0.100262	-1.407354
H	1.095731	0.0	0.0
N	-0.069999	1.08854	-2.199362
H	-0.267876	1.956772	-1.722152
H	-0.482697	1.084999	-3.123403
C	-0.102929	-1.257106	-2.157591
N	0.138283	-2.239001	-2.752338
C	-0.481451	-1.235683	0.754198
H	-0.156336	-2.154558	0.260803
H	-0.040196	-1.234201	1.75334
H	-1.570965	-1.252787	0.847085
C	-0.454094	1.279951	0.703684
H	-1.533714	1.432643	0.613546
H	-0.201988	1.206082	1.763709
H	0.075214	2.159267	0.327776
Br	3.631642	0.0	0.0
