18

C	-0.309079	-0.027319	-1.494939
C	0.0	0.0	0.0
F	-0.045558	1.257323	-2.035392
H	1.09932	0.0	0.0
N	0.466303	-1.027084	-2.127469
H	0.406198	-0.944734	-3.134123
H	1.436403	-0.929301	-1.827069
C	-1.753181	-0.24032	-1.769461
N	-2.903411	-0.399904	-1.944309
C	-0.486816	-1.27278	0.682684
H	-0.124579	-1.287995	1.713829
H	-1.581585	-1.323452	0.701962
H	-0.104599	-2.159853	0.176999
C	-0.535721	1.250037	0.677158
H	-1.631535	1.285148	0.643276
H	-0.140185	2.150552	0.20864
H	-0.227678	1.251999	1.726063
Br	3.620371	0.0	0.0
