18

C	-0.465606	-0.005316	-1.450276
C	0.0	0.0	0.0
F	0.028222	-1.122466	-2.104106
H	1.096638	0.0	0.0
N	-1.904971	-0.081143	-1.551992
H	-2.199008	0.105388	-2.503364
H	-2.325705	0.608007	-0.943932
C	0.061845	1.17237	-2.193416
N	0.369142	2.157937	-2.754356
C	-0.462142	-1.265761	0.714634
H	0.016568	-1.307756	1.696376
H	-0.156087	-2.151836	0.157654
H	-1.547844	-1.293652	0.846146
C	-0.443823	1.261996	0.736512
H	-1.525733	1.286257	0.92211
H	0.055461	1.291117	1.708097
H	-0.154584	2.169743	0.200407
Br	3.614672	0.0	0.0
