13

C	0.0	0.0	0.0
C	-0.447752	-0.050098	-1.455853
F	1.395417	0.0	0.0
H	-0.133373	0.902121	-1.91833
H	-0.344087	-0.892128	0.527412
H	-0.347736	0.904172	0.504471
N	-1.858469	-0.201612	-1.690652
H	-2.214921	-1.026477	-1.221751
H	-2.425657	0.556939	-1.328171
N	0.199945	-1.212278	-2.061233
H	1.203026	-1.081065	-2.0733
H	-0.138908	-1.273966	-3.013661
Br	-4.806703	0.0	0.0
