13

C	0.0	0.0	0.0
C	-0.409624	0.375683	-1.425602
F	1.39258	0.0	0.0
H	0.116713	-0.34234	-2.069494
H	-0.355816	0.730272	0.730887
H	-0.344637	-1.0013	0.268833
N	0.067478	1.723724	-1.763083
H	0.786357	2.017296	-1.113702
H	-0.724182	2.350101	-1.697782
N	-1.812988	0.296268	-1.73553
H	-2.427728	0.628494	-0.994496
H	-2.108604	-0.65744	-1.892423
Br	-4.687211	0.0	0.0
