13

C	0.0	0.0	0.0
C	-0.424944	-0.373713	-1.420245
F	1.392513	0.0	0.0
H	0.042332	0.373138	-2.075246
H	-0.342347	0.99854	0.283911
H	-0.3486	-0.740885	0.725308
N	-1.84192	-0.367968	-1.675027
H	-2.415397	-0.672256	-0.890691
H	-2.189221	0.554346	-1.891699
N	0.110156	-1.692926	-1.78445
H	0.862392	-1.958132	-1.161782
H	-0.64663	-2.358974	-1.709474
Br	-4.762391	0.0	0.0
