13

C	0.0	0.0	0.0
C	-0.481705	0.27071	-1.444065
F	1.381142	0.0	0.0
H	0.443605	0.357069	-2.02817
H	-0.344222	0.780429	0.679971
H	-0.3408	-0.974466	0.35963
N	-1.175032	1.548681	-1.486449
H	-1.476885	1.681409	-2.447398
H	-2.033445	1.427277	-0.949334
N	-1.285855	-0.782561	-2.067738
H	-0.83167	-1.684667	-1.966307
H	-2.176805	-0.824758	-1.572133
Br	-4.049336	0.0	0.0
