13

C	0.0	0.0	0.0
C	-0.469586	-0.082783	-1.467798
F	1.381744	0.0	0.0
H	0.418547	0.194151	-2.048404
H	-0.335976	0.928482	0.468842
H	-0.354738	-0.852739	0.582988
N	-1.557288	0.794644	-1.877424
H	-1.350876	1.759646	-1.637705
H	-2.415502	0.543547	-1.380152
N	-0.77761	-1.475402	-1.779495
H	-0.974319	-1.511943	-2.775306
H	-1.663711	-1.683852	-1.323505
Br	-4.332928	0.0	0.0
