13

C	0.0	0.0	0.0
C	-0.485524	-1.182601	-0.829559
F	1.39212	0.0	0.0
H	-0.056167	-1.056636	-1.831682
H	-0.351827	0.941883	-0.42651
H	-0.348657	-0.080815	1.035815
N	-1.918745	-1.283947	-0.986191
H	-2.429881	-1.239886	-0.109516
H	-2.32921	-0.54672	-1.545801
N	0.079724	-2.40885	-0.267294
H	-0.171424	-2.45064	0.716556
H	-0.426402	-3.164702	-0.716844
Br	-4.918359	0.0	0.0
