15

C	-0.397651	-0.042937	-1.459211
C	0.0	0.0	0.0
F	-1.803322	-0.097389	-1.584066
H	1.095495	0.0	0.0
H	-0.085304	0.893496	-1.93477
C	0.216336	-1.229672	-2.156966
H	-0.009674	-1.205875	-3.22477
H	-0.171101	-2.147591	-1.717623
H	1.29727	-1.193629	-1.997921
N	-0.412977	-1.210476	0.706158
H	-1.346497	-1.106529	1.084809
H	0.240046	-1.361804	1.46854
C	-0.488339	1.226687	0.637816
N	-0.892577	2.184847	1.187931
H	2.783214	0.0	0.0
