15

C	-0.406015	-0.0316	-1.4563
C	0.0	0.0	0.0
F	-1.813495	-0.058439	-1.580222
H	1.095421	0.0	0.0
H	-0.077504	0.900322	-1.929133
C	0.181922	-1.227283	-2.162251
H	-0.05711	-1.200031	-3.227145
H	-0.214479	-2.137541	-1.717618
H	1.264146	-1.20868	-2.017291
N	-0.404706	-1.213818	0.7057
H	0.282948	-1.39411	1.426425
H	-1.313143	-1.103523	1.134926
C	-0.480772	1.223626	0.650003
N	-0.877341	2.181924	1.205314
H	2.777213	0.0	0.0
