15

C	-0.402337	-0.041187	-1.45749
C	0.0	0.0	0.0
F	-1.809943	-0.067016	-1.581709
H	1.095513	0.0	0.0
H	-0.072245	0.886579	-1.935312
C	0.183303	-1.242334	-2.155253
H	1.265565	-1.230308	-2.003772
H	-0.224941	-2.147897	-1.711392
H	-0.046391	-1.217187	-3.2236
N	-0.406788	-1.208686	0.713722
H	0.282965	-1.384264	1.437136
H	-1.315241	-1.089971	1.144102
C	-0.48006	1.228266	0.641301
N	-0.875258	2.190703	1.189799
H	2.779904	0.0	0.0
