15

C	-0.509994	0.074949	-1.429863
C	0.0	0.0	0.0
F	-0.206853	1.333158	-1.957364
H	1.100105	0.0	0.0
H	0.056548	-0.663264	-2.003587
C	-2.00102	-0.137944	-1.573087
H	-2.290617	-0.086815	-2.626761
H	-2.540824	0.642184	-1.027782
H	-2.273895	-1.117921	-1.173996
N	-0.34094	-1.316558	0.564649
H	0.488277	-1.630948	1.063127
H	-1.100478	-1.246033	1.229341
C	-0.512035	1.10666	0.801822
N	-0.958738	1.960983	1.476632
H	2.745095	0.0	0.0
