15

C	-0.367166	-0.014526	-1.473313
C	0.0	0.0	0.0
F	-1.767011	-0.161197	-1.626443
H	1.09636	0.0	0.0
H	-0.111753	0.953867	-1.915036
C	0.324097	-1.134484	-2.211093
H	1.399337	-1.053838	-2.024602
H	-0.026398	-2.100501	-1.841852
H	0.115748	-1.077626	-3.281945
N	-0.412352	-1.186714	0.743338
H	-1.241164	-1.59447	0.327515
H	0.351268	-1.852441	0.708662
C	-0.522388	1.206468	0.641144
N	-0.944846	2.185911	1.134352
H	2.778174	0.0	0.0
