15

C	-0.511219	0.020879	-1.431589
C	0.0	0.0	0.0
F	-0.214337	1.262077	-2.003572
H	1.100067	0.0	0.0
H	0.060553	-0.734864	-1.979942
C	-2.001377	-0.205228	-1.56649
H	-2.267274	-1.172618	-1.138739
H	-2.294826	-0.187372	-2.61943
H	-2.544318	0.586566	-1.043227
N	-0.339995	-1.295538	0.612103
H	0.494204	-1.598642	1.10849
H	-1.091988	-1.201567	1.28228
C	-0.513683	1.134497	0.760079
N	-0.966329	2.010871	1.402068
H	2.746052	0.0	0.0
