15

C	-0.360161	-0.031517	-1.47416
C	0.0	0.0	0.0
F	-1.757935	-0.198984	-1.630123
H	1.096358	0.0	0.0
H	-0.116543	0.936066	-1.924719
C	0.347836	-1.148289	-2.202669
H	1.424423	-1.042573	-2.028295
H	0.126135	-1.1084	-3.272429
H	0.021584	-2.116336	-1.815847
N	-0.407929	-1.181517	0.753382
H	-1.215678	-1.617851	0.326197
H	0.371477	-1.827894	0.752695
C	-0.528158	1.212075	0.626562
N	-0.95442	2.195359	1.109121
H	2.776104	0.0	0.0
