15

C	-0.483535	0.020076	-1.446238
C	0.0	0.0	0.0
F	-0.058951	-1.155041	-2.060753
H	1.095164	0.0	0.0
H	-1.581519	-0.00136	-1.484526
C	0.098924	1.189223	-2.210792
H	-0.281811	2.137188	-1.82735
H	1.184471	1.16969	-2.093212
H	-0.159068	1.10956	-3.269965
N	-0.434496	-1.216394	0.700502
H	0.402245	-1.619803	1.10638
H	-1.069381	-0.993242	1.455578
C	-0.456311	1.209747	0.677027
N	-0.855078	2.168338	1.231006
H	2.793081	0.0	0.0
