15

C	-0.409351	0.02298	-1.468659
C	0.0	0.0	0.0
F	-0.053961	1.260292	-2.012444
H	1.095433	0.0	0.0
H	0.196619	-0.735006	-1.978168
C	-1.888787	-0.161612	-1.746103
H	-2.460167	0.618743	-1.237495
H	-2.247143	-1.138251	-1.411077
H	-2.075734	-0.085094	-2.820342
N	-0.31633	-1.251824	0.688358
H	0.518694	-1.828685	0.637274
H	-1.100053	-1.741346	0.276472
C	-0.576675	1.138076	0.707807
N	-1.065387	2.051946	1.263096
H	2.728715	0.0	0.0
