15

C	-0.47553	0.012353	-1.446448
C	0.0	0.0	0.0
F	-0.130926	-1.227579	-2.008149
H	1.102079	0.0	0.0
H	-1.570205	0.059215	-1.49374
C	0.196613	1.100771	-2.248374
H	1.276328	1.017256	-2.11082
H	-0.128466	2.084664	-1.902629
H	-0.057477	0.997583	-3.306158
N	-0.539313	-1.188491	0.692458
H	-0.049212	-1.234804	1.582866
H	-0.179071	-1.972093	0.15678
C	-0.48435	1.210255	0.657379
N	-0.860457	2.191447	1.184265
H	2.860459	0.0	0.0
