14

C	0.0	0.0	0.0
C	-0.450925	-0.010283	-1.446525
F	1.415753	0.0	0.0
H	-0.250114	0.987343	-1.861043
H	-0.284415	-0.925	0.509541
H	0.206301	-0.706554	-1.979994
N	-0.53512	1.091172	0.709752
H	-0.289179	1.976456	0.292725
H	-0.309537	1.076971	1.697439
C	-1.915933	-0.400822	-1.624714
H	-2.071953	-1.447908	-1.349748
H	-2.215701	-0.291049	-2.668778
H	-2.62195	0.165336	-1.008042
H	-4.973884	0.0	0.0
