14

C	0.0	0.0	0.0
C	-0.55085	0.108785	-1.397303
F	1.419147	0.0	0.0
H	-0.131043	-0.70225	-2.00128
H	-0.306911	-0.94655	0.450984
H	-1.633706	-0.050708	-1.276035
N	-0.44621	1.067037	0.827397
H	0.030933	1.921041	0.576004
H	-0.284577	0.865587	1.802556
C	-0.284447	1.459088	-2.05239
H	0.777883	1.725283	-2.018034
H	-0.595677	1.444336	-3.100727
H	-0.866867	2.235984	-1.555674
H	-3.854172	0.0	0.0
