14

C	0.0	0.0	0.0
C	-0.470825	0.010283	-1.437689
F	1.40637	0.0	0.0
H	-0.020268	-0.853679	-1.941776
H	-0.265983	-0.963945	0.45693
H	-1.558219	-0.132157	-1.38836
N	-0.521175	1.126785	0.709557
H	-1.546458	1.023395	0.579441
H	-0.351145	0.987441	1.70152
C	-0.114075	1.300965	-2.166918
H	0.9618	1.493088	-2.124212
H	-0.412551	1.244342	-3.218909
H	-0.626026	2.14806	-1.709199
H	-3.194005	0.0	0.0
