18

C	-0.408789	-0.15685	-1.457438
C	0.0	0.0	0.0
Cl	-2.184776	-0.428611	-1.622148
H	1.093064	0.0	0.0
N	-0.042277	1.088133	-2.294171
O	-0.907611	1.865385	-2.6693
O	1.156177	1.15667	-2.535274
N	0.29061	-1.237779	-2.108485
H	-0.072876	-2.109827	-1.747664
H	1.274693	-1.147046	-1.822021
C	-0.402514	-1.175956	0.862903
H	0.058154	-1.049196	1.843623
H	-1.483392	-1.260035	0.987414
H	-0.00206	-2.095923	0.433925
N	-0.432423	1.262264	0.592251
O	-0.152742	2.297711	-0.026736
O	-0.9479	1.250574	1.720488
H	2.553545	0.0	0.0
