18

C	-0.506265	0.162532	-1.422933
C	0.0	0.0	0.0
Cl	0.594214	1.258896	-2.41855
H	1.102822	0.0	0.0
N	-0.354966	-1.146897	-2.207843
O	-1.222721	-1.396723	-3.042774
O	0.653694	-1.811924	-2.01571
N	-1.861265	0.537443	-1.494052
H	-2.158683	0.604901	-2.460588
H	-1.936834	1.43989	-1.040148
C	-0.394887	-1.292144	0.690832
H	-1.468962	-1.329009	0.894541
H	-0.094186	-2.152531	0.098439
H	0.148065	-1.337246	1.634704
N	-0.402937	1.120092	0.788976
O	-0.508138	2.249395	0.242068
O	-0.48315	0.967859	2.028597
H	2.365661	0.0	0.0
