18

C	-0.218114	-0.066793	-1.497555
C	0.0	0.0	0.0
Cl	-1.906859	-0.434494	-2.062481
H	1.106231	0.0	0.0
N	0.068713	1.316663	-2.179807
O	0.034286	2.334912	-1.502136
O	0.326388	1.264745	-3.378039
N	0.675681	-1.036753	-1.973019
H	1.602254	-0.858623	-1.534272
H	0.737515	-0.992273	-2.982566
C	-0.4806	-1.248673	0.713366
H	-0.129337	-1.210024	1.74798
H	-1.570011	-1.322906	0.695805
H	-0.042806	-2.121634	0.231469
N	-0.587616	1.165954	0.701608
O	-1.790791	1.379312	0.539014
O	0.136183	1.785528	1.47501
H	2.71427	0.0	0.0
