18

C	-0.240674	-0.168591	-1.504013
C	0.0	0.0	0.0
Cl	-1.782052	-1.142213	-1.897747
H	1.093127	0.0	0.0
N	-0.602847	1.194873	-2.217193
O	-1.621373	1.770072	-1.864055
O	0.159363	1.557644	-3.107363
N	0.866539	-0.783613	-2.032885
H	0.948253	-0.705806	-3.035546
H	1.736079	-0.531846	-1.511903
C	-0.493034	-1.142416	0.847299
H	-0.042762	-1.057618	1.838769
H	-1.57799	-1.152065	0.944105
H	-0.154863	-2.074677	0.391749
N	-0.388021	1.311359	0.540634
O	-1.168283	1.359717	1.499089
O	0.188001	2.291244	0.05909
H	2.626647	0.0	0.0
