18

C	-0.454392	0.038949	-1.459049
C	0.0	0.0	0.0
Cl	0.097084	1.612384	-2.159516
H	1.105526	0.0	0.0
N	0.298018	-1.068499	-2.251636
O	0.750043	-0.805611	-3.354939
O	0.264797	-2.178971	-1.741122
N	-1.829098	-0.230821	-1.683393
H	-2.074091	-0.009799	-2.642465
H	-2.361106	0.360863	-1.054799
C	-0.487226	-1.164598	0.84623
H	0.047546	-2.062798	0.551954
H	-1.564497	-1.328321	0.756362
H	-0.230996	-0.945238	1.886821
N	-0.491844	1.230536	0.686964
O	-1.673046	1.563772	0.506452
O	0.27011	1.811177	1.451103
H	2.722882	0.0	0.0
