18

C	-0.608263	0.026164	-1.387038
C	0.0	0.0	0.0
Cl	0.20216	1.259552	-2.461284
H	1.104108	0.0	0.0
N	-0.236499	-1.319845	-2.055956
O	-1.150333	-2.11785	-2.257646
O	0.946038	-1.508867	-2.303445
N	-2.012105	0.134775	-1.368829
H	-2.391062	0.124828	-2.307922
H	-2.220197	1.015165	-0.909396
C	-0.24856	-1.327091	0.702814
H	0.031435	-1.20147	1.746178
H	0.421403	-2.078641	0.275024
H	-1.287788	-1.655103	0.619662
N	-0.403363	1.11068	0.793177
O	-0.047699	1.106139	1.992336
O	-0.936195	2.118187	0.250668
H	2.361673	0.0	0.0
