18

C	-0.547544	0.015269	-1.421481
C	0.0	0.0	0.0
Cl	0.399405	0.974611	-2.576834
H	1.088487	0.0	0.0
N	-0.400418	-1.467708	-1.932805
O	0.714488	-1.889192	-2.193662
O	-1.445568	-2.119603	-1.975394
N	-1.893614	0.438998	-1.474803
H	-2.268055	0.340639	-2.410453
H	-2.451543	-0.106106	-0.830112
C	-0.414963	-1.213366	0.807525
H	-0.036866	-1.077489	1.820553
H	-1.493675	-1.381832	0.862563
H	0.078346	-2.094962	0.394432
N	-0.41227	1.24607	0.653863
O	-1.06493	1.184242	1.709945
O	-0.015365	2.299162	0.149075
H	2.567548	0.0	0.0
