11
Coordinates from ORCA-job run
  C   0.16858930216441      0.33663115835719     -0.23394630404796
  C   -1.05452945976721     -0.55066163734525     -0.01753451905317
  Cl  -0.02271017685466      1.14783075861087     -1.83114097922546
  H   -0.96676557962040     -1.05291712734195      0.94934760981791
  H   -1.97670860956050      0.03147998644156     -0.03552741419973
  H   -1.09512551224043     -1.30185618305090     -0.80895088980618
  N   1.44494336850004     -0.34196334798922     -0.24476100589785
  H   1.42168450683833     -1.09902552614690     -0.91874297828677
  H   1.64086203853718     -0.72198995468120      0.67482455853686
  C   0.21450408478809      1.38100153165052      0.79922326216132
  N   0.22625603721515      2.17147034149528      1.66720866000105
