11
Coordinates from ORCA-job run
  C   0.10562921381187      0.24006775347048     -0.28552352765195
  C   -1.13764936394179     -0.57052730935567      0.03805781046793
  Cl  -0.10125004226299      1.02193127047476     -1.89028727177621
  H   -2.02193941213184      0.06599696865238      0.04233620620305
  H   -1.24562290968073     -1.34945112304851     -0.71668417543042
  H   -1.02999779049960     -1.03112409549300      1.02397411336422
  N   1.25186749014947     -0.63214145366597     -0.37228897870433
  H   2.09400587400412     -0.09990009417548     -0.55910046942963
  H   1.36853828347378     -1.12782186759931      0.50487918741051
  C   0.27351785986143      1.33276312199714      0.69411198784685
  N   0.44290079721628      2.15020682874316      1.52152511769997
