11
Coordinates from ORCA-job run
  C   0.17088599111236      0.24304038847165     -0.11822290212850
  C   -1.13756876090846     -0.52949590479980     -0.09124451636269
  Cl  0.25104669168621      1.11286581803234     -1.75024145851154
  H   -1.12925804268519     -1.28119215948408     -0.88316533936526
  H   -1.98221618064796      0.13811735978770     -0.25375319501612
  H   -1.23440918336402     -1.02292913818684      0.87706083025038
  N   1.27446046575331     -0.61899933817523      0.10771075491155
  H   1.28728539371893     -1.37231912299812     -0.56910107508409
  H   2.15657982198171     -0.12339445388504      0.07762510791226
  C   0.17585103172392      1.30951114548168      0.88973861030090
  N   0.16634277162920      2.14579540575575      1.71359318309310
