11
Coordinates from ORCA-job run
  C   0.19576983453125      0.33488824518982     -0.21205258323433
  C   -1.07676830458834     -0.50126550492279     -0.10654374806725
  Cl  0.15151104445377      1.19553746279514     -1.79460465746580
  H   -1.09476478852668     -1.22860490991470     -0.92076853295876
  H   -1.07883815236333     -1.03279222948470      0.84863118836495
  H   -1.96957379694706      0.12195707310820     -0.17064059239659
  N   1.43918684057608     -0.40051459014180     -0.15529840670032
  H   1.42718084179843     -1.14143718279372     -0.84735555193756
  H   1.55572637476132     -0.80870782413710      0.76573719989824
  C   0.21741568836355      1.34834026539077      0.85189403235610
  N   0.23215441794101      2.11259919491090      1.74300165214132
