11
Coordinates from ORCA-job run
  C   0.13842514081217      0.23799411781333     -0.27426776204244
  C   -1.16311805837255     -0.51003071992661     -0.04406796714825
  Cl  0.07525830217517      1.05345773750336     -1.87481630018586
  H   -1.26195472472247     -1.27161634374498     -0.81760149667771
  H   -1.14330505895664     -0.98964838668600      0.93842185370414
  H   -2.01203091482324      0.17168321746081     -0.08499790927934
  N   1.24138037401683     -0.69220770457123     -0.30489192070322
  H   1.27710764016333     -1.20468920247908      0.56969440296258
  H   2.11967714956730     -0.20193479295823     -0.42974507840472
  C   0.29840764471394      1.30625298668636      0.73304109983754
  N   0.43015250542617      2.10273909090227      1.58723107793727
