17

C	-0.399655	-0.038214	-1.493141
C	0.0	0.0	0.0
Cl	0.129936	1.495246	-2.275226
H	1.096743	0.0	0.0
C	0.299135	-1.192731	-2.202446
H	-0.04642	-2.143749	-1.789777
H	0.085937	-1.165601	-3.272343
H	1.373589	-1.091541	-2.027919
C	-1.856109	-0.110849	-1.646245
N	-3.02374	-0.188073	-1.760449
C	-0.460902	-1.243617	0.616346
N	-0.866583	-2.225129	1.120082
C	-0.526964	1.198923	0.78389
H	-0.215055	1.105055	1.825545
H	-0.097329	2.117311	0.385922
H	-1.618746	1.257597	0.745978
Br	3.464568	0.0	0.0
