17

C	-0.369798	0.086151	-1.493002
C	0.0	0.0	0.0
Cl	-2.150468	0.386146	-1.699981
H	1.098067	0.0	0.0
C	0.406558	1.197975	-2.188564
H	0.21164	1.176465	-3.26192
H	1.472295	1.045715	-1.99109
H	0.100468	2.168566	-1.797726
C	-0.099987	-1.19123	-2.158215
N	0.099745	-2.212411	-2.703322
C	-0.514732	-1.223304	0.604371
N	-0.937561	-2.18552	1.129883
C	-0.422053	1.217001	0.826969
H	0.024805	2.12371	0.418774
H	-0.032019	1.091518	1.838265
H	-1.506284	1.328381	0.872852
Br	3.441084	0.0	0.0
