17

C	-0.501186	0.04441	-1.45828
C	0.0	0.0	0.0
Cl	0.236134	-1.319455	-2.365064
H	1.09562	0.0	0.0
C	-2.019013	-0.070419	-1.586548
H	-2.305092	-0.058168	-2.639293
H	-2.504693	0.766994	-1.080608
H	-2.351078	-1.008112	-1.13833
C	-0.068813	1.292418	-2.094451
N	0.176334	2.317826	-2.613256
C	-0.485594	-1.221742	0.635552
N	-0.939349	-2.17228	1.157024
C	-0.431175	1.22389	0.817306
H	0.036022	1.157316	1.801498
H	-0.062165	2.133932	0.340396
H	-1.514489	1.28896	0.947709
Br	3.43867	0.0	0.0
