16

C	0.0	0.0	0.0
C	-0.531741	-0.046407	-1.431453
F	1.381181	0.0	0.0
H	-1.639879	-0.07412	-1.257474
C	-0.329436	1.330861	0.60582
N	-0.486057	2.389153	1.091698
N	-0.529549	-1.104418	0.714706
H	-1.566607	-0.966089	0.614387
H	-0.305123	-1.002107	1.700791
C	-0.091511	-1.280385	-2.069715
N	0.244097	-2.233139	-2.670787
C	-0.14342	1.171174	-2.267924
H	0.936768	1.33235	-2.259506
H	-0.465931	1.031048	-3.30182
H	-0.639866	2.058916	-1.872428
H	-2.930601	0.0	0.0
