16

C	0.0	0.0	0.0
C	-0.399117	0.006627	-1.507456
F	1.382554	0.0	0.0
H	0.020111	0.941557	-1.912031
C	-0.589354	1.142783	0.707692
N	-0.71894	2.270318	1.073733
N	-0.247905	-1.304324	0.64656
H	-1.26534	-1.338119	0.748566
H	0.1613	-1.217269	1.583446
C	-1.875773	0.020138	-1.867081
N	-2.961331	0.281291	-2.35623
C	0.228756	-1.180801	-2.25654
H	-0.058255	-1.131008	-3.311336
H	-0.151496	-2.108898	-1.830521
H	1.317016	-1.183213	-2.175926
H	-2.243749	0.0	0.0
