16

C	0.0	0.0	0.0
C	-0.222361	0.048867	-1.556792
F	1.376914	0.0	0.0
H	0.385906	-0.813023	-1.855481
C	-0.367473	1.279064	0.670361
N	-0.535049	2.292957	1.239834
N	-0.596902	-1.158299	0.54169
H	-1.637331	-0.919833	0.424138
H	-0.4232	-1.169674	1.544993
C	0.466874	1.237617	-2.076966
N	0.979619	2.195885	-2.522645
C	-1.579203	-0.082043	-2.242026
H	-2.232565	0.754437	-2.020622
H	-1.391313	-0.149505	-3.321659
H	-2.096486	-0.969816	-1.891188
H	-2.956226	0.0	0.0
