16

C	0.0	0.0	0.0
C	-0.513828	-0.033966	-1.43863
F	1.381603	0.0	0.0
H	-1.624555	-0.030538	-1.290294
C	-0.338938	1.330702	0.59985
N	-0.506932	2.398088	1.062366
N	-0.535224	-1.10633	0.706336
H	-1.571548	-0.969173	0.597062
H	-0.321447	-1.007521	1.693758
C	-0.103255	-1.279841	-2.075471
N	0.204632	-2.239185	-2.681601
C	-0.053093	1.166382	-2.264483
H	-0.415207	1.074744	-3.289847
H	-0.458339	2.085338	-1.837743
H	1.036901	1.233216	-2.282841
H	-2.94185	0.0	0.0
