16

C	0.0	0.0	0.0
C	-0.40104	0.106844	-1.470647
F	1.382186	0.0	0.0
H	0.213764	0.932236	-1.856659
C	-0.360525	1.258664	0.721767
N	-0.483742	2.257481	1.329853
N	-0.4842	-1.188788	0.611192
H	-1.517511	-1.05082	0.503745
H	-0.279076	-1.143849	1.606763
C	-1.822973	0.474972	-1.744659
N	-2.497366	0.915213	-2.625898
C	-0.014433	-1.168464	-2.222138
H	1.02506	-1.430333	-2.012303
H	-0.648869	-1.99989	-1.917508
H	-0.135059	-0.999215	-3.294962
H	-2.612754	0.0	0.0
