15

C	0.0	0.0	0.0
C	-0.514721	0.014544	-1.446734
F	1.367815	0.0	0.0
H	-1.613896	0.116166	-1.388111
C	-0.360251	1.267045	0.70287
N	-0.514922	2.220453	1.371404
N	-0.4838	-1.181111	0.62375
H	-1.510775	-1.155777	0.579831
H	-0.210549	-1.173738	1.601016
C	-0.109355	-1.192188	-2.150706
N	0.187296	-2.153698	-2.754223
N	0.039425	1.219895	-2.156429
O	1.087734	1.088533	-2.782944
O	-0.599824	2.257927	-2.024835
Br	-3.5873	0.0	0.0
