15

C	0.0	0.0	0.0
C	-0.535446	0.251067	-1.409748
F	1.382852	0.0	0.0
H	-1.645286	0.235411	-1.340275
C	-0.375876	1.076272	0.955665
N	-0.584731	1.831398	1.831409
N	-0.457555	-1.295499	0.389408
H	-1.483542	-1.268861	0.387769
H	-0.150572	-1.474056	1.340055
C	-0.04618	-0.769175	-2.328376
N	0.372086	-1.571226	-3.075725
N	-0.161084	1.597354	-1.977887
O	-0.543449	1.806354	-3.122563
O	0.468452	2.378576	-1.270658
Br	-3.584577	0.0	0.0
