15

C	0.0	0.0	0.0
C	-0.170718	0.163809	-1.554954
F	1.397861	0.0	0.0
H	0.498664	-0.614791	-1.926762
C	-0.374003	1.211458	0.765408
N	-0.584715	2.171657	1.40929
N	-0.502334	-1.233585	0.456259
H	-1.523216	-1.208865	0.303146
H	-0.358635	-1.292116	1.459569
C	0.337909	1.467328	-1.971475
N	0.789244	2.491419	-2.326273
N	-1.463565	-0.130336	-2.285096
O	-1.725824	-1.320839	-2.386819
O	-2.0573	0.807356	-2.794873
Br	-3.564852	0.0	0.0
