12

C	-0.501427	0.015299	-1.436973
C	0.0	0.0	0.0
F	-1.89523	-0.053392	-1.453658
H	1.09367	0.0	0.0
H	-0.333187	-0.936181	0.458286
C	-0.119861	1.24421	-2.152595
N	0.148475	2.213694	-2.758482
C	0.000363	-1.159566	-2.174515
N	0.384919	-2.087735	-2.780214
C	-0.544272	1.12971	0.740082
N	-1.005785	2.029753	1.335707
Cl	3.213692	0.0	0.0
