12

C	-0.478132	-0.003969	-1.450988
C	0.0	0.0	0.0
F	-0.033795	-1.140855	-2.085993
H	1.093585	0.0	0.0
H	-0.330197	0.924151	0.484393
C	-1.956282	0.011653	-1.538114
N	-3.129558	0.033497	-1.588855
C	0.030581	1.180033	-2.170654
N	0.405599	2.110088	-2.781579
C	-0.536719	-1.151007	0.713305
N	-0.987634	-2.071238	1.285999
Cl	3.233884	0.0	0.0
