12

C	-0.47793	-0.010347	-1.450867
C	0.0	0.0	0.0
F	-0.035172	1.12091	-2.096594
H	1.093548	0.0	0.0
H	-0.329992	-0.919392	0.493451
C	0.032739	-1.200571	-2.159283
N	0.413035	-2.135315	-2.759786
C	-1.95603	-0.028708	-1.537958
N	-3.129428	-0.047722	-1.585755
C	-0.537509	1.157411	0.702044
N	-0.990028	2.081612	1.267113
Cl	3.234288	0.0	0.0
