12

C	-0.496496	-0.024267	-1.439252
C	0.0	0.0	0.0
F	-1.887788	0.056734	-1.464686
H	1.093588	0.0	0.0
H	-0.334148	0.939354	0.450216
C	0.013786	1.140942	-2.184291
N	0.337206	2.094759	-2.787528
C	-0.121125	-1.265735	-2.138614
N	0.135905	-2.253952	-2.718528
C	-0.545618	-1.124016	0.747678
N	-1.003511	-2.021736	1.349934
Cl	3.218979	0.0	0.0
