17

C	-0.251339	-0.053542	-1.507635
C	0.0	0.0	0.0
Br	0.220991	1.897141	-2.230737
H	1.098205	0.0	0.0
N	0.71478	-0.882852	-2.155592
H	0.471735	-1.820197	-1.841819
H	1.610181	-0.653896	-1.693638
N	-1.564854	-0.363804	-1.876586
H	-2.207383	0.265862	-1.413232
H	-1.677364	-0.321263	-2.880468
N	-0.381818	-1.306987	0.524446
H	-1.34206	-1.275595	0.850601
H	0.234743	-1.518921	1.29948
N	-0.74045	1.07296	0.673577
H	-0.416344	1.952468	0.282755
H	-0.425583	1.066124	1.639844
F	2.717598	0.0	0.0
