17

C	-0.240983	0.154028	-1.503309
C	0.0	0.0	0.0
Br	0.195202	2.207574	-1.936054
H	1.090263	0.0	0.0
N	0.74735	-0.548941	-2.252288
H	1.632481	-0.392633	-1.74246
H	0.506969	-1.528201	-2.118244
N	-1.543981	-0.121566	-1.930434
H	-1.64648	0.072217	-2.917626
H	-2.204229	0.418557	-1.386186
N	-0.373982	-1.371073	0.334313
H	-1.330648	-1.389676	0.669778
H	0.250511	-1.688736	1.065456
N	-0.749709	0.960486	0.814349
H	-0.44391	1.889835	0.545601
H	-0.435572	0.826316	1.770925
F	2.719391	0.0	0.0
