8
Coordinates from ORCA-job run
  C   0.68893643977157      0.21871529649254      0.05425111720911
  C   -0.79436593099270     -0.07963468290675      0.00228455894420
  Cl  1.64677839844247     -1.18298996557973     -0.51122093072752
  H   -1.10939383774689     -0.30918563740493     -1.01626732244500
  H   0.95080926098204      1.05839340070472     -0.58837685741890
  H   1.01802078046753      0.43537399810433      1.06981526374837
  H   -1.35744301707003      0.78995947442223      0.35185903228496
  H   -1.04234209385398     -0.93063188383240      0.63765513840479
