14

C	-0.342568	0.056324	-1.489321
C	0.0	0.0	0.0
Br	-2.333504	0.256206	-1.675817
H	1.096437	0.0	0.0
H	-0.39042	-0.916037	0.45807
N	0.283178	1.154578	-2.174681
H	0.160433	1.951605	-1.552506
H	1.283714	0.949364	-2.183054
C	-0.030503	-1.211344	-2.151494
N	0.219063	-2.23825	-2.66469
N	-0.415578	1.242811	0.635868
H	-1.316038	1.144864	1.084758
H	0.276011	1.497598	1.328414
Cl	3.386658	0.0	0.0
