14

C	-0.59503	0.03596	-1.406274
C	0.0	0.0	0.0
Br	0.183257	-1.545581	-2.438399
H	1.094816	0.0	0.0
H	-0.354161	0.915276	0.486385
N	-2.005459	-0.026757	-1.3239
H	-2.226008	-0.771236	-0.667433
H	-2.434766	-0.192572	-2.224978
C	-0.176073	1.207901	-2.173018
N	0.080684	2.174854	-2.789921
N	-0.56262	-1.162035	0.703647
H	0.086255	-1.931258	0.577459
H	-0.57009	-0.95511	1.694663
Cl	3.465142	0.0	0.0
