14

C	-0.273087	0.100782	-1.494314
C	0.0	0.0	0.0
Br	-2.179614	0.535738	-1.886282
H	1.105459	0.0	0.0
H	-0.402066	-0.928773	0.408029
N	0.545235	1.15991	-2.023286
H	0.521465	1.171799	-3.035424
H	1.50573	1.004971	-1.7044
C	-0.071273	-1.204	-2.14413
N	0.113011	-2.234981	-2.678438
N	-0.547662	1.154491	0.717969
H	-0.249835	1.978673	0.203414
H	-0.051807	1.19553	1.603445
Cl	3.417727	0.0	0.0
