14

C	-0.392492	-0.041619	-1.482813
C	0.0	0.0	0.0
Br	-0.059599	1.735356	-2.264394
H	1.092632	0.0	0.0
H	-0.395109	0.894642	0.492641
N	0.358853	-1.019145	-2.240311
H	1.344381	-0.796427	-2.091037
H	0.195863	-1.902428	-1.759505
C	-1.83206	-0.296706	-1.625589
N	-2.985487	-0.516054	-1.674517
N	-0.430015	-1.268145	0.589064
H	0.28557	-1.594608	1.224914
H	-1.298122	-1.165941	1.097186
Cl	3.419799	0.0	0.0
