14

C	-0.482179	-0.024215	-1.438008
C	0.0	0.0	0.0
Br	-2.681092	-0.285064	-1.223072
H	1.093972	0.0	0.0
H	-0.363982	-0.893289	0.513162
N	-0.186944	1.127634	-2.097536
H	-0.518907	1.225835	-3.043137
H	-0.284903	1.931377	-1.488304
C	-0.185892	-1.233429	-2.186963
N	0.055261	-2.208952	-2.797557
N	-0.41688	1.265689	0.595989
H	-1.300653	1.165994	1.076432
H	0.296035	1.559811	1.249583
Cl	3.390389	0.0	0.0
