13

C	0.0	0.0	0.0
C	-0.50333	0.244686	-1.452923
Cl	1.823363	0.0	0.0
H	0.371489	0.333776	-2.108839
H	-0.266966	0.868271	0.603746
N	-0.466764	-1.256031	0.487901
H	-1.502846	-1.057067	0.445225
H	-0.188679	-1.336867	1.460608
C	-1.225067	1.514735	-1.548701
N	-1.639666	2.598645	-1.723535
C	-1.303604	-0.855772	-2.003757
N	-1.797352	-1.718076	-2.628018
F	-2.585039	0.0	0.0
