13

C	0.0	0.0	0.0
C	-0.520493	-0.087286	-1.468429
Cl	1.776929	0.0	0.0
H	0.349525	-0.140111	-2.136619
H	-0.288878	0.977521	0.391226
N	-0.479239	-1.115181	0.758657
H	-0.198801	-0.976074	1.724164
H	-1.512792	-0.925806	0.675781
C	-1.250916	1.12821	-1.839878
N	-1.65989	2.147119	-2.255868
C	-1.314109	-1.287707	-1.757064
N	-1.805011	-2.26869	-2.174908
F	-2.599903	0.0	0.0
