13

C	0.0	0.0	0.0
C	-0.60531	-0.031946	-1.420038
Cl	1.779601	0.0	0.0
H	-1.732091	0.014205	-1.062157
H	-0.315315	0.951832	0.426471
N	-0.49459	-1.045878	0.845408
H	-1.516009	-0.884851	0.793008
H	-0.283949	-1.943111	0.416703
C	-0.333867	-1.283972	-2.102054
N	-0.132686	-2.318574	-2.623934
C	-0.255037	1.117882	-2.23127
N	0.005106	2.074309	-2.863431
F	-2.767636	0.0	0.0
