13

C	0.0	0.0	0.0
C	-0.526021	-0.298195	-1.43688
Cl	1.77765	0.0	0.0
H	0.342143	-0.376966	-2.105632
H	-0.281213	1.028356	0.23752
N	-0.484139	-0.981951	0.920594
H	-0.205796	-0.696179	1.85397
H	-1.517832	-0.804848	0.805016
C	-1.330802	0.811048	-1.957525
N	-1.772732	1.740142	-2.522864
C	-1.234102	-1.575685	-1.555775
N	-1.692816	-2.622765	-1.823749
F	-2.606286	0.0	0.0
