16

C	-0.542732	-0.010003	-1.420974
C	0.0	0.0	0.0
Br	0.232681	1.450903	-2.460798
H	1.093581	0.0	0.0
N	-0.035804	-1.296828	-2.132042
O	-0.648985	-1.611324	-3.153114
O	0.910409	-1.903014	-1.6521
N	-1.952944	0.059235	-1.476917
H	-2.299389	-0.664089	-0.851804
H	-2.265102	-0.128024	-2.42297
N	-0.480661	-1.225729	0.669686
H	-0.843517	-0.991292	1.585693
H	0.35345	-1.795395	0.809432
C	-0.465394	1.194764	0.684165
N	-0.795953	2.141208	1.299403
H	2.666496	0.0	0.0
