16

C	-0.228004	0.017365	-1.508263
C	0.0	0.0	0.0
Br	-0.063231	-1.870841	-2.237098
H	1.096847	0.0	0.0
N	-1.656547	0.362745	-1.921306
O	-1.815155	0.853057	-3.034554
O	-2.545138	0.118497	-1.111272
N	0.655079	0.929309	-2.055412
H	0.641606	0.95584	-3.065265
H	1.596019	0.774409	-1.655272
N	-0.488715	-1.13649	0.734886
H	0.179326	-1.345507	1.466994
H	-1.399841	-0.957253	1.133354
C	-0.419993	1.291609	0.545637
N	-0.760066	2.292492	1.062733
H	2.671463	0.0	0.0
