16

C	-0.674539	-0.006599	-1.377975
C	0.0	0.0	0.0
Br	-0.092643	1.551199	-2.3873
H	1.091081	0.0	0.0
N	-0.177872	-1.264148	-2.103501
O	0.981632	-1.274038	-2.487053
O	-0.97754	-2.192434	-2.188967
N	-2.106729	-0.052148	-1.40249
H	-2.452826	0.762012	-0.906763
H	-2.384947	-0.894469	-0.908612
N	-0.33435	-1.259641	0.672948
H	-0.935516	-1.115628	1.473157
H	0.555124	-1.635907	1.00174
C	-0.474104	1.158359	0.740224
N	-0.890324	2.062771	1.369238
H	2.619034	0.0	0.0
