16

C	-0.504637	-0.031802	-1.440718
C	0.0	0.0	0.0
Br	0.447426	1.401742	-2.492507
H	1.091279	0.0	0.0
N	-0.085211	-1.315738	-2.140488
O	-0.721758	-1.613737	-3.151652
O	0.863998	-1.936858	-1.681884
N	-1.909692	0.04901	-1.555285
H	-2.229985	0.930389	-1.171195
H	-2.188638	-0.033173	-2.525989
N	-0.45472	-1.130391	0.789468
H	0.203266	-1.887447	0.647684
H	-1.385716	-1.413862	0.506
C	-0.491058	1.243906	0.592357
N	-0.921823	2.234799	1.057582
H	2.667907	0.0	0.0
