18
Coordinates from ORCA-job run
  C   -0.61154033203050      0.17432038071111      0.34392783384427
  C   0.89367523326312      0.37947241180613      0.09644683900594
  Br  -0.95410312820169      0.46700556095480      2.25981849171102
  H   1.16409470622318      1.40312761528812      0.35952135169851
  C   -1.11724503925585     -1.21353947764793     -0.01922804810870
  H   -2.18729407442051     -1.27095891704913      0.18707976927706
  H   -0.97294692515789     -1.38889269770409     -1.08933561655434
  H   -0.61088843620223     -1.99617809052445      0.54310369119634
  C   -1.36654719143558      1.25096932128700     -0.42567969495732
  H   -2.43666310131932      1.16861497314240     -0.22785125510608
  H   -1.18411494867403      1.12317654706696     -1.49405027332530
  H   -1.03954028541871      2.24982563356717     -0.12905694941774
  N   1.21712362047642      0.10837116356246     -1.26873775453736
  H   1.21877749484953     -0.89130393179044     -1.43327529313359
  H   2.13270994854197      0.47432733071047     -1.49853077450948
  N   1.73594213731248     -0.46979783576776      1.04429919910329
  O   2.33483841735532      0.10708248296820      1.94641783753845
  O   1.78172190409430     -1.67662247058100      0.80513064627502
