18
Coordinates from ORCA-job run
  C   -0.61646894260869      0.17815900815300      0.33343489076716
  C   0.89540398656888      0.36919012328888      0.11630323732535
  Br  -0.99364525668704      0.45871882537228      2.24452258214137
  H   1.17121690407019      1.38864497282267      0.38994326417237
  C   -1.12876807567395     -1.20153151040154     -0.05133063548654
  H   -2.20278317346644     -1.25075098266105      0.13544806215330
  H   -0.96673431138070     -1.36808051466573     -1.12027334058324
  H   -0.63972349879525     -1.99372803277184      0.51297597633856
  C   -1.34527111391268      1.26887975899840     -0.44158737577404
  H   -1.13963937102865      1.15050560167722     -1.50684983674811
  H   -2.42027799832669      1.19300870951568     -0.26918730329734
  H   -1.01749420226969      2.26194044552915     -0.12699306235266
  N   1.24240671559497      0.10263742378577     -1.24393792319959
  H   2.16510161040546      0.46212708902731     -1.45459547038882
  H   1.23825007726946     -0.89601212333671     -1.41450868750884
  N   1.71051716924077     -0.49382032373111      1.07519837753528
  O   2.29565307018078      0.07154466859703      1.99349682978888
  O   1.75025641081928     -1.69943313919938      0.82894041511691
