18
Coordinates from ORCA-job run
  C   -0.60814515495997      0.27815979531568     -0.36027330412548
  C   0.93034997802457      0.37060026172014     -0.30214987739162
  Br  -1.11088698134749      1.22769866534573     -2.01240712305082
  H   1.23889916613861      1.40647143511078     -0.44321640514128
  C   -1.26366254927601      1.01003666172357      0.80236874851370
  H   -0.87620455728138      2.02435394416641      0.91000241088146
  H   -2.34096302966069      1.06452688102458      0.64061944063305
  H   -1.08682413262138      0.46943183644620      1.73655480646914
  C   -1.10957784420590     -1.15223166204307     -0.47547600116363
  H   -0.79589072029454     -1.72650025439901      0.40067649980263
  H   -0.73159086710830     -1.63259736621014     -1.37798613315788
  H   -2.19982566911412     -1.15586153450886     -0.52176575723133
  N   1.57922074036391     -0.48246065402847     -1.23004169980462
  H   2.55717433334122     -0.24339546639513     -1.32648132244080
  H   1.50180809831856     -1.45084348718079     -0.94643338654933
  N   1.34381394323607      0.07251587666562      1.14734029692901
  O   1.41510933512090     -1.11197723397267      1.47463744264724
  O   1.55919591132594      1.03307230121945      1.88203136418056
