18
Coordinates from ORCA-job run
  C   -0.60576028511653      0.17674269671517      0.35335157301886
  C   0.89722317878859      0.37299962839731      0.08490588663300
  Br  -0.91895566822401      0.46215482147957      2.27511548317235
  H   1.17731333691034      1.39489302532772      0.34469047254868
  C   -1.12499888797423     -1.20631584179964     -0.00954455154714
  H   -1.00024293227899     -1.37484077302282     -1.08316373184113
  H   -2.19140416275943     -1.26011444304963      0.21564951973921
  H   -0.61251957091500     -1.99474408220212      0.53904818164932
  C   -1.36444905774463      1.26185914170116     -0.40045585018192
  H   -1.03160724345222      2.25726233506780     -0.09882807249485
  H   -2.43296981917298      1.18133507401869     -0.19322670727063
  H   -1.19259953838471      1.14145829163810     -1.47144648123437
  N   1.19952435788994      0.10167186993806     -1.28517872058677
  H   2.11309316177490      0.46406614274748     -1.52824129255282
  H   1.19417758245523     -0.89781359178228     -1.45083867190737
  N   1.74813899852619     -0.48218877699444      1.01925981269961
  O   2.36309548100962      0.09039782484220      1.91326752124978
  O   1.78394106866792     -1.68882334302232      0.77763562890619
