18

C	0.0	0.0	0.0
C	-0.476521	0.335699	-1.415854
F	1.402834	0.0	0.0
H	-1.574844	0.28931	-1.375337
C	-0.456125	1.050457	0.991039
H	-0.110182	0.773361	1.989923
H	-1.54786	1.098501	0.988829
H	-0.037877	2.027717	0.738488
C	-0.463945	-1.385227	0.39508
H	-1.556144	-1.399789	0.420083
H	-0.10313	-2.121398	-0.322448
H	-0.073571	-1.619805	1.389271
N	0.018769	-0.647431	-2.37786
H	-0.428545	-0.49382	-3.273109
H	1.016338	-0.513888	-2.495985
C	-0.079478	1.710014	-1.788967
N	0.235513	2.782187	-2.153015
Br	-3.963316	0.0	0.0
