18

C	0.0	0.0	0.0
C	-0.46507	0.167389	-1.456716
F	1.405628	0.0	0.0
H	-1.563416	0.210658	-1.41807
C	-0.451232	1.164692	0.856462
H	-0.006345	2.095032	0.494972
H	-0.126726	1.004341	1.888546
H	-1.541066	1.234149	0.830208
C	-0.454431	-1.326505	0.570405
H	-0.047096	-2.158725	-0.007389
H	-0.089963	-1.415293	1.597458
H	-1.546474	-1.364024	0.569384
N	-0.058198	-0.897241	-2.370965
H	-0.671606	-1.691489	-2.240112
H	0.888889	-1.179321	-2.140903
C	0.035442	1.44482	-1.993555
N	0.472251	2.448343	-2.418413
Br	-3.949437	0.0	0.0
