18

C	0.0	0.0	0.0
C	-0.474573	0.239171	-1.443885
F	1.405416	0.0	0.0
H	-1.569633	0.330317	-1.389724
C	-0.453182	1.123097	0.909114
H	-0.055358	2.079925	0.561968
H	-1.545598	1.156687	0.924918
H	-0.08092	0.942425	1.921667
C	-0.462667	-1.347984	0.507744
H	-0.118046	-1.48176	1.536234
H	-0.046802	-2.156757	-0.097425
H	-1.555539	-1.382705	0.485947
N	-0.14143	-0.80983	-2.404921
H	0.794173	-1.149485	-2.211018
H	-0.792471	-1.575104	-2.281353
C	0.07493	1.511689	-1.943297
N	0.528744	2.516818	-2.34657
Br	-3.930189	0.0	0.0
