18

C	0.0	0.0	0.0
C	-0.314143	-0.330281	-1.489934
F	1.402234	0.0	0.0
H	0.337472	0.348554	-2.053948
C	-0.494096	1.38656	0.342616
H	-1.586673	1.389986	0.354084
H	-0.129074	1.669666	1.33367
H	-0.126377	2.118341	-0.383568
C	-0.504976	-1.038955	0.9722
H	-0.204568	-0.7683	1.988082
H	-0.094296	-2.022756	0.736429
H	-1.597416	-1.072948	0.931297
N	-1.657731	-0.181141	-1.999685
H	-2.359723	-0.60697	-1.395416
H	-1.906715	0.799846	-2.017242
C	0.183124	-1.68738	-1.793562
N	0.588509	-2.75616	-2.059427
Br	-4.33415	0.0	0.0
