14
Coordinates from ORCA-job run
  C   -0.61903673017599      0.40688818076233     -0.13374806331076
  C   0.61047497014249     -0.44855960210846      0.12878580913023
  Cl  -0.46039462122655      1.23339721732565     -1.72649702630790
  H   0.41643261153669     -1.01103538055055      1.05013317592886
  H   -0.66871598686369      1.21495129570438      0.60137959431430
  H   0.70082549786279     -1.18181353790044     -0.67954936328060
  C   -1.90838821963686     -0.39214967215374     -0.12265213298905
  H   -1.87461626873332     -1.18004245027526     -0.87810467982779
  H   -2.04676722440257     -0.85427626182844      0.85894863212131
  H   -2.76892777318229      0.24551830504353     -0.32979984416541
  C   1.90547242434647      0.34090561725383      0.27688255306788
  H   1.82791740988113      1.06917055973433      1.08884682285787
  H   2.73993667707978     -0.32582364930510      0.50506271861074
  H   2.14578723337192      0.88086937829797     -0.63968819614968
