13

C	0.0	0.0	0.0
C	-0.584412	0.027923	-1.389239
Br	1.932751	0.0	0.0
H	-1.657799	-0.142774	-1.248907
H	-0.333687	0.846683	0.593316
H	-0.171976	-0.794771	-1.978846
N	-0.398658	-1.238765	0.754739
O	-0.485622	-1.140908	1.972992
O	-0.54952	-2.265301	0.099528
N	-0.350678	1.35165	-1.963555
H	0.321912	1.300454	-2.716254
H	-1.222872	1.707222	-2.332839
Br	-3.82287	0.0	0.0
