13

C	0.0	0.0	0.0
C	-0.576469	0.03308	-1.410908
Br	1.923067	0.0	0.0
H	-1.66313	0.00433	-1.269333
H	-0.329929	0.858329	0.579517
H	-0.321349	1.021054	-1.812431
N	-0.42378	-1.200889	0.808159
O	-0.426456	-2.293276	0.247856
O	-0.70479	-0.993222	1.98344
N	-0.166121	-0.981221	-2.362015
H	0.842952	-1.041477	-2.392073
H	-0.511969	-1.874852	-2.042857
Br	-3.829007	0.0	0.0
