14

C	-0.543421	-0.220951	-1.404577
C	0.0	0.0	0.0
Br	0.175854	1.244807	-2.558984
H	1.099225	0.0	0.0
H	-0.094125	-1.122367	-1.81155
N	-1.958491	-0.311128	-1.40054
H	-2.379056	0.567598	-1.121517
H	-2.310302	-0.567138	-2.313523
N	-0.372836	-1.201156	0.838185
O	-0.717175	-1.00979	2.000078
O	-0.240212	-2.294246	0.301022
C	-0.554281	1.201537	0.603944
N	-1.050487	2.179936	1.02393
Br	3.332491	0.0	0.0
