14

C	-0.531025	-0.014173	-1.440044
C	0.0	0.0	0.0
Br	0.0546	1.645394	-2.276207
H	1.094364	0.0	0.0
H	-0.023263	-0.812877	-1.973935
N	-1.952674	-0.152927	-1.602066
H	-2.226028	-1.080826	-1.301966
H	-2.439613	0.542474	-1.047805
N	-0.360907	-1.302751	0.674277
O	-0.424741	-1.312552	1.897514
O	-0.493572	-2.285977	-0.053707
C	-0.557303	1.089863	0.784983
N	-1.052445	1.98365	1.364
Br	3.328462	0.0	0.0
