14

C	-0.386809	0.097698	-1.479324
C	0.0	0.0	0.0
Br	-0.119258	-1.731404	-2.33042
H	1.092206	0.0	0.0
H	-1.453604	0.259485	-1.624241
N	0.401355	1.116269	-2.030478
H	1.392085	0.972965	-1.834679
H	0.24188	1.250779	-3.018467
N	-0.588426	-1.213443	0.64894
O	0.171648	-2.012848	1.177006
O	-1.815322	-1.299462	0.596519
C	-0.511893	1.171066	0.703702
N	-0.943249	2.099334	1.280042
Br	3.392329	0.0	0.0
