14

C	-0.322715	-0.111061	-1.504833
C	0.0	0.0	0.0
Br	-2.238685	-0.502665	-1.748015
H	1.094264	0.0	0.0
H	-0.195347	0.893975	-1.911006
N	0.481133	-1.020312	-2.258322
H	1.441095	-0.676782	-2.207371
H	0.475302	-1.921441	-1.792785
N	-0.421501	-1.201656	0.782379
O	-0.958165	-1.030564	1.873013
O	-0.164252	-2.293914	0.282513
C	-0.542335	1.207882	0.594978
N	-0.96448	2.226119	1.001325
Br	3.325612	0.0	0.0
