14

C	-0.115421	0.192757	-1.519031
C	0.0	0.0	0.0
Br	-1.848588	1.301822	-1.969713
H	1.0939	0.0	0.0
H	-0.342227	0.918534	0.484525
N	1.029288	0.875262	-1.949984
H	1.210093	0.79084	-2.939504
H	1.852537	0.635303	-1.334557
C	-0.40257	-1.050317	-2.24757
N	-0.54287	-2.022539	-2.895131
N	-0.607158	-1.21683	0.491589
H	0.065925	-1.71024	1.061081
H	-1.4256	-1.021714	1.049742
F	2.732049	0.0	0.0
