14

C	-0.147406	-0.066694	-1.532535
C	0.0	0.0	0.0
Br	-0.050996	1.810471	-2.220109
H	1.099211	0.0	0.0
H	-0.480621	0.878527	0.438554
N	0.936109	-0.812459	-2.126778
H	1.770246	-0.566057	-1.552589
H	0.738078	-1.790666	-1.940247
C	-1.455262	-0.569996	-1.96356
N	-2.526542	-0.963781	-2.244719
N	-0.423259	-1.292465	0.532584
H	0.246192	-1.590621	1.229564
H	-1.343877	-1.254177	0.946052
F	2.698742	0.0	0.0
