18
Coordinates from ORCA-job run
  C   0.90016307314913     -0.26452799754257     -0.28478324423768
  C   -0.47378476068111      0.11603935890103      0.29004746292802
  Cl  0.76962407342510     -0.81977384421938     -1.95445834622291
  H   -0.25353528524226      0.40618304797374      1.32537440003925
  N   1.67226667504560     -1.22427221775461      0.44867784939929
  H   1.63054036681124     -1.02363814193326      1.44013164106094
  H   1.34900185917317     -2.16295963923734      0.26287511025743
  N   1.73557077078858      1.02945379751010     -0.24373950157703
  O   1.99435788327742      1.63750176967469     -1.26946514531031
  O   2.03211389261061      1.36758931052663      0.89932671386996
  C   -1.41820535827067     -1.08154697337515      0.31281147219844
  H   -1.71311289561030     -1.37106216913343     -0.69738656241408
  H   -2.32310334490679     -0.82024031536782      0.86602900325295
  H   -0.97029952685409     -1.94714779731556      0.80535979616524
  C   -1.10425512651573      1.31157651350952     -0.41858641889795
  H   -1.26139329565208      1.10296069027537     -1.47877026415442
  H   -0.49116449346768      2.21084177988770     -0.33429341638765
  H   -2.07478450708013      1.53202282762034      0.03184945003050
