18
Coordinates from ORCA-job run
  C   0.88102745907075     -0.20515337693096     -0.37557454864402
  C   -0.64698609698042     -0.19322748510460     -0.25884679051626
  Cl  1.39410655500568      0.31246890183800     -2.06115330618991
  H   -0.94213056291996     -1.07395541651652     -0.84695336294328
  N   1.40910957761239     -1.45409929738260     -0.00458559851078
  H   1.03657536841741     -2.18902312275507     -0.59066328672680
  H   2.42073039785865     -1.45373466043465     -0.03252908858982
  N   1.57070042109663      0.83209659896589      0.51790355575667
  O   0.94515667366635      1.84414374860698      0.80584923470522
  O   2.72355381972903      0.58180753017711      0.84878790318414
  C   -1.38282421542712      1.00492589966839     -0.85471230618324
  H   -1.14914888021854      1.14917843220343     -1.90868905351446
  H   -2.45718980973356      0.82116233381523     -0.77246395776607
  H   -1.15042163625667      1.92099697176603     -0.31546670128306
  C   -1.07290854417701     -0.43316332002296      1.19308788439090
  H   -0.90944978631335      0.46204738842557      1.79549955620926
  H   -0.52914140862716     -1.26490842104741      1.64013327069124
  H   -2.14075933180309     -0.66256270527184      1.22037659593027
