16

C	0.0	0.0	0.0
C	-0.54319	-0.160907	-1.420448
Cl	1.806597	0.0	0.0
H	-1.630314	-0.262427	-1.221705
H	-0.267241	1.023294	0.286924
N	-0.531497	-1.013116	0.853659
H	-0.318082	-0.756247	1.812744
H	-1.560043	-0.857766	0.703283
N	-0.05383	-1.426232	-2.036721
O	-0.652199	-2.46576	-1.7639
O	0.919697	-1.369236	-2.795712
C	-0.236982	1.020537	-2.312679
H	-0.610117	0.844211	-3.323658
H	0.831802	1.228615	-2.371857
H	-0.761263	1.889026	-1.907133
F	-2.821726	0.0	0.0
