16

C	0.0	0.0	0.0
C	-0.438965	0.043671	-1.478092
Cl	1.840431	0.0	0.0
H	0.433378	0.308719	-2.083916
H	-0.231147	0.967031	0.442844
N	-0.523289	-1.129721	0.689683
H	-0.289026	-1.019607	1.671744
H	-1.556369	-0.898174	0.576035
N	-1.337475	1.232726	-1.73413
O	-2.135356	1.145947	-2.659587
O	-1.095356	2.270006	-1.124821
C	-1.0623	-1.231918	-1.9986
H	-0.413703	-2.07003	-1.736271
H	-1.186862	-1.181796	-3.080721
H	-2.028514	-1.334887	-1.508086
F	-2.700072	0.0	0.0
