16

C	0.0	0.0	0.0
C	-0.547239	-0.085154	-1.425992
Cl	1.79605	0.0	0.0
H	-1.635541	-0.179069	-1.230737
H	-0.272437	1.005221	0.34156
N	-0.532969	-1.059586	0.797431
H	-0.312163	-0.860643	1.768123
H	-1.5604	-0.892768	0.660195
N	-0.081054	-1.328975	-2.100696
O	0.903793	-1.25763	-2.844774
O	-0.707831	-2.365412	-1.888772
C	-0.218461	1.127713	-2.266024
H	0.855268	1.300975	-2.340051
H	-0.619858	1.012568	-3.275586
H	-0.701903	1.994224	-1.808324
F	-2.826218	0.0	0.0
