16

C	0.0	0.0	0.0
C	-0.437296	0.05538	-1.4796
Cl	1.840137	0.0	0.0
H	0.435585	0.327202	-2.081515
H	-0.233209	0.962928	0.450331
N	-0.522061	-1.136206	0.680742
H	-1.554903	-0.905013	0.569433
H	-0.287351	-1.032108	1.663318
N	-1.338005	1.245476	-1.725817
O	-2.139291	1.165459	-2.648869
O	-1.093778	2.27857	-1.110654
C	-1.061595	-1.215169	-2.010154
H	-0.418654	-2.058215	-1.751878
H	-1.183124	-1.154977	-3.092344
H	-2.028999	-1.315566	-1.521493
F	-2.699794	0.0	0.0
