16

C	0.0	0.0	0.0
C	-0.435763	-0.242573	-1.478554
Cl	1.789576	0.0	0.0
H	0.432168	-0.111091	-2.13344
H	-0.292258	1.015658	0.245963
N	-0.524362	-0.860739	1.006519
H	-1.552145	-0.651387	0.877712
H	-0.355451	-1.826238	0.744854
N	-1.333977	0.875863	-1.956159
O	-1.080428	2.009923	-1.560632
O	-2.146396	0.618241	-2.836743
C	-1.087035	-1.583701	-1.720449
H	-2.011364	-1.577322	-1.142027
H	-0.412233	-2.382658	-1.397131
H	-1.301464	-1.722808	-2.779547
F	-2.709655	0.0	0.0
