16

C	0.0	0.0	0.0
C	-0.516211	-0.100773	-1.450919
Cl	1.797917	0.0	0.0
H	-1.596728	-0.27956	-1.258543
H	-0.304779	0.993324	0.328376
N	-0.523555	-0.942749	0.933845
H	-1.546055	-0.733455	0.833249
H	-0.371242	-1.870501	0.552125
N	0.066978	-1.283819	-2.132253
O	0.749261	-1.120512	-3.147632
O	-0.154419	-2.391714	-1.634922
C	-0.298737	1.159084	-2.254736
H	-0.872165	1.952748	-1.770303
H	0.754701	1.440369	-2.302687
H	-0.670259	1.042918	-3.273944
F	-2.788018	0.0	0.0
