10
Coordinates from ORCA-job run
  C   -0.00302042883226      0.06942518484180      0.07651693412701
  C   -0.30987438353851      1.25640641585895     -0.48340518004450
  H   0.38802562555670      2.08204832887742     -0.44280357787047
  H   -1.26695917080779      1.41627283844490     -0.96162181217265
  N   1.25595813690051     -0.21685229565583      0.61207540236046
  H   2.03516877144349      0.04348853224682      0.03273351305920
  H   1.33973635269182     -1.13209871848250      1.02123411976638
  N   -0.92784712732334     -0.96868095955718      0.28829843789245
  H   -1.86200694884439     -0.71203845793597      0.00569576993762
  H   -0.64918082724623     -1.83797086863839     -0.14772360705550
