10
Coordinates from ORCA-job run
  C   0.01635146810109     -0.01192882234876     -0.09602695128493
  C   -0.26777756099547      1.25122373187660     -0.47398185081850
  H   -1.26378996097789      1.52471114961671     -0.79591801824471
  H   0.51234011630405      1.99649665265097     -0.55442509234559
  N   -0.92342553619627     -1.05224579252374     -0.10969423528904
  H   -0.80982471581435     -1.71212435175765      0.64651364444263
  H   -1.87034075738830     -0.70594323621894     -0.13440879098782
  N   1.31332609614568     -0.45800887574792      0.19458000426555
  H   1.94199826603000      0.30684771959563      0.38675970019639
  H   1.35114258479146     -1.14002817514289      0.93860159006604
