10
Coordinates from ORCA-job run
  C   0.00008539076761      0.00043758877029     -0.00006542236069
  C   -0.27692700771218      1.30211666311831     -0.20848417166963
  H   0.51466881892589      2.03439650976952     -0.30020284088554
  H   -1.29838312276364      1.64983620681075     -0.29187650236988
  N   1.26863180666450     -0.50682877541208      0.31461121895260
  H   1.50782833628281     -1.29842954530084     -0.26695823957569
  H   1.98825968452004      0.19972685591320      0.28604808931266
  N   -0.94016925715147     -1.03738780118952     -0.06663161019545
  H   -1.88111341798322     -0.70111877309023     -0.20599569415291
  H   -0.88288123155035     -1.64474892938940      0.73955517294454
