10
Coordinates from ORCA-job run
  C   -0.03396430328963      0.06279351089118      0.07401142460039
  C   -0.31089175212436      1.24458339556544     -0.51216057483319
  H   0.47202328760826      1.83769248986376     -0.96556057192104
  H   -1.31871851161644      1.63793280383422     -0.51401196162218
  N   1.26646052468350     -0.40183351631610      0.34038632463562
  H   1.45519959928397     -1.30361782680181     -0.07740877307870
  H   1.97327610625733      0.26824443181496      0.07629072535474
  N   -1.02012801469817     -0.78630303979282      0.58206709351555
  H   -1.81058122299752     -0.93455030700255     -0.02085795673229
  H   -0.67267571310694     -1.62394194205629      1.01724427008111
