10
Coordinates from ORCA-job run
  C   -0.00232168752453      0.07043928583996      0.07509904259530
  C   -0.31255602506686      1.24653019901073     -0.50582746299174
  H   -1.27202702332222      1.39543531210376     -0.98284690452593
  H   0.38162180433601      2.07592079545570     -0.47991903368151
  N   1.25695660520079     -0.20582713449696      0.61315607913708
  H   2.03677954918550      0.05115846689577      0.03337456580721
  H   1.34385300650999     -1.11233566816101      1.04027853209419
  N   -0.92557041237703     -0.96517704782904      0.30542769039910
  H   -1.86032491720429     -0.71439017174443      0.01962954668877
  H   -0.64641089973736     -1.84175403707448     -0.11537205552247
