10
Coordinates from ORCA-job run
  C   -0.00020222943372      0.00049944172744      0.00025664390662
  C   -0.26297487959630      1.23377252998483     -0.47317748466157
  H   -1.26141835498123      1.51282086701088     -0.78385577619056
  H   0.51883893026875      1.97672970036840     -0.56294718882961
  N   1.20702775196034     -0.38487714748039      0.60069049373479
  H   1.55504521906041     -1.25090534845842      0.21189814224075
  H   1.90794465456640      0.33993652752065      0.56337723600734
  N   -0.89538353625189     -1.07778558617561     -0.03623920342832
  H   -1.80630272121241     -0.81471727353486     -0.38128299608839
  H   -0.96257483438035     -1.53647371096292      0.86228013330895
