10
Coordinates from ORCA-job run
  C   -0.00010143751739      0.00031509249424     -0.00027272394409
  C   -0.32701449122865      1.22203398900808     -0.46379436709905
  H   -1.36194902268619      1.51836631023844     -0.57522632257084
  H   0.43514248611479      1.93541816706311     -0.74898671094371
  N   1.29352980339071     -0.53999478670335     -0.01276205789572
  H   1.54423589921708     -0.92746658174276      0.88674180624982
  H   1.98665507837242      0.11954286958549     -0.33288439479498
  N   -0.90535671742487     -0.90782985112186      0.56728112306546
  H   -0.80408373023060     -1.83123563105114      0.16811490002676
  H   -1.86105786800730     -0.58914957777024      0.51178874790635
