10
Coordinates from ORCA-job run
  C   -0.03134703356628      0.01246286698835     -0.09703171259752
  C   -0.24748466380012      1.33199090388906     -0.26619184346618
  H   -1.23482938568861      1.70465445474699     -0.50440239331666
  H   0.56510289720100      2.04260904818707     -0.19544941326268
  N   1.24407530129709     -0.57755392896245     -0.03156508550312
  H   1.98289963468459      0.09720722069247     -0.16314231752959
  H   1.38986833151109     -1.10373063945988      0.82016548046024
  N   -1.05962123173944     -0.93347123639607     -0.07958432855447
  H   -0.75331124974689     -1.88476870226755      0.03508212197936
  H   -1.85535260015243     -0.68939998741798      0.48411949179061
