10
Coordinates from ORCA-job run
  C   0.04402149032509      0.03655632872213     -0.08549341812988
  C   -0.37833583106718      1.30899109267686     -0.22338140013913
  H   0.32450046280270      2.13103920770143     -0.19635915288438
  H   -1.42309816043017      1.53344366835594     -0.39182525515268
  N   1.36252961704017     -0.29999565682153      0.23185920827253
  H   1.54290792771877     -1.28828267566020      0.28375152399718
  H   1.77004426604799      0.22996842652621      0.98258572586535
  N   -0.75101728176887     -1.09330349979986     -0.35087799614831
  H   -1.66661448709953     -0.84262177439292     -0.69339089608953
  H   -0.82593800356897     -1.71579511730805      0.44313166040884
