10
Coordinates from ORCA-job run
  C   -0.01699306361001      0.04810118035843     -0.01151456831807
  C   -0.38770401178287      1.30966430994304     -0.30496285913916
  H   0.34825787445796      2.04193295221056     -0.60735059252704
  H   -1.42390793934820      1.61283279398313     -0.24759442189978
  N   1.32388471023925     -0.37211482812813     -0.03360174631512
  H   1.48518543971097     -1.24143332691084      0.45105289308044
  H   1.95262261338765      0.33725489460618      0.30822236672083
  N   -0.93239933338294     -0.95578442983558      0.34173166303698
  H   -1.79399702347834     -0.89266074457031     -0.17697130209162
  H   -0.55494926619348     -1.88879280165648      0.27998856745255
