10
Coordinates from ORCA-job run
  C   -0.01443159854153      0.06048655237706     -0.01342553522529
  C   -0.32288834136550      1.33974870492638     -0.30471852335528
  H   -1.30515992091070      1.59761040440031     -0.67571876901653
  H   0.40680826353396      2.12563048194328     -0.16778786214768
  N   1.28139125874190     -0.32907676005606      0.36061500800197
  H   2.00318588497704      0.07972610521667     -0.20936200898721
  H   1.41498949137297     -1.32060861230287      0.47274212272941
  N   -0.96609256597374     -0.97013875573478     -0.06771656169049
  H   -1.85203110139738     -0.71881972439643      0.33877627284893
  H   -0.64677137043702     -1.86455839637357      0.26659585684217
