10
Coordinates from ORCA-job run
  C   -0.02722684573847      0.01373112709310     -0.09865449084824
  C   -0.24023237968657      1.33518043858744     -0.25665246469687
  H   -1.21749247864091      1.70847235052535     -0.53250139947795
  H   0.56669547358442      2.04647183466331     -0.14176429416735
  N   1.24633452161374     -0.57377320973829      0.01249657732226
  H   1.35666091715218     -1.11196048361779      0.86211211198326
  H   1.98753304925548      0.10548144008984     -0.07588511322722
  N   -1.05211066079902     -0.93507830389323     -0.13818452954816
  H   -0.74749861546793     -1.88725870090349     -0.02629502478495
  H   -1.87166298127292     -0.70226649280624      0.39532862744521
