10
Coordinates from ORCA-job run
  C   0.01719360706173     -0.01653818663975     -0.09643458429122
  C   -0.24620657439012      1.23419818897638     -0.52677418743139
  H   -1.23729171047194      1.51061702831617     -0.86117284586202
  H   0.54483494525807      1.96468737006320     -0.63231525937924
  N   1.30614264136483     -0.46924267110045      0.21889363662481
  H   1.32990021673425     -1.12259798271141      0.98877819507453
  H   1.94377896797032      0.29407598512637      0.38609907951777
  N   -0.93829282523568     -1.04240498342065     -0.07255446448500
  H   -0.83971183734243     -1.67036924178829      0.71244593024935
  H   -1.87934743094902     -0.68242550682156     -0.11796550001760
