10
Coordinates from ORCA-job run
  C   -0.03713861534285     -0.01100769292879     -0.09508299498359
  C   -0.32764634388811      1.22667555033247     -0.54291241920610
  H   -1.34375411313461      1.49952382402159     -0.79484415317349
  H   0.45180395660449      1.96290484564474     -0.68690206109188
  N   1.26730219461417     -0.52483322652364      0.01759932522724
  H   1.96373126692110      0.12716532268071     -0.31147730891150
  H   1.48662517095158     -0.83858097120865      0.95404113978190
  N   -1.01474919985925     -0.96274107012415      0.20486569477829
  H   -0.65821800542634     -1.85381858159807      0.50584109924998
  H   -1.78895631144018     -0.62528800029621      0.74987167832915
