12
Coordinates from ORCA-job run
  C   -0.52649161927425     -0.04120847336418     -0.40476065108751
  C   0.99002162896859      0.00145341882110     -0.58659780439098
  Br  -1.35588753565537     -0.71944355946964     -2.02112516512075
  H   1.34176315860889     -0.99943898588501     -0.84179938877837
  H   1.22174838776982      0.67808902304539     -1.41314178602735
  C   -1.08313223709299      1.25977163450705     -0.07552998714477
  N   -1.48294660832483      2.34076715177250      0.15832519264718
  N   -0.87774523387640     -1.03653183416672      0.72139495285261
  O   -0.15207163462440     -2.01579595453324      0.80342836178795
  O   -1.86249876555917     -0.77400642616099      1.39381780363797
  C   1.63868786110506      0.46432703556742      0.63830948795183
  N   2.14755259795505      0.84101696986633      1.62667898367221
