12
Coordinates from ORCA-job run
  C   -0.49017129433387      0.02065434234416     -0.39644027720888
  C   0.85095529416057      0.66159251395864     -0.01064169344614
  Br  -0.42720962069177     -0.74773249925300     -2.15547551759994
  H   0.73777294086487      1.11812529955881      0.97677371135276
  H   1.08496218284041      1.44733053442802     -0.73318479242179
  C   -1.56075062679651      1.00331089613111     -0.32274431269700
  N   -2.39899298280602      1.82653730327808     -0.27346797093840
  N   -0.78322444630571     -1.06411826079898      0.68069534970168
  O   -0.95168344763156     -0.58639474386704      1.79511394164840
  O   -0.78036053049224     -2.23585500352950      0.35692442263560
  C   1.92565437228202     -0.32535480932773      0.02119106618670
  N   2.79204815890983     -1.11609557292258      0.06125607278699
