16

C	-0.496123	0.020615	-1.50428
C	-0.064467	0.190394	-0.057812
Br	-0.41609	1.760344	-2.435607
H	0.979117	0.515908	-0.066934
H	-0.684158	0.961724	0.403815
C	0.328771	-0.992604	-2.253115
H	0.035315	-1.058127	-3.299839
H	1.379338	-0.713833	-2.158105
H	0.195895	-1.955256	-1.760855
N	-1.973916	-0.35748	-1.536181
O	-2.726569	0.244306	-0.77769
O	-2.32647	-1.226571	-2.329613
N	-0.181052	-1.111586	0.569832
H	0.827309	-1.404317	0.727077
H	-0.619529	-1.00693	1.477369
H	2.420922	-1.316763	0.712588
