16

C	-0.418643	0.062347	-1.388116
C	-0.038632	0.005935	0.075903
Br	0.060844	1.806136	-2.122741
H	1.054729	0.037062	0.101567
H	-0.346731	-0.981301	0.430685
C	0.289775	-1.01791	-2.17361
H	-0.062204	-1.991459	-1.824171
H	1.364399	-0.927648	-1.93381
H	0.102105	-0.918238	-3.245562
N	-1.939561	-0.114056	-1.50404
O	-2.64254	0.723275	-2.053442
O	-2.352538	-1.166809	-1.0202
N	-0.759966	1.022416	0.849755
H	-0.672368	0.783519	1.83049
H	-0.280548	1.907489	0.727118
H	2.954714	-0.524536	-0.561981
