16
Coordinates from ORCA-job run
  C   -0.57520134448050     -0.51988066964986     -0.25956789195576
  C   0.79771524699284     -0.25965629407484      0.36409762490158
  H   -0.72956707145200     -1.60287807484718     -0.23561807954602
  H   1.54619890110977     -0.91387987522191     -0.07857166650221
  N   -0.49092900686786     -0.20939462312349     -1.76378370155236
  O   0.53052301944335     -0.58525359610640     -2.33294392475570
  O   -1.45450258912662      0.33577063709315     -2.28551410282574
  N   -1.63314200635842      0.12877652518291      0.41878333015768
  H   -1.57452775385489      1.13000920093551      0.28569028506401
  H   -2.53406026584088     -0.20305998859342      0.10517761300884
  N   0.76795317482496     -0.33783272269143      1.78016526773849
  H   -0.17499541821505     -0.32896143560443      2.14126901087906
  H   1.33443342828090     -1.07712022927942      2.15980813803362
  N   1.27875980778326      1.13588008723524     -0.02525693503384
  O   2.48925250838762      1.30910845227098     -0.03496596658094
  O   0.42308936937352      1.99637260647458     -0.23876900103071
