16
Coordinates from ORCA-job run
  C   -0.51993931155212     -0.07784831413017     -0.55902939713897
  C   0.52025637878125      0.07837287732705      0.55909070164029
  H   -0.14595671825008      0.38240404709864     -1.47457758567547
  H   0.14610916549646     -0.38163677146957      1.47468345319138
  N   -1.67558983202704      0.78531057855851     -0.11330618486775
  O   -2.31071548367353      0.36894020782481      0.85141624259483
  O   -1.86415347664485      1.84282580163914     -0.70901791677125
  N   -0.98626004397335     -1.39761904815292     -0.81088056990501
  H   -0.98945514549902     -1.98390246968956      0.01171912662947
  H   -0.48493484874104     -1.84197911450433     -1.56439006079175
  N   0.98664000533074      1.39826422349505      0.80990539097794
  H   0.98663553631341      1.98496417254530     -0.01241423495274
  H   0.48753264259015      1.84209002946528      1.56523784778702
  N   1.67565589883956     -0.78538612028394      0.11374397338279
  O   1.86251957826582     -1.84326760838667      0.70938075064522
  O   2.31165565474364     -0.36953249133659     -0.85056153674601
