16
Coordinates from ORCA-job run
  C   -0.44345496104576     -0.05341197106837     -0.62426369677182
  C   0.44306783576300      0.05322819662090      0.62445820761802
  H   0.12225510743758      0.25884278793177     -1.50311417283990
  H   -0.12244501191224     -0.25934758017265      1.50333065281166
  N   -1.49782040034504      1.00808598227522     -0.42202515579202
  O   -1.43012399085562      2.02128799156094     -1.11315560943620
  O   -2.31928889491580      0.78220073094309      0.46198311641783
  N   -1.07375553691114     -1.30852356772002     -0.84778868486000
  H   -0.55146773972078     -1.88945529693900     -1.48524741834915
  H   -1.28054712333429     -1.80917537110412      0.00486210912846
  N   1.07316590636198      1.30830176813051      0.84899784651293
  H   0.54905626759910      1.88997316013750      1.48423521615118
  H   1.28319222994544      1.80796183762022     -0.00343166032833
  N   1.49780476358770     -1.00779600683557      0.42178529340685
  O   2.31862318782211     -0.78122019024336     -0.46272569712514
  O   1.43173836052377     -2.02095247113706      1.11309965345563
