16

C	0.0	0.0	0.0
C	-0.62281	0.212912	-1.377128
Br	1.966057	0.0	0.0
H	-1.73264	0.140224	-1.045891
C	-0.47297	1.073054	0.974786
H	-0.137852	2.047274	0.620412
H	-0.073849	0.877305	1.972354
H	-1.567053	0.98979	0.94552
C	-0.371047	-1.330945	0.491396
N	-0.575053	-2.418069	0.888906
C	-0.284089	-0.862868	-2.310678
N	-0.022818	-1.664069	-3.132674
N	-0.313522	1.537967	-1.894516
H	0.572887	1.527103	-2.387493
H	-1.037354	1.804473	-2.550679
F	-2.851504	0.0	0.0
