16

C	0.0	0.0	0.0
C	-0.42676	0.102475	-1.474192
Br	1.970754	0.0	0.0
H	0.085256	1.004279	-1.850393
C	-0.385626	1.229797	0.821676
H	0.061775	1.171407	1.816213
H	-0.008218	2.125673	0.320344
H	-1.47356	1.225461	0.869181
C	-0.409608	-1.250944	0.631015
N	-0.595212	-2.261892	1.201177
C	-1.880233	0.323371	-1.738826
N	-2.602306	0.592647	-2.644488
N	-0.02457	-1.105919	-2.200131
H	-0.560537	-1.133664	-3.059175
H	0.958903	-1.045051	-2.43659
F	-2.583302	0.0	0.0
