16

C	0.0	0.0	0.0
C	-0.479852	0.019957	-1.496736
Br	1.958788	0.0	0.0
H	0.407669	-0.084117	-2.127657
C	-0.472272	1.176905	0.847837
H	-0.103744	1.062221	1.869613
H	-0.096063	2.114858	0.433494
H	-1.568099	1.117914	0.801898
C	-0.381033	-1.257721	0.647837
N	-0.539934	-2.239612	1.273587
C	-1.036681	1.354566	-1.825701
N	-1.414839	2.3885	-2.236073
N	-1.371976	-1.088727	-1.766568
H	-1.644961	-1.044039	-2.742879
H	-2.196436	-0.861093	-1.151876
F	-2.808793	0.0	0.0
