16

C	0.0	0.0	0.0
C	-0.425893	0.148852	-1.470145
Br	1.970743	0.0	0.0
H	0.089211	1.05956	-1.819038
C	-0.384106	1.20317	0.861284
H	0.064592	1.112013	1.852624
H	-0.00641	2.114203	0.388537
H	-1.471833	1.198628	0.910365
C	-0.408108	-1.270331	0.592812
N	-0.589041	-2.289973	1.148508
C	-1.878107	0.382201	-1.729225
N	-2.598923	0.685577	-2.624279
N	-0.026878	-1.038551	-2.231563
H	-0.55919	-1.037538	-3.093116
H	0.957644	-0.974867	-2.462131
F	-2.579918	0.0	0.0
