16

C	0.0	0.0	0.0
C	-0.630183	0.222137	-1.371854
Br	1.969751	0.0	0.0
H	-1.740784	0.14111	-1.03137
C	-0.467993	1.067798	0.984053
H	-0.130002	2.042179	0.63417
H	-0.065967	0.863044	1.977947
H	-1.561747	0.987956	0.960139
C	-0.36091	-1.335949	0.486594
N	-0.592851	-2.417974	0.882231
C	-0.294006	-0.841059	-2.318373
N	-0.032516	-1.626764	-3.154852
N	-0.328756	1.553228	-1.88076
H	0.522411	1.54165	-2.431362
H	-1.091291	1.857465	-2.47195
F	-2.856095	0.0	0.0
