15

C	0.0	0.0	0.0
C	-0.496727	-0.32632	-1.428745
Cl	1.779914	0.0	0.0
H	-1.600794	-0.30768	-1.345017
N	-0.43751	1.346	0.286652
H	-0.10066	1.611808	1.205931
H	-1.45984	1.312219	0.316724
N	-0.446195	-1.082472	0.841776
H	-1.468851	-1.037133	0.840907
H	-0.122692	-0.916772	1.788946
C	-0.073614	-1.655844	-1.869097
N	0.244724	-2.709055	-2.278759
C	-0.075336	0.680902	-2.402451
N	0.23968	1.457209	-3.224697
Cl	-3.486744	0.0	0.0
