15

C	0.0	0.0	0.0
C	-0.254757	-0.244633	-1.552765
Cl	1.903682	0.0	0.0
H	0.625425	0.152593	-2.06407
N	-0.437332	1.314416	0.302986
H	-1.455787	1.308345	0.170627
H	-0.266254	1.466772	1.291683
N	-0.419442	-0.9858	0.921853
H	-0.122184	-1.914838	0.648504
H	-1.443446	-0.93706	0.938729
C	-1.369774	0.457335	-2.20311
N	-2.038836	1.042209	-2.972109
C	-0.299338	-1.678264	-1.836156
N	-0.314256	-2.829916	-2.06495
Cl	-3.373687	0.0	0.0
