15

C	0.0	0.0	0.0
C	-0.485217	0.353966	-1.423565
Cl	1.815008	0.0	0.0
H	-1.590105	0.335663	-1.344276
N	-0.429424	1.071658	0.861775
H	-0.102503	0.888191	1.80442
H	-1.452551	1.03699	0.865399
N	-0.433006	-1.34705	0.263754
H	-1.456248	-1.313264	0.288772
H	-0.102645	-1.625474	1.181496
C	-0.062064	-0.634798	-2.414789
N	0.264324	-1.388239	-3.253859
C	-0.058449	1.69101	-1.836757
N	0.270651	2.747973	-2.227233
Cl	-3.469284	0.0	0.0
