15

C	0.0	0.0	0.0
C	-0.288363	-0.393337	-1.49958
Cl	1.798774	0.0	0.0
H	0.525743	0.081165	-2.054541
N	-0.438385	1.363759	0.154303
H	-0.128107	1.708056	1.059376
H	-1.46384	1.31374	0.169532
N	-0.466724	-1.02006	0.884619
H	-1.491322	-1.00866	0.803041
H	-0.227842	-0.765057	1.838582
C	-1.475175	0.118349	-2.197344
N	-2.163737	0.540251	-3.051429
C	-0.13061	-1.833875	-1.716138
N	0.086279	-2.956064	-1.985232
Cl	-3.413598	0.0	0.0
