15

C	0.0	0.0	0.0
C	-0.486286	0.275684	-1.440213
Cl	1.808865	0.0	0.0
H	-1.591374	0.246428	-1.360336
N	-0.437559	1.106706	0.807811
H	-1.460194	1.062269	0.817788
H	-0.103439	0.975705	1.756315
N	-0.427408	-1.336426	0.332389
H	-1.450452	-1.30571	0.359914
H	-0.09387	-1.564246	1.262942
C	-0.046533	-0.756029	-2.379188
N	0.295932	-1.545514	-3.17766
C	-0.080172	1.597355	-1.916812
N	0.228797	2.642416	-2.354324
Cl	-3.47265	0.0	0.0
