15

C	0.0	0.0	0.0
C	-0.253659	-0.454191	-1.514751
Cl	1.833232	0.0	0.0
H	0.583969	-0.033817	-2.078123
N	-0.456155	1.347479	0.099225
H	-0.251962	1.661473	1.04273
H	-1.478381	1.302298	0.013337
N	-0.46075	-0.84644	1.039028
H	-0.174291	-1.807725	0.89641
H	-1.484263	-0.785751	1.016939
C	-1.429571	0.029926	-2.250957
N	-2.174799	0.404371	-3.078613
C	-0.146778	-1.909526	-1.613962
N	-0.011029	-3.074544	-1.665861
Cl	-3.431408	0.0	0.0
