12

C	-0.354007	0.040726	-1.460485
C	0.0	0.0	0.0
Br	-2.31901	0.20767	-1.805701
H	1.094633	0.0	0.0
H	0.070107	0.941875	-1.901656
H	-0.390042	-0.91833	0.458432
C	0.090025	-1.13893	-2.195709
N	0.41961	-2.089516	-2.801548
N	-0.423301	1.239057	0.64659
H	-1.266461	1.108522	1.189389
H	0.325715	1.511664	1.269903
F	2.62184	0.0	0.0
