12

C	-0.452438	-0.014724	-1.455937
C	0.0	0.0	0.0
Br	-0.053836	1.688665	-2.343814
H	1.092368	0.0	0.0
H	0.13214	-0.769219	-1.982871
H	-0.417659	0.877401	0.508594
C	-1.879375	-0.278812	-1.619669
N	-3.033575	-0.486673	-1.703268
N	-0.412863	-1.284849	0.573844
H	-1.198144	-1.187672	1.202792
H	0.381639	-1.642298	1.090012
F	2.659375	0.0	0.0
