12

C	-0.589779	-0.04998	-1.397197
C	0.0	0.0	0.0
Br	0.150392	-1.552688	-2.436833
H	1.098629	0.0	0.0
H	-1.659617	-0.267263	-1.352825
H	-0.374804	0.930315	0.44965
C	-0.379812	1.175387	-2.156674
N	-0.25165	2.191814	-2.730971
N	-0.545541	-1.150648	0.758138
H	-0.483918	-0.90214	1.739867
H	0.1421	-1.891949	0.641021
F	2.668377	0.0	0.0
