12

C	-0.376836	0.077246	-1.453423
C	0.0	0.0	0.0
Br	-2.344484	0.302326	-1.757371
H	1.09467	0.0	0.0
H	0.061208	0.976759	-1.88505
H	-0.392815	-0.924175	0.443498
C	0.022685	-1.097808	-2.216965
N	0.324031	-2.046573	-2.840446
N	-0.403533	1.228075	0.682271
H	-1.228175	1.087171	1.251211
H	0.368418	1.485817	1.28483
F	2.621948	0.0	0.0
