12

C	-0.588971	0.038224	-1.406232
C	0.0	0.0	0.0
Br	-0.219511	-1.628205	-2.383917
H	1.097641	0.0	0.0
H	-1.679166	0.111551	-1.374218
H	-0.388083	-0.898819	0.493964
C	-0.08989	1.161943	-2.19422
N	0.264238	2.089234	-2.822737
N	-0.465234	1.236023	0.659649
H	-0.907418	1.023612	1.541556
H	0.374288	1.762708	0.86989
F	2.667462	0.0	0.0
