12

C	-0.476787	0.055215	-1.450053
C	0.0	0.0	0.0
Br	-0.059491	-1.608791	-2.413304
H	1.092273	0.0	0.0
H	-1.567331	0.136055	-1.52897
H	-0.42165	-0.899213	0.461913
C	0.102223	1.180823	-2.179318
N	0.496156	2.122755	-2.760427
N	-0.410643	1.206417	0.718668
H	-1.278952	1.605546	0.378592
H	0.328593	1.889471	0.607113
F	2.644973	0.0	0.0
