12

C	-0.448767	-0.09012	-1.454457
C	0.0	0.0	0.0
Br	-0.046507	1.56576	-2.427898
H	1.092032	0.0	0.0
H	0.137496	-0.870537	-1.939951
H	-0.417529	0.903617	0.460738
C	-1.874631	-0.363216	-1.608996
N	-3.025636	-0.586554	-1.692386
N	-0.415129	-1.252491	0.638882
H	-1.206428	-1.123816	1.255049
H	0.375423	-1.582488	1.178462
F	2.660061	0.0	0.0
