12

C	-0.509486	0.002282	-1.43861
C	0.0	0.0	0.0
Br	0.286208	-1.458414	-2.4963
H	1.092496	0.0	0.0
H	-1.585246	-0.199853	-1.498225
H	-0.388111	0.919382	0.460929
C	-0.258865	1.262642	-2.128548
N	-0.102663	2.305474	-2.646368
N	-0.423608	-1.173737	0.754808
H	0.317399	-1.858004	0.671439
H	-1.278706	-1.584999	0.396563
F	2.644087	0.0	0.0
