12

C	-0.287542	-0.040077	-1.511389
C	0.0	0.0	0.0
Br	0.021816	1.711667	-2.33957
H	1.09268	0.0	0.0
H	0.448872	-0.703732	-1.970248
H	-0.465808	0.882556	0.445459
C	-1.641601	-0.460363	-1.856692
N	-2.743534	-0.820465	-2.056193
N	-0.414193	-1.223841	0.671133
H	-1.300049	-1.593164	0.345288
H	0.313904	-1.914696	0.542094
F	2.64937	0.0	0.0
