13

C	-0.594769	-0.09652	-1.382331
C	0.0	0.0	0.0
Br	0.143744	1.174689	-2.647132
H	1.095359	0.0	0.0
H	-1.672445	0.049516	-1.349118
H	-0.360449	-1.083361	-1.781052
N	-0.516301	-1.122552	0.797211
H	-0.150251	-0.979272	1.735071
H	-0.033571	-1.947358	0.45153
N	-0.466677	1.229579	0.721483
O	-0.075671	1.345565	1.881387
O	-1.213403	2.021477	0.148596
Br	3.496414	0.0	0.0
