13

C	0.0	0.0	0.0
C	-0.492015	-0.438991	-1.390854
Br	1.932746	0.0	0.0
H	0.128708	0.084372	-2.121682
H	-0.358148	-0.607657	0.829123
H	-0.245997	-1.505585	-1.464416
N	-0.414167	1.413532	0.310582
O	-0.357059	2.224254	-0.608652
O	-0.749152	1.648592	1.467031
N	-1.868907	-0.220044	-1.716728
H	-2.558543	-0.568248	-1.052751
H	-2.06811	0.765379	-1.814083
Cl	-4.576871	0.0	0.0
