13

C	0.0	0.0	0.0
C	-0.588876	0.239122	-1.383249
Br	1.919952	0.0	0.0
H	0.154088	0.722844	-2.020364
H	-0.353561	-0.924156	0.445474
H	-1.442304	0.906033	-1.255251
N	-0.365362	1.09976	0.966789
O	-0.376921	2.24508	0.527991
O	-0.553087	0.771488	2.132406
N	-0.966952	-1.062313	-1.932
H	-1.892107	-1.241565	-1.541782
H	-1.09042	-0.963709	-2.932908
Cl	-3.488237	0.0	0.0
