13

C	0.0	0.0	0.0
C	-0.544835	0.049968	-1.429998
Br	1.929471	0.0	0.0
H	0.164566	0.583855	-2.06578
H	-0.365473	-0.848529	0.571058
H	-1.47616	0.609744	-1.38832
N	-0.368451	1.224846	0.799738
O	-0.556896	1.064725	1.99999
O	-0.389141	2.293422	0.198668
N	-0.849497	-1.257444	-1.980626
H	-1.698061	-1.572378	-1.520147
H	-0.101488	-1.914674	-1.793752
Cl	-3.425899	0.0	0.0
