13

C	0.0	0.0	0.0
C	-0.466943	0.192162	-1.444801
Br	1.927389	0.0	0.0
H	0.19758	0.905568	-1.935401
H	-0.381413	-0.900148	0.472746
H	-1.472284	0.602822	-1.406644
N	-0.381842	1.149904	0.893089
O	-0.520565	0.900513	2.084443
O	-0.453606	2.256641	0.370251
N	-0.5139	-1.050746	-2.198697
H	0.320093	-1.602273	-2.037299
H	-1.317496	-1.572208	-1.867248
Cl	-3.321156	0.0	0.0
