13

C	0.0	0.0	0.0
C	-0.550808	0.025189	-1.425333
Br	1.932671	0.0	0.0
H	-1.636861	0.099319	-1.302827
H	-0.340735	-0.874523	0.549791
H	-0.33291	-0.963162	-1.841641
N	-0.413307	1.177134	0.845962
O	-0.614816	2.247583	0.282067
O	-0.469561	0.981281	2.054031
N	-0.07657	1.042516	-2.341996
H	-0.375015	1.943387	-1.995695
H	0.935854	1.043338	-2.373124
Cl	-3.642102	0.0	0.0
