13

C	0.0	0.0	0.0
C	-0.585648	0.132464	-1.39906
Br	1.929535	0.0	0.0
H	0.159925	0.562654	-2.070968
H	-0.348781	-0.89012	0.514165
H	-1.438487	0.809076	-1.325142
N	-0.360171	1.168192	0.882314
O	-0.391423	2.274999	0.355367
O	-0.522203	0.930892	2.073457
N	-0.965965	-1.206885	-1.84627
H	-1.107646	-1.181305	-2.848835
H	-1.883655	-1.361756	-1.428321
Cl	-3.476751	0.0	0.0
