11

C	-0.440699	0.025729	-1.459772
C	0.0	0.0	0.0
Cl	-2.234103	0.061156	-1.62694
H	1.09444	0.0	0.0
H	-0.069669	0.933511	-1.939148
H	-0.349108	-0.914441	0.48579
C	0.062269	-1.136876	-2.189189
N	0.420813	-2.073483	-2.799761
C	-0.499358	1.163272	0.721244
N	-0.912254	2.099902	1.29582
Br	3.430247	0.0	0.0
