11

C	-0.544494	-0.039731	-1.429793
C	0.0	0.0	0.0
Cl	0.069506	-1.458876	-2.321053
H	1.092678	0.0	0.0
H	-1.633204	-0.1379	-1.421823
H	-0.320715	0.937546	0.467602
C	-0.218874	1.188309	-2.153589
N	-0.035757	2.19278	-2.732842
C	-0.532427	-1.112851	0.777039
N	-1.001882	-1.994786	1.393401
Br	3.456671	0.0	0.0
