11

C	-0.552944	-0.04008	-1.427061
C	0.0	0.0	0.0
Cl	-0.041561	-1.551339	-2.231585
H	1.092724	0.0	0.0
H	-1.645518	-0.061307	-1.409374
H	-0.325824	-0.905886	0.519705
C	-0.150461	1.114256	-2.229061
N	0.09278	2.055518	-2.887275
C	-0.530876	1.164179	0.7011
N	-1.000056	2.092443	1.246504
Br	3.460045	0.0	0.0
