11

C	-0.553548	0.118908	-1.422234
C	0.0	0.0	0.0
Cl	-0.045619	-1.294725	-2.389423
H	1.094144	0.0	0.0
H	-1.646169	0.097367	-1.405845
H	-0.325497	-0.958571	0.414952
C	-0.148504	1.353723	-2.092045
N	0.105026	2.361302	-2.639336
C	-0.528636	1.080231	0.825799
N	-0.973517	1.962379	1.460384
Br	3.458489	0.0	0.0
