11

C	-0.451592	-0.095945	-1.460485
C	0.0	0.0	0.0
Cl	0.039619	1.379984	-2.338625
H	1.094629	0.0	0.0
H	0.069253	-0.928588	-1.937857
H	-0.360258	0.930661	0.444836
C	-1.895937	-0.274955	-1.607431
N	-3.056729	-0.415988	-1.722084
C	-0.497312	-1.139073	0.762793
N	-0.899858	-2.053413	1.379553
Br	3.450056	0.0	0.0
