11

C	-0.552543	-0.029385	-1.427107
C	0.0	0.0	0.0
Cl	0.076454	-1.428637	-2.339507
H	1.092726	0.0	0.0
H	-1.639631	-0.144226	-1.413119
H	-0.319622	0.933366	0.476598
C	-0.251697	1.212409	-2.138467
N	-0.090092	2.228175	-2.704317
C	-0.531569	-1.118437	0.76964
N	-1.004853	-2.003581	1.378033
Br	3.452687	0.0	0.0
