11

C	-0.452351	-0.047904	-1.460035
C	0.0	0.0	0.0
Cl	-0.07631	1.473454	-2.31204
H	1.092851	0.0	0.0
H	0.125807	-0.830323	-1.957144
H	-0.311624	-0.932642	0.483552
C	-1.879461	-0.338665	-1.600093
N	-3.021412	-0.596849	-1.696387
C	-0.569544	1.122873	0.730238
N	-1.054921	2.010412	1.325555
Br	3.447516	0.0	0.0
