11

C	-0.4527	-0.043154	-1.46261
C	0.0	0.0	0.0
Cl	0.041485	1.461581	-2.287292
H	1.092665	0.0	0.0
H	0.065223	-0.859884	-1.969643
H	-0.360034	0.913807	0.478397
C	-1.897583	-0.213563	-1.614183
N	-3.058356	-0.352999	-1.727441
C	-0.499073	-1.166511	0.719372
N	-0.923726	-2.106825	1.279956
Br	3.452841	0.0	0.0
