15

C	0.0	0.0	0.0
C	-0.477091	-0.018525	-1.44373
F	1.380731	0.0	0.0
H	-1.586041	0.111014	-1.275627
H	-0.369378	0.895171	0.48897
C	-0.448819	-1.178878	0.751747
N	-0.59004	-2.12349	1.435121
C	-0.079947	-1.268529	-2.190914
H	1.003193	-1.419334	-2.176004
H	-0.566053	-2.121241	-1.712663
H	-0.404049	-1.222216	-3.229419
N	0.079818	1.202191	-2.096062
O	0.005536	2.264917	-1.47724
O	0.548524	1.107596	-3.234081
F	-2.540742	0.0	0.0
