15

C	0.0	0.0	0.0
C	-0.228277	-0.001788	-1.550807
F	1.379672	0.0	0.0
H	0.126583	0.978407	-1.877605
H	-0.401757	0.904376	0.439074
C	-0.482911	-1.180176	0.72338
N	-0.62692	-2.156071	1.36222
C	-1.520114	-0.358478	-2.249366
H	-2.298442	0.289907	-1.862044
H	-1.350678	-0.262327	-3.329715
H	-1.818243	-1.372543	-1.996339
N	0.811781	-0.935997	-2.131491
O	1.647066	-0.461031	-2.901528
O	0.724342	-2.125494	-1.843786
F	-2.419413	0.0	0.0
