18

C	0.0	0.0	0.0
C	-0.47106	0.178111	-1.476045
Br	1.965557	0.0	0.0
H	0.329763	0.72756	-1.984538
C	-0.312038	1.213871	0.772582
N	-0.462439	2.132358	1.490831
C	-0.575874	-1.203776	0.723818
H	-0.246903	-1.210989	1.76521
H	-1.672182	-1.095591	0.682079
H	-0.265578	-2.132355	0.242965
N	-1.650958	1.020594	-1.473398
H	-2.43249	0.599789	-0.90144
H	-1.998265	1.09431	-2.425449
C	-0.635651	-1.177202	-2.172588
H	-1.50721	-1.695997	-1.769163
H	0.252181	-1.814644	-2.085206
H	-0.81614	-0.999176	-3.237871
H	-3.613716	0.0	0.0
