18

C	0.0	0.0	0.0
C	-0.461297	-0.005648	-1.513274
Br	1.972562	0.0	0.0
H	0.310252	0.567687	-2.042458
C	-0.315719	1.319562	0.560372
N	-0.492326	2.411664	0.95907
C	-0.598428	-1.093007	0.861157
H	-0.293298	-0.974167	1.903334
H	-0.286282	-2.076542	0.507213
H	-1.693234	-0.981573	0.780985
N	-1.73263	0.621756	-1.757202
H	-1.663737	1.618143	-1.574788
H	-2.496454	0.274123	-1.116838
C	-0.481952	-1.428404	-2.05742
H	-0.633442	-1.373229	-3.137299
H	0.447128	-1.969929	-1.852677
H	-1.327089	-1.973074	-1.6318
H	-3.615128	0.0	0.0
