18

C	0.0	0.0	0.0
C	-0.481457	0.225891	-1.465473
Br	1.965632	0.0	0.0
H	0.318931	0.784946	-1.963876
C	-0.307254	1.18802	0.814057
N	-0.44638	2.087129	1.558569
C	-0.572239	-1.226923	0.687685
H	-0.238257	-1.267289	1.726697
H	-0.262843	-2.139826	0.176635
H	-1.668387	-1.119686	0.653506
N	-1.650975	1.084353	-1.425992
H	-1.994992	1.203563	-2.375101
H	-2.43737	0.645666	-0.87538
C	-0.671655	-1.104679	-2.200521
H	-1.53493	-1.632159	-1.7914
H	0.215687	-1.747631	-2.156177
H	-0.880055	-0.892127	-3.254169
H	-3.622708	0.0	0.0
