18

C	0.0	0.0	0.0
C	-0.461479	-0.097149	-1.509536
Br	1.972396	0.0	0.0
H	0.308854	0.443463	-2.073499
C	-0.315464	1.350003	0.480874
N	-0.485269	2.466292	0.809894
C	-0.597803	-1.039594	0.924962
H	-0.293697	-0.858645	1.958604
H	-0.287099	-2.04292	0.631012
H	-1.692757	-0.934505	0.838549
N	-1.735363	0.510988	-1.790613
H	-1.671073	1.516848	-1.663726
H	-2.49722	0.199264	-1.130029
C	-0.483111	-1.550471	-1.965553
H	-0.625615	-1.5637	-3.047711
H	-1.333788	-2.064337	-1.513023
H	0.441614	-2.081349	-1.719592
H	-3.619243	0.0	0.0
