18

C	0.0	0.0	0.0
C	-0.333589	0.080514	-1.554906
Br	1.976369	0.0	0.0
H	0.608127	-0.169512	-2.04487
C	-0.534379	1.116638	0.755473
N	-0.56463	2.102846	1.415148
C	-0.255183	-1.365848	0.677206
H	-1.324649	-1.539217	0.741127
H	0.190315	-1.363098	1.676022
H	0.229371	-2.154046	0.093584
N	-0.669255	1.428319	-1.998903
H	-1.508829	1.682409	-1.481347
H	0.06344	2.061479	-1.687766
C	-1.3504	-0.898558	-2.140986
H	-1.135508	-0.995374	-3.213348
H	-2.361074	-0.536147	-1.991789
H	-1.2765	-1.884926	-1.678738
H	-2.263896	0.0	0.0
