18

C	0.0	0.0	0.0
C	-0.457866	0.033573	-1.513503
Br	1.976569	0.0	0.0
H	0.313151	0.621514	-2.026335
C	-0.31379	1.30204	0.598709
N	-0.511795	2.36025	1.071547
C	-0.601312	-1.113121	0.831738
H	-0.297127	-1.023215	1.877104
H	-1.696037	-0.996077	0.75372
H	-0.294876	-2.088358	0.452323
N	-1.731352	0.663753	-1.742388
H	-1.662979	1.654695	-1.531512
H	-2.493352	0.299319	-1.11006
C	-0.477404	-1.374885	-2.093329
H	-0.607214	-1.296438	-3.174482
H	-1.336032	-1.920313	-1.695536
H	0.440761	-1.931559	-1.881488
H	-3.615576	0.0	0.0
