18

C	0.0	0.0	0.0
C	-0.539555	0.023987	-1.449337
Br	1.972641	0.0	0.0
H	-1.635434	0.038192	-1.257811
C	-0.353418	1.24004	0.698022
N	-0.539541	2.261958	1.249748
C	-0.515298	-1.197596	0.773308
H	-0.177323	-1.170063	1.811453
H	-1.617182	-1.109693	0.718378
H	-0.166566	-2.123811	0.312235
N	-0.213398	-1.166987	-2.220762
H	0.780564	-1.366071	-2.146233
H	-0.726314	-1.961419	-1.857883
C	-0.129777	1.262489	-2.226733
H	-0.427359	2.176193	-1.708033
H	-0.625246	1.231864	-3.198764
H	0.951845	1.290461	-2.394974
H	-3.211821	0.0	0.0
