16

C	-0.563792	-0.009837	-1.420481
C	0.0	0.0	0.0
Cl	0.228665	-1.330587	-2.296738
H	1.090019	0.0	0.0
N	-1.963243	-0.180438	-1.482208
H	-2.257405	-0.202096	-2.450954
H	-2.404001	0.604656	-1.016382
N	-0.100124	1.284578	-2.156506
O	0.851993	1.897386	-1.702905
O	-0.746574	1.562876	-3.163163
C	-0.474155	-1.168257	0.730487
N	-0.843699	-2.106826	1.331952
N	-0.442479	1.218247	0.77412
O	-1.224336	2.00273	0.230299
O	0.012733	1.330338	1.901944
Cl	3.16407	0.0	0.0
