16

C	-0.569023	-0.007254	-1.417997
C	0.0	0.0	0.0
Cl	0.207449	-1.340318	-2.292294
H	1.090015	0.0	0.0
N	-1.970015	-0.165634	-1.473701
H	-2.267838	-0.193723	-2.441012
H	-2.402233	0.625802	-1.010813
N	-0.098242	1.276646	-2.166545
O	0.829852	1.914172	-1.697543
O	-0.720947	1.525885	-3.195791
C	-0.462286	-1.178175	0.723494
N	-0.821739	-2.12376	1.319949
N	-0.447226	1.205016	0.787403
O	0.007075	1.30713	1.915169
O	-1.233209	1.992541	0.256058
Cl	3.145464	0.0	0.0
