16

C	-0.658719	-0.005838	-1.38043
C	0.0	0.0	0.0
Cl	-0.008302	-1.458139	-2.264052
H	1.092027	0.0	0.0
N	-2.058606	0.043228	-1.275791
H	-2.483343	0.210392	-2.177905
H	-2.419734	-0.800844	-0.849874
N	-0.201214	1.169335	-2.255558
O	-1.046894	1.621551	-3.022525
O	0.966083	1.498776	-2.169459
C	-0.484663	-1.165086	0.730692
N	-0.921151	-2.119862	1.258617
N	-0.419612	1.236692	0.760418
O	-0.563967	2.264443	0.112041
O	-0.527579	1.132836	1.975852
Cl	3.14135	0.0	0.0
