16

C	-0.32523	0.104035	-1.502449
C	0.0	0.0	0.0
Cl	-2.061395	0.375275	-1.775848
H	1.089391	0.0	0.0
N	0.456254	1.050699	-2.213395
H	1.433245	0.912552	-1.941507
H	0.179144	1.978574	-1.918149
N	-0.001589	-1.271757	-2.152191
O	0.427165	-2.155982	-1.420495
O	-0.183793	-1.346955	-3.356006
C	-0.618827	-1.091472	0.72604
N	-1.168225	-1.939423	1.326231
N	-0.326143	1.283238	0.737911
O	-0.538771	2.306967	0.09551
O	-0.277762	1.215681	1.958848
Cl	3.118213	0.0	0.0
