16

C	-0.64723	-0.177976	-1.373794
C	0.0	0.0	0.0
Cl	0.063029	-1.695212	-2.085183
H	1.092628	0.0	0.0
N	-2.048257	-0.170533	-1.28545
H	-2.466622	-0.125977	-2.204841
H	-2.380931	-0.974456	-0.768885
N	-0.224327	0.906433	-2.370687
O	0.92495	1.297158	-2.308405
O	-1.073996	1.229209	-3.195737
C	-0.474374	-1.079953	0.856469
N	-0.91041	-1.971703	1.483486
N	-0.432287	1.308778	0.618819
O	-0.506667	1.344011	1.841097
O	-0.620546	2.250967	-0.141889
Cl	3.140042	0.0	0.0
