14
Coordinates from ORCA-job run
  C   -0.66648733108098      0.02757412382252     -0.10770738466254
  C   0.57933730846613      0.14295159360081     -0.96222129843593
  Cl  -2.07826225755369      0.07957124812766     -1.27266959227025
  H   0.69824584256395     -0.74458591942035     -1.58009455558558
  H   0.54392877548621      1.04575517510573     -1.56863336632813
  N   -0.68800894517208      0.96799370259677      0.91751760751045
  H   -0.66650900795081      1.91934459430004      0.57709985865020
  H   -1.44007071097797      0.81665990849631      1.57556158060999
  N   -0.77643031440225     -1.37371722746533      0.51394721437753
  O   -1.26821094487881     -1.43129762613956      1.63263706678639
  O   -0.41867019549934     -2.30979101444804     -0.18175067316460
  N   1.77055507377069      0.25756830915263     -0.07104347512447
  O   1.99741948730879     -0.69915569966450      0.66135921291560
  O   2.41616321992015      1.30012883193529     -0.13300219527865
