14
Coordinates from ORCA-job run
  C   -0.64606010044756      0.01878699920024     -0.15488734117722
  C   0.76748013976225      0.58514539100674     -0.07229651913201
  Cl  -1.06605030679685     -0.28087950355367     -1.83094335960674
  H   0.79837132087678      1.55827842731379     -0.55843800557079
  H   1.06505478847683      0.65591139695754      0.97498038401703
  N   -1.64405322264528      0.85184859761298      0.44469240865199
  H   -1.81105083896619      1.68030747081727     -0.11041469003216
  H   -1.38338411860863      1.09671208823690      1.39238562835722
  N   -0.70444998054897     -1.28451512215312      0.66704271291096
  O   -1.08362673837589     -2.31796346549183      0.15342582672215
  O   -0.38700264237634     -1.10705218306746      1.83940697258762
  N   1.77905429717715     -0.27234574372136     -0.75319977542878
  O   2.55402137120445      0.28049323140356     -1.52696621387028
  O   1.76169603126826     -1.46572758456158     -0.46478802842899
