14
Coordinates from ORCA-job run
  C   -0.70738454169561      0.13922349512623     -0.23078673814309
  C   0.62650639855548      0.06277065774603     -0.94839988639895
  Cl  -1.97529379697266     -0.03044345162069     -1.46777033936614
  H   0.68931096787688     -0.81917184734797     -1.57886419801118
  H   0.75939304973219      0.96551159585845     -1.54520855057945
  N   -0.90673960454836      1.33037137115030      0.48200785248202
  H   -1.83216609380005      1.35671596240186      0.89083315452155
  H   -0.20753026907821      1.41248834498462      1.21025222629360
  N   -0.85900410812030     -1.14361552690753      0.64894020614782
  O   -1.57108148013164     -1.03209429783181      1.63643636850820
  O   -0.28140614783592     -2.15336523871039      0.26714999598906
  N   1.79442292165211     -0.01477031707857     -0.01425627785675
  O   2.87473530623041     -0.24845105810265     -0.53733160096213
  O   1.59823739813567      0.17183031033211      1.18599778737542
