14
Coordinates from ORCA-job run
  C   -0.75930614772101      0.04528985738482     -0.17034935434402
  C   0.56857162639871     -0.01307080870575     -0.91988234399669
  Cl  -2.01264582910780     -0.03828569650506     -1.43799553754604
  H   0.63196076452391      0.79949215148878     -1.64224366883426
  H   0.69370285350916     -0.97030478427867     -1.42479159321222
  N   -1.02152853431001      1.14709077484753      0.66897190616941
  H   -0.44591701947572      1.13315908161189      1.49977435770612
  H   -0.95387399866761      2.02439377624241      0.17214650818578
  N   -0.89425391454931     -1.24637550877885      0.66744961648225
  O   -0.59778486162011     -2.28029815348714      0.08447174398167
  O   -1.28398008254803     -1.13581332294136      1.81752676452994
  N   1.73249864674351      0.14720240804234      0.00181063425846
  O   1.57677507918610     -0.19800463724591      1.17234073060397
  O   2.76478141763822      0.58652486232497     -0.49022976398436
