18

C	0.0	0.0	0.0
C	-0.433919	0.005149	-1.528004
Br	1.972338	0.0	0.0
H	0.343256	-0.593394	-2.021524
C	-0.375584	1.223085	0.706553
N	-0.596936	2.238655	1.257763
C	-0.514696	-1.220278	0.742184
H	-0.110839	-1.256768	1.756311
H	-1.607889	-1.130262	0.772055
H	-0.225038	-2.129196	0.208244
C	-0.406567	1.422149	-2.087018
H	-1.258087	1.979182	-1.690047
H	-0.511946	1.370197	-3.172363
H	0.512833	1.957105	-1.835854
N	-1.709197	-0.594192	-1.818112
H	-2.468767	-0.239766	-1.173765
H	-1.666634	-1.593972	-1.64974
H	-3.522207	0.0	0.0
