18

C	0.0	0.0	0.0
C	-0.584939	-0.013486	-1.42526
Br	1.972865	0.0	0.0
H	-1.67649	-0.000786	-1.189261
C	-0.329739	1.288501	0.625668
N	-0.515252	2.345622	1.105637
C	-0.529336	-1.135255	0.855555
H	-0.196687	-2.098482	0.46604
H	-1.630732	-1.039042	0.792697
H	-0.195531	-1.034053	1.890834
C	-0.240547	-1.267515	-2.208827
H	-0.748009	-1.202451	-3.173153
H	0.836614	-1.346921	-2.392275
H	-0.581433	-2.172672	-1.703009
N	-0.276252	1.168557	-2.218284
H	0.715399	1.379093	-2.158209
H	-0.784854	1.95765	-1.835261
H	-3.226238	0.0	0.0
