18

C	0.0	0.0	0.0
C	-0.609216	0.018701	-1.394577
Br	1.977119	0.0	0.0
H	-1.692772	0.127813	-1.132048
C	-0.318178	1.268792	0.672603
N	-0.511787	2.25841	1.275523
C	-0.519045	-1.154648	0.83797
H	-0.174683	-2.109358	0.436201
H	-1.621038	-1.072728	0.781459
H	-0.184101	-1.06263	1.873165
C	-0.425291	-1.285209	-2.159423
H	0.634792	-1.539286	-2.276733
H	-0.942317	-2.115181	-1.673579
H	-0.86292	-1.167129	-3.154924
N	-0.167338	1.207504	-2.113158
H	0.668955	1.002642	-2.649233
H	-0.896441	1.492312	-2.755086
H	-3.266365	0.0	0.0
