18

C	0.0	0.0	0.0
C	-0.570618	0.018081	-1.433087
Br	1.972234	0.0	0.0
H	-1.663268	0.037456	-1.21089
C	-0.335581	1.274981	0.649059
N	-0.503818	2.34035	1.117124
C	-0.524541	-1.161021	0.822923
H	-1.625981	-1.075099	0.755123
H	-0.175933	-2.109917	0.412638
H	-0.199147	-1.081429	1.862719
C	-0.229094	-1.228308	-2.230817
H	0.851702	-1.335528	-2.373506
H	-0.615814	-2.1329	-1.758355
H	-0.695339	-1.128301	-3.212554
N	-0.236208	1.207471	-2.203623
H	-0.715194	2.004349	-1.798311
H	0.762123	1.386303	-2.149864
H	-3.218768	0.0	0.0
