18

C	0.0	0.0	0.0
C	-0.217554	-0.027083	-1.574008
Br	1.974812	0.0	0.0
H	0.496334	0.73327	-1.929
C	-0.682233	1.155944	0.570969
N	-0.702121	2.244284	1.061833
C	-0.247806	-1.308206	0.787902
H	-1.311283	-1.486673	0.903164
H	0.203115	-2.143443	0.253174
H	0.229987	-1.215399	1.768948
C	-1.546282	0.378585	-2.197856
H	-2.308944	-0.382848	-2.055156
H	-1.358108	0.520874	-3.278777
H	-1.911319	1.314788	-1.780892
N	0.124514	-1.3578	-2.098679
H	1.117961	-1.511674	-1.960424
H	-0.035386	-1.33869	-3.100877
H	-2.090291	0.0	0.0
