18

C	0.0	0.0	0.0
C	-0.626231	-0.029181	-1.394861
Br	1.963465	0.0	0.0
H	-1.706734	-0.128859	-1.130613
C	-0.334428	1.277753	0.645725
N	-0.537643	2.307524	1.175251
C	-0.522795	-1.138444	0.864929
H	-0.149128	-1.048051	1.887006
H	-0.209747	-2.1023	0.459451
H	-1.622697	-1.042642	0.84327
C	-0.167088	-1.19571	-2.247199
H	0.87439	-1.063632	-2.55616
H	-0.268218	-2.149068	-1.725953
H	-0.794195	-1.248506	-3.143899
N	-0.354202	1.229019	-2.099296
H	-0.642831	1.105901	-3.064557
H	-0.982814	1.930267	-1.712811
H	-3.284376	0.0	0.0
