15
Coordinates from ORCA-job run
  C   0.52035400946191     -0.61018252023700      0.33119519164344
  C   -0.29295978910866      0.64197427563229     -0.05737470164187
  H   -0.13634264809103     -1.27235899479262      0.90577421554326
  H   0.38828788592480      1.33582529099782     -0.56640349054454
  N   1.63415148171060     -0.23274598365846      1.18432099342502
  H   2.35123628029057      0.23445825594169      0.64140985288482
  H   2.05139788094387     -1.05112541440447      1.61051774337912
  C   0.92422800784110     -1.32955177085372     -0.89534775050432
  N   1.29969820011720     -1.87731398042560     -1.86487265377919
  C   -0.75829607445038      1.29305225173442      1.16970128489851
  N   -1.19420189467604      1.81135185291900      2.12846483698925
  C   -1.47487511655630      0.32163374579376     -0.97659960326207
  H   -2.15221313666274     -0.38771500017065     -0.49549663106960
  H   -1.12377953753654     -0.10870909208629     -1.91584209560362
  H   -2.03668554920836      1.22940708360984     -1.20044719235821
