15
Coordinates from ORCA-job run
  C   0.57421512396443     -0.68936682264366     -0.19597520425530
  C   -0.32340638777774      0.52665055489795     -0.51925337645067
  H   0.16790666101837     -1.54341424062318     -0.74865644282963
  H   -0.17609263802714      0.78795429475115     -1.57331123289596
  N   0.50187937701292     -0.99930993665572      1.22254673316672
  H   0.94423751128172     -1.89087739996491      1.40982927846428
  H   0.99337923493222     -0.29152769973411      1.75827056140235
  C   1.94486186917927     -0.44900665550283     -0.69539200842811
  N   3.04749834953156     -0.26534792372349     -1.05755777726471
  C   0.12172634903270      1.66502810601331      0.28962181617488
  N   0.47949896556147      2.54629718603791      0.97848615323669
  C   -1.79846977604070      0.21238058846383     -0.26079382811932
  H   -2.12126951913609     -0.59922624448359     -0.91742851391673
  H   -1.93888246484086     -0.09529038541924      0.77426322055083
  H   -2.41808265569212      1.08705657858659     -0.46464937883531
