15
Coordinates from ORCA-job run
  C   0.78105281029928     -0.45373873819638     -0.32048811332325
  C   -0.51142267006668      0.37387219496260     -0.52614945200273
  H   1.39940533147902     -0.35121705494725     -1.22470799935846
  H   -1.08727148530323     -0.14320187966619     -1.30439446237596
  N   0.41189547324089     -1.83534832207044     -0.01642799405916
  H   0.13622856645573     -2.30100557874278     -0.87375615407842
  H   1.20506133996746     -2.33699187237202      0.36475697468938
  C   1.55767917929050      0.09900545012949      0.79536656998400
  N   2.18068274833885      0.52903054304940      1.69252392917224
  C   -0.16438900109483      1.69846134052091     -1.04595738100269
  N   0.12445410412692      2.76132739422806     -1.45325558193194
  C   -1.35408294560097      0.47307713197633      0.74581821605247
  H   -2.30649926964741      0.96063353801282      0.53160209464689
  H   -1.54016809933264     -0.52947793132271      1.12972562594461
  H   -0.83262608215290      1.05557378443816      1.50734372764301
