15
Coordinates from ORCA-job run
  C   0.57081407910670     -0.68519889029277     -0.22079787741949
  C   -0.32227483050042      0.54485983639353     -0.50027521184735
  H   0.15939916966749     -1.51832978848245     -0.80099753883073
  H   -0.17732752695494      0.84058643970555     -1.54555999083204
  N   0.50076116355911     -1.04298089291980      1.18664909731701
  H   0.93739332151804     -1.94347806185525      1.34162641329786
  H   0.99888992646410     -0.35751689964736      1.74477448768790
  C   1.94094809550702     -0.43385016348163     -0.71565078203462
  N   3.04188787122807     -0.23938592507725     -1.07732030120416
  C   0.13033337134921      1.65389871786272      0.34429756959677
  N   0.49381182217180      2.51019701821259      1.06114112425962
  C   -1.79789529603920      0.22863758169575     -0.24729915905197
  H   -1.93547455908948     -0.11513299809874      0.77670792639661
  H   -2.12735027665410     -0.55738866031798     -0.93123154507955
  H   -2.41391633133339      1.11308268630307     -0.41706421225587
