15
Coordinates from ORCA-job run
  C   0.56757392556528     -0.69226669553533     -0.20630971299325
  C   -0.32068147471935      0.53465213751261     -0.51280760224906
  H   0.15223330828049     -1.53655671861346     -0.76721099732243
  H   -0.17663712191035      0.80535689623622     -1.56501728397891
  N   0.49736801976890     -1.01776610946393      1.20910857069165
  H   0.99922652998018     -0.32251155208794      1.75161201543595
  H   0.92967054834992     -1.91670240125285      1.38407997956824
  C   1.93848839039813     -0.45803282335059     -0.70716638890948
  N   3.04097781518462     -0.27892418666424     -1.07206751282152
  C   0.13805540886107      1.66162361535312      0.30442623947443
  N   0.50595194665149      2.53424811638487      0.99895232725208
  C   -1.79717186985744      0.23112802028317     -0.24927026516355
  H   -1.93472352075892     -0.08280693165856      0.78420676009358
  H   -2.13020992015707     -0.57300208078814     -0.90985739621537
  H   -2.41012198563695      1.11256071364505     -0.44367873286236
