15
Coordinates from ORCA-job run
  C   0.59866282756411     -0.57688804152486      0.23448025713390
  C   -0.29730504168656      0.63015600976274     -0.12296722535560
  H   -0.03023814615783     -1.31995858139909      0.75164532616180
  H   0.33896357445900      1.35018184224088     -0.64854104837312
  N   1.74728690376223     -0.11999820923255      1.00935570571108
  H   2.40001347796353     -0.88179130286472      1.14969715428943
  H   1.43256264595875      0.19007651499687      1.92201414670309
  C   1.07348835423050     -1.19959498242898     -1.00762896984007
  N   1.44625290972399     -1.70450131504655     -1.99964872075068
  C   -0.73046968352925      1.24531671867397      1.13394811089792
  N   -1.07355637148098      1.69424939346492      2.16350124493167
  C   -1.50139872764056      0.24336027020491     -0.98394858898425
  H   -2.12260393639414      1.11765334121988     -1.18357393848088
  H   -1.16454930775075     -0.16546545658873     -1.93809903576892
  H   -2.11610947902204     -0.50379620147869     -0.47723441827535
