14
Coordinates from ORCA-job run
  C   -0.56348274081838     -0.01906403696631      0.14520104875893
  C   0.84689124149607      0.53128240369129      0.25019195431966
  F   -1.14620455192575     -0.07715370446706      1.38264610448400
  H   0.86853446341242      1.34013129073325      0.97430089518795
  H   1.21424576559845      0.86076806987233     -0.71979374591041
  N   -1.42941339749916      1.07509386227030     -0.55639191875802
  O   -2.42089488922645      0.67407616397899     -1.15458211774494
  O   -1.08470891641556      2.24341003988444     -0.41126205060511
  N   -0.63976744350229     -1.25505621345858     -0.47481411214234
  H   0.03103288828302     -1.39901741668101     -1.21411304606481
  H   -1.58207697407788     -1.49786767489795     -0.74666323653726
  N   1.75001501949017     -0.55250680077179      0.72765274461881
  O   2.26940876412349     -1.25092147859062     -0.14202392363148
  O   1.88842077106184     -0.67317450459728      1.93965140402502
