14
Coordinates from ORCA-job run
  C   -0.53930665914286     -0.16295135724335      0.08830746479074
  C   0.94154876390158     -0.42281690707260     -0.06212074449966
  F   -0.83007797778572      0.01470260855758      1.41815656086015
  H   1.18682663637177     -1.42381982011585      0.29009352126400
  H   1.24254251689011     -0.29669904305545     -1.09984766571061
  N   -0.95294576120134      1.13054957823560     -0.61850590724098
  O   -0.32250985108742      1.43775186867054     -1.61956590116121
  O   -1.93550124832610      1.69500435809846     -0.15807961239429
  N   -1.29328369977003     -1.17790048623531     -0.52715625129428
  H   -1.09332234277076     -2.08294039726569     -0.12156025556146
  H   -2.28516349665556     -0.98345612730408     -0.44922697181884
  N   1.75173068954218      0.52364204612962      0.76032163326829
  O   1.35805000208211      1.68282188187726      0.83074678270519
  O   2.77141242795204      0.06811179672327      1.26743734679297
