14
Coordinates from ORCA-job run
  C   -0.51927402491419      0.06602959105841      0.11175723335325
  C   0.93128569932716      0.38683609857126     -0.19427416187460
  F   -0.67980237043981      0.14883405659835      1.48955495474397
  H   1.17474742062971      1.39419942573339      0.12662330418606
  H   1.14211494568320      0.25006833374075     -1.25356817364048
  N   -1.41035150011595      1.19064239506773     -0.41907598143985
  O   -0.87758120086188      2.11844948071838     -1.01836624216387
  O   -2.60537480058354      1.04849109186906     -0.19786648484362
  N   -0.99255602960202     -1.11003258445391     -0.45955231368222
  H   -1.94362726044307     -1.30054819773789     -0.17085038064746
  H   -0.37198403046271     -1.88693471903222     -0.27545073653233
  N   1.82330386679148     -0.53707575564000      0.57090592422459
  O   1.66741412398790     -1.74460195540137      0.39116481441661
  O   2.66268516100372     -0.02535726109194      1.30199824389996
