14
Coordinates from ORCA-job run
  C   -0.63905704578267     -0.04166468953428      0.13384238395833
  C   0.80778664070022     -0.50715974027889      0.21582076644692
  F   -1.00003882324036      0.44644719870573      1.34034377040114
  H   0.87207354259235     -1.37764088051904      0.86703585250046
  H   1.18229159201528     -0.73225634479889     -0.78236666283478
  N   -0.76199727097944      1.07896897861349     -0.89761895638989
  O   -1.19953787935441      2.15409058285914     -0.53398995361137
  O   -0.42979274111373      0.74516670543743     -2.03123049924898
  N   -1.58091463531737     -1.02227273265747     -0.27335202859489
  H   -1.58820610967162     -1.81044356781448      0.36063528305637
  H   -1.41418904644677     -1.32349376804125     -1.22394451807512
  N   1.69588178847208      0.53797303377324      0.80268515344853
  O   1.64629498670064      1.64676637129381      0.27756188913106
  O   2.40940500142580      0.20651885296146      1.74357751981221
