14
Coordinates from ORCA-job run
  C   -0.55165288788230     -0.00511412302467      0.21090593308660
  C   0.86906563760042      0.52779542048343      0.15127010954805
  F   -1.01065208766186     -0.02683998477305      1.47899683892355
  H   0.95392484505954      1.39461900790606      0.80566222241972
  H   1.15314978426061      0.76071555201912     -0.87178085929018
  N   -1.41605813393747      1.07165964775674     -0.52394567292021
  O   -1.16078286611940      1.18543379191773     -1.72018438420115
  O   -2.26607670476043      1.67873182019850      0.11022655472490
  N   -0.68545251746527     -1.27712102295873     -0.35595104642688
  H   -1.63725080625237     -1.61669747488329     -0.31307643595982
  H   -0.31271052413053     -1.33313912757927     -1.29287396436179
  N   1.79855328323424     -0.52169737994275      0.65210315249259
  O   1.93723745570544     -0.60599251172543      1.86783245120113
  O   2.32770552234941     -1.23335361539439     -0.19818489923647
