14
Coordinates from ORCA-job run
  C   -0.52346109552671     -0.22733801601030      0.03892071812560
  C   0.98435463391735     -0.31415403164248     -0.00418462464162
  F   -0.93171082223232     -0.16016078159167      1.34747962322224
  H   1.31514340436010     -1.29816222532397      0.32546975580224
  H   1.34547949693643     -0.10573733851599     -1.00891831933357
  N   -1.02721883927369      1.05100836587883     -0.63538591865573
  O   -0.36261738022980      1.48153278860740     -1.56653883445487
  O   -2.09911180151252      1.47762458606523     -0.22914902559199
  N   -1.10829958930258     -1.28224561252558     -0.68470580348178
  H   -2.11901758807508     -1.20366758130479     -0.67572575816338
  H   -0.83627065569538     -2.18122623191471     -0.30851965210067
  N   1.62057040036527      0.67416358478524      0.91636227648766
  O   2.65871034510640      0.31636491762462      1.46276956921108
  O   1.08244949116254      1.77099757586814      1.02112599357473
