14
Coordinates from ORCA-job run
  C   -0.53633215123832     -0.03219013117822      0.24637667617607
  C   0.86044648202133      0.54972362034547      0.11809056464526
  F   -0.90916947940578     -0.12283512551650      1.53947460179266
  H   0.96290173398677      1.38960507190681      0.80431041349688
  H   1.06822817439960      0.83605372796445     -0.90973698044593
  N   -1.47997434735794      1.04546192152447     -0.38190311952848
  O   -2.30316389650095      1.59739616964077      0.33298689291983
  O   -1.30905080549594      1.21771712043167     -1.58611604277328
  N   -0.66848794120038     -1.28258322397704     -0.36674273950190
  H   -0.35300528817462     -1.28783449977471     -1.32604498003623
  H   -1.60509233677941     -1.65452580555342     -0.28062469397307
  N   1.85276440816180     -0.48911750922514      0.50859441785219
  O   2.34497244244455     -1.14524027874834     -0.40614072740892
  O   2.07496300513928     -0.62163105784030      1.70747571678495
