14
Coordinates from ORCA-job run
  C   -0.61663030978354     -0.12309351454294      0.28043708425775
  C   0.80142652578951     -0.04118539073468      0.80382436806879
  F   -1.42327277524923     -0.28798827743568      1.40735303150551
  H   0.93000023054307      0.86633180622753      1.38947724876227
  H   1.02347502528865     -0.92795746057853      1.39492126820047
  N   -1.09003747595937      1.22849701987818     -0.26521829746899
  O   -0.75311872765401      2.21245294399035      0.37760067478142
  O   -1.83296617202005      1.20654092206169     -1.23883766083732
  N   -0.77196040246562     -1.08324903402287     -0.70672321131845
  H   -0.52940406810217     -2.01246164326197     -0.39448758275404
  H   -1.67309835569288     -1.04593769086468     -1.16110238371358
  N   1.74881861487403     -0.00611099607969     -0.34108684768414
  O   1.67745752022554      0.97546958026106     -1.07344026704669
  O   2.50931037020609     -0.96130826489772     -0.47171742475301
