14
Coordinates from ORCA-job run
  C   -0.62158509751400     -0.12560249819168      0.16029581331792
  C   0.85877729721042     -0.46534991749532      0.05938112441024
  F   -0.92453100967321      0.08035302971029      1.46054326378762
  H   1.17254367814740     -0.45093432065114     -0.98398887516397
  H   1.03906619678760     -1.43912316775325      0.51239611588544
  N   -0.90824467143756      1.16150587692193     -0.61191743590062
  O   -1.39375963835690      2.10058898836755     -0.01020024294775
  O   -0.64212223076699      1.08992495800594     -1.80813247580327
  N   -1.51423998988888     -1.08699286679208     -0.38095731883394
  H   -1.40520363336908     -1.16920579453380     -1.38275934887223
  H   -1.40474031415279     -1.98579767042979      0.07002766581854
  N   1.70475790579455      0.51829358268305      0.79551943962230
  O   2.50253341009392      0.07398762663667      1.61427525766403
  O   1.53674809712552      1.69935217352160      0.50451701701568
