14
Coordinates from ORCA-job run
  C   -0.56529365108573     -0.07220667701530      0.05754365060906
  C   0.87474802506020     -0.42444228401557      0.34945615510312
  F   -1.02115744704547      0.78905090667615      1.02362402109591
  H   0.93355103929885     -1.08646678257965      1.21234436664240
  H   1.33268927031322     -0.88841734931005     -0.52136212928841
  N   -0.69714279135996      0.66693229875339     -1.27639859964052
  O   0.10245466321714      0.36883050296215     -2.15151984538554
  O   -1.64686986446523      1.43201474992862     -1.36804229293555
  N   -1.34730980619864     -1.23292013400167     -0.08316116619096
  H   -2.30577872555684     -0.99300565112047     -0.31009416292335
  H   -1.33008798294897     -1.79194793184437      0.75997481535425
  N   1.68106669437803      0.78490686864866      0.69158907014707
  O   2.57038940243403      0.62612073061249      1.52117584371575
  O   1.41974117395937      1.82255075230560      0.09287027369678
