14
Coordinates from ORCA-job run
  C   -0.53476867928371     -0.00227969704564      0.01299547345208
  C   0.89929753521216      0.46040171898671      0.18722466837738
  F   -0.95465435323127     -0.51652890406594      1.23424955683486
  H   1.31623468623144      0.79181090410972     -0.76227281536347
  H   0.95868084439434      1.24305226240334      0.93617885049625
  N   -1.43978562842138      1.21396945323099     -0.19064594115783
  O   -2.62906660090685      0.95567088186061     -0.31752459430373
  O   -0.92026447697180      2.32439816250293     -0.22017934641715
  N   -0.75201288388491     -0.83871041139174     -1.07601365870905
  H   -0.08770628631300     -1.60071658540575     -1.09747324075676
  H   -1.71065880132677     -1.16144861231048     -1.10540317556960
  N   1.73634248757489     -0.67496540687651      0.68193122788468
  O   2.35391259998257     -0.50131754489449      1.72563544368596
  O   1.76444955694431     -1.69333622110372     -0.00870244845356
