14
Coordinates from ORCA-job run
  C   -0.62732374900941     -0.03169004732137      0.03449249715301
  C   0.82454995408401      0.38420144554169      0.29703886860996
  F   -1.14502410894591     -0.43443503730114      1.21796287020055
  H   1.32100084417737      0.64035769451417     -0.63813475170597
  H   0.86515153486537      1.20746853016881      1.00891685825287
  N   -1.32820944510780      1.26646084591728     -0.37426458551540
  O   -1.01299248012766      1.68614545187981     -1.48511601874852
  O   -2.09530813546793      1.77980757342634      0.42262486169201
  N   -0.93049015518647     -0.97937443531913     -0.96398092377618
  H   -0.37362217037653     -1.81391194419270     -0.82965155260889
  H   -0.76070219595020     -0.59411253170444     -1.88348957375964
  N   1.56688650838948     -0.75113199925561      0.91510583149142
  O   2.10270575663798     -0.55312811008277      1.99920633246446
  O   1.59137784201770     -1.80465743627090      0.27928928625031
