14
Coordinates from ORCA-job run
  C   -0.54139279202994     -0.17847983556225      0.04776421315664
  C   0.94977429834929     -0.33015477707217      0.23811585062741
  F   -1.08455318528900      0.37210897554845      1.18152778975762
  H   1.43505945036715     -0.51281624613060     -0.71821084606583
  H   1.16074638311556     -1.13973930795472      0.93553871278899
  N   -0.86125253484418      0.78726557404173     -1.09581909061274
  O   -1.93005747995510      1.37568022324238     -1.01037198805882
  O   -0.06717829568820      0.82306317820139     -2.02441456261463
  N   -1.12673437481350     -1.40161833337789     -0.32593639870784
  H   -2.12203529100624     -1.28848123498531     -0.48190372639480
  H   -0.97400158586775     -2.11241056788473      0.37770850917952
  N   1.55971775890782      0.90024385718299      0.82362809421226
  O   1.10489451016401      1.97951669931618      0.46034978015513
  O   2.49901313859006      0.72682179543457      1.59302366257709
