14
Coordinates from ORCA-job run
  C   -0.56436358626485     -0.08483935886000      0.02604757808613
  C   0.86699169799175     -0.41089664788326      0.38421166020049
  F   -1.08509011679483      0.75458444772885      0.97899236924234
  H   1.37959449780124     -0.84527526337411     -0.47127316907470
  H   0.89732567071658     -1.08990828357326      1.23526568390724
  N   -0.64819272046836      0.66922042224358     -1.30325917774962
  O   0.20650609994265      0.41257480987206     -2.13851627466199
  O   -1.61746131514870      1.40365855676943     -1.43504869412071
  N   -1.31400166913980     -1.25901936018047     -0.16712472408992
  H   -2.26547299653129     -1.03511354334133     -0.43598178155120
  H   -1.32400361415211     -1.83066716348561      0.66757262273823
  N   1.62433217095853      0.80917518132258      0.79228194946469
  O   1.38142600187732      1.84853222339096      0.18878549281516
  O   2.46140987921185      0.65797397937056      1.67604646479384
