14
Coordinates from ORCA-job run
  C   -0.65054567138668     -0.01946711137945      0.06768040729799
  C   0.77401355951136     -0.40756118966696      0.43777541252495
  F   -1.14386425713140      0.77447144244175      1.04289586741229
  H   0.75699608893718     -1.06402237624052      1.30653617288163
  H   1.25999682807037     -0.88847309627700     -0.41065893434986
  N   -0.64621061947841      0.76916014735352     -1.24112174834214
  O   -0.18840658552305      0.14401917237764     -2.19326525218120
  O   -1.11393599271674      1.89202234292250     -1.24100432463908
  N   -1.54619046764720     -1.09769116536044     -0.15462276052110
  H   -1.27821299429039     -1.63956021147005     -0.96504411784251
  H   -1.62460054713159     -1.68587788091719      0.66457227051140
  N   1.59471833365766      0.78130099617627      0.80947300774669
  O   1.61510441561153      1.69981544154977     -0.00518016679524
  O   2.19013790951742      0.74186348849022      1.88096416629616
