14
Coordinates from ORCA-job run
  C   -0.72818815944621     -0.20194864985502      0.16483931674018
  C   0.52019485173483     -0.07384274841968      1.01435710172735
  F   -1.79970574676369     -0.11185640082144      1.01528279173005
  H   0.67097602233490     -1.00868854813470      1.55602349279642
  H   0.41691639037430      0.75569701495225      1.70712430837794
  N   -0.88353228138201      1.09097975727398     -0.69279496976313
  O   -0.34007964462902      2.10912390111679     -0.27733295024877
  O   -1.58965898944898      0.99127835835215     -1.68886992041702
  N   -0.82566839610107     -1.37674361210041     -0.57452042857327
  H   -1.65284112823112     -1.36229032290936     -1.15884429921977
  H   0.00134901019629     -1.50528462132480     -1.14239073498796
  N   1.75598864897944      0.17886601238145      0.21861073078868
  O   1.77365330987015     -0.20672238639405     -0.95008947813165
  O   2.67959611251219      0.72143224588284      0.80860503918093
