15

C	0.0	0.0	0.0
C	-0.378844	0.02664	-1.475795
F	1.40123	0.0	0.0
H	0.302003	-0.676941	-1.9742
H	-0.306297	-0.952273	0.44955
H	-0.119854	1.024205	-1.858429
C	-0.542367	1.148761	0.808968
H	-0.156751	1.114407	1.831232
H	-1.634551	1.08001	0.83725
H	-0.249881	2.101562	0.355967
C	-1.822766	-0.332537	-1.799895
H	-2.000583	-0.225227	-2.87545
H	-2.57897	0.240939	-1.252005
H	-2.0401	-1.369044	-1.523855
H	-4.359534	0.0	0.0
