17

C	-0.323189	-0.039898	-1.510133
C	0.0	0.0	0.0
Br	0.024411	1.766698	-2.275135
H	1.095461	0.0	0.0
N	0.579242	-0.92512	-2.217572
H	1.52924	-0.710107	-1.888501
H	0.375258	-1.867999	-1.89173
N	-1.712201	-0.31903	-1.768395
H	-1.814311	-0.480796	-2.765143
H	-1.96577	-1.171072	-1.275722
C	-0.425482	-1.284949	0.538523
N	-0.793061	-2.329642	0.939099
C	-0.568424	1.150379	0.819874
H	-0.388512	0.966321	1.882701
H	-0.052938	2.071343	0.546614
H	-1.641547	1.274017	0.651125
H	2.767462	0.0	0.0
