17

C	-0.344732	0.019803	-1.495581
C	0.0	0.0	0.0
Br	0.109383	-1.858359	-2.202085
H	1.099248	0.0	0.0
N	-1.704297	0.332384	-1.753394
H	-1.877891	0.262559	-2.749567
H	-2.30939	-0.315071	-1.261374
N	0.496952	0.896977	-2.256084
H	1.458984	0.750328	-1.932072
H	0.2256	1.846282	-2.021232
C	-0.598056	-1.105327	0.720488
N	-1.130515	-1.946554	1.34853
C	-0.376776	1.32135	0.681286
H	0.134827	2.144706	0.179458
H	-0.006572	1.296794	1.709313
H	-1.452048	1.510433	0.682256
H	2.738724	0.0	0.0
