17

C	-0.130654	-0.00187	-1.517595
C	0.0	0.0	0.0
Br	-2.091656	0.071747	-2.090102
H	1.103503	0.0	0.0
N	0.490894	1.145663	-2.140759
H	1.449252	1.145976	-1.769687
H	0.033873	2.001947	-1.847409
N	0.44298	-1.214038	-1.997369
H	0.631098	-1.094668	-2.987307
H	1.340781	-1.316929	-1.511974
C	-0.512368	-1.208405	0.617512
N	-0.924809	-2.147005	1.194985
C	-0.49125	1.243986	0.721755
H	-0.282407	1.147799	1.789783
H	0.052267	2.12147	0.364194
H	-1.565281	1.397454	0.582506
H	2.703825	0.0	0.0
