17

C	-0.544996	-0.096814	-1.422421
C	0.0	0.0	0.0
Br	0.344777	1.368068	-2.535475
H	1.098613	0.0	0.0
N	-0.132628	-1.315837	-2.053404
H	-0.532592	-2.09632	-1.542892
H	-0.444732	-1.341526	-3.016803
N	-1.967474	0.099908	-1.456168
H	-2.287457	0.089696	-2.419508
H	-2.212253	0.999595	-1.059
C	-0.42852	-1.196448	0.711335
N	-0.758262	-2.170679	1.283452
C	-0.428964	1.247751	0.769635
H	-1.491718	1.25515	1.032484
H	-0.18248	2.137279	0.186107
H	0.158201	1.2913	1.690387
H	2.717403	0.0	0.0
