16

C	0.0	0.0	0.0
C	-0.205975	-0.043745	-1.576971
Br	1.962142	0.0	0.0
H	0.461289	-0.841693	-1.907488
C	-0.499724	1.143239	0.75204
N	-0.611865	2.070696	1.470008
C	-0.45168	-1.268983	0.561783
N	-0.589152	-2.341769	1.025472
N	0.401	1.189879	-2.193494
O	1.112867	1.019082	-3.183792
O	0.086152	2.279608	-1.72499
C	-1.542468	-0.227924	-2.272561
H	-1.323354	-0.265592	-3.348669
H	-2.006144	-1.15454	-1.948897
H	-2.224526	0.574567	-2.019346
F	-2.295466	0.0	0.0
