16

C	0.0	0.0	0.0
C	-0.206921	-0.030225	-1.577662
Br	1.962523	0.0	0.0
H	0.461536	-0.824328	-1.913324
C	-0.488231	1.142432	0.760422
N	-0.591372	2.070522	1.477694
C	-0.455795	-1.271221	0.551697
N	-0.573024	-2.360269	0.98214
N	0.395362	1.20762	-2.18443
O	1.116019	1.047823	-3.170003
O	0.069116	2.293819	-1.715167
C	-1.543056	-0.214096	-2.273454
H	-2.014288	-1.130446	-1.932462
H	-1.319714	-0.273834	-3.347332
H	-2.218734	0.599424	-2.039026
F	-2.292246	0.0	0.0
