18

C	0.0	0.0	0.0
C	-0.461244	-0.143549	-1.461156
F	1.360392	0.0	0.0
H	-1.565739	-0.216415	-1.401118
C	-0.386304	1.299189	0.674976
H	-1.426184	1.557845	0.487127
H	-0.249618	1.138849	1.744835
H	0.297346	2.086225	0.339915
N	-0.60702	-1.110458	0.760575
O	-1.782453	-0.735647	1.2029
O	-0.310134	-2.275724	0.403089
C	0.082456	-1.35254	-2.093883
N	0.565276	-2.188955	-2.763679
C	-0.039607	1.054408	-2.320633
H	-0.297406	0.874717	-3.368627
H	1.044364	1.207918	-2.265605
H	-0.541954	1.959497	-1.989002
H	-2.84221	0.0	0.0
