18

C	0.0	0.0	0.0
C	-0.464564	0.013884	-1.478355
F	1.360423	0.0	0.0
H	-1.580907	-0.135684	-1.4774
C	-0.437812	1.205964	0.870101
H	-0.160125	0.987098	1.88083
H	-0.046701	2.213979	0.556307
H	-1.519045	1.234985	0.865195
N	-0.404915	-1.332752	0.523792
O	0.427083	-2.16614	1.113838
O	-1.77792	-1.459837	0.806946
C	0.075782	-1.193612	-2.173226
N	0.5058	-2.103603	-2.735184
C	-0.122646	1.279821	-2.207069
H	-0.637464	2.134913	-1.749325
H	-0.411354	1.214105	-3.247989
H	0.946505	1.439871	-2.132196
H	-1.882159	0.0	0.0
