14

C	-0.501786	-0.073501	-1.427492
C	0.0	0.0	0.0
F	-1.852031	-0.269166	-1.459393
H	1.092667	0.0	0.0
H	0.004518	-0.876873	-1.958747
N	-0.210186	1.198025	-2.180871
O	-1.084124	2.058962	-2.200468
O	0.898806	1.26364	-2.699439
N	-0.395055	-1.248366	0.647963
H	0.288773	-1.464302	1.360312
H	-1.308337	-1.166297	1.072202
C	-0.507646	1.194406	0.690264
N	-0.942815	2.091431	1.312093
Cl	3.248143	0.0	0.0
