14

C	-0.535592	0.012791	-1.420304
C	0.0	0.0	0.0
F	-0.041865	1.065277	-2.122715
H	1.093843	0.0	0.0
H	-1.625127	0.03185	-1.465605
N	-0.141789	-1.255128	-2.128603
O	1.0387	-1.390948	-2.411582
O	-1.054584	-2.042849	-2.371068
N	-0.433523	-1.228994	0.650323
H	-1.326533	-1.119917	1.11184
H	0.264158	-1.496061	1.332028
C	-0.473934	1.222325	0.667969
N	-0.909233	2.147125	1.247831
Cl	3.297491	0.0	0.0
