14

C	-0.576618	-0.048659	-1.399714
C	0.0	0.0	0.0
F	-0.164824	0.995734	-2.165781
H	1.095583	0.0	0.0
H	-1.668251	-0.07829	-1.380249
N	-0.169377	-1.308291	-2.136109
O	-0.696915	-1.443176	-3.236838
O	0.626917	-2.079166	-1.61801
N	-0.554337	-1.15352	0.733908
H	0.176496	-1.855568	0.745011
H	-0.72736	-0.887839	1.694134
C	-0.467372	1.248558	0.60477
N	-0.88258	2.21983	1.117788
Cl	3.295965	0.0	0.0
