14

C	-0.50741	-0.071628	-1.422451
C	0.0	0.0	0.0
F	-1.873609	-0.160534	-1.446073
H	1.097188	0.0	0.0
H	-0.071656	-0.930315	-1.929104
N	-0.130254	1.143399	-2.227324
O	0.837154	1.0224	-2.972461
O	-0.818855	2.148696	-2.075212
N	-0.399511	-1.250783	0.645329
H	0.291238	-1.476519	1.350551
H	-1.30652	-1.158747	1.084679
C	-0.494629	1.191342	0.704315
N	-0.886487	2.098721	1.339637
Cl	3.245	0.0	0.0
