14

C	-0.58113	0.028742	-1.405139
C	0.0	0.0	0.0
F	-0.026377	1.021363	-2.145761
H	1.09564	0.0	0.0
H	-1.667486	0.138773	-1.412033
N	-0.328553	-1.286258	-2.094014
O	0.80436	-1.500792	-2.498923
O	-1.301663	-2.031762	-2.194943
N	-0.413996	-1.226626	0.671455
H	0.339947	-1.524518	1.277325
H	-1.253866	-1.099878	1.219889
C	-0.455785	1.219948	0.684367
N	-0.893988	2.153087	1.248708
Cl	3.26144	0.0	0.0
