14

C	-0.402054	0.027382	-1.461513
C	0.0	0.0	0.0
F	0.119395	-1.056183	-2.088981
H	1.1023	0.0	0.0
H	-0.086102	0.939566	-1.967312
N	-1.906365	-0.047793	-1.607022
O	-2.499727	1.001161	-1.368654
O	-2.41023	-1.114567	-1.930583
N	-0.570775	-1.204365	0.621406
H	-0.238326	-1.228604	1.580249
H	-0.130136	-1.995864	0.161548
C	-0.467358	1.193719	0.7027
N	-0.793429	2.150856	1.298844
Cl	3.283881	0.0	0.0
