14

C	-0.440081	-0.103146	-1.453065
C	0.0	0.0	0.0
F	-1.772013	-0.42394	-1.541057
H	1.09368	0.0	0.0
H	0.148985	-0.856327	-1.976499
N	-0.243613	1.186131	-2.207279
O	0.849022	1.325527	-2.746632
O	-1.175234	1.986155	-2.209448
N	-0.383742	-1.190893	0.749621
H	0.367951	-1.864697	0.691164
H	-1.246786	-1.590589	0.406688
C	-0.549069	1.19662	0.644579
N	-0.997392	2.14082	1.180203
Cl	3.241735	0.0	0.0
