14

C	-0.517201	-0.084709	-1.420482
C	0.0	0.0	0.0
F	-1.865208	-0.303684	-1.432099
H	1.092689	0.0	0.0
H	-0.007169	-0.881313	-1.957771
N	-0.263011	1.189323	-2.181821
O	-1.142407	2.04509	-2.156462
O	0.822431	1.264933	-2.74712
N	-0.380676	-1.251822	0.654964
H	0.323811	-1.466112	1.348944
H	-1.281279	-1.170111	1.10646
C	-0.509264	1.190348	0.69386
N	-0.942556	2.092754	1.30906
Cl	3.246576	0.0	0.0
