14

C	-0.509674	0.159697	-1.436843
C	0.0	0.0	0.0
F	-0.237752	1.390101	-1.924691
H	1.095074	0.0	0.0
H	-1.586868	-0.024061	-1.511124
N	0.113183	-0.859952	-2.365023
O	0.804321	-0.464683	-3.291188
O	-0.188416	-2.027428	-2.125126
N	-0.413849	-1.216207	0.675865
H	0.249271	-1.945368	0.449419
H	-1.333116	-1.515723	0.375579
C	-0.489378	1.169674	0.740865
N	-0.924514	2.087179	1.328193
Cl	3.238782	0.0	0.0
