14

C	-0.582447	-0.018101	-1.404202
C	0.0	0.0	0.0
F	-0.053427	0.972976	-2.165935
H	1.095537	0.0	0.0
H	-1.672043	0.066486	-1.409418
N	-0.301084	-1.341132	-2.069594
O	-1.25278	-2.118969	-2.13928
O	0.831916	-1.529036	-2.489133
N	-0.412308	-1.204776	0.710333
H	-1.251146	-1.059991	1.254488
H	0.341027	-1.480696	1.326374
C	-0.45364	1.241135	0.647032
N	-0.868732	2.191724	1.199799
Cl	3.261803	0.0	0.0
