14

C	-0.423012	-0.16767	-1.454707
C	0.0	0.0	0.0
F	-1.703131	-0.641202	-1.555919
H	1.096102	0.0	0.0
H	0.253078	-0.855474	-1.967738
N	-0.362078	1.135936	-2.218688
O	0.690132	1.751105	-2.110976
O	-1.334628	1.45328	-2.89485
N	-0.376328	-1.156303	0.805277
H	-1.220025	-1.594141	0.463556
H	0.390919	-1.815986	0.799372
C	-0.563297	1.225775	0.573959
N	-1.034588	2.200305	1.029121
Cl	3.249684	0.0	0.0
