15

C	0.0	0.0	0.0
C	-0.364796	-0.331505	-1.451808
Cl	1.851134	0.0	0.0
H	0.014503	-1.34413	-1.636744
H	0.208294	0.341624	-2.095118
C	-0.332566	1.394302	0.318798
N	-0.572202	2.518825	0.560318
N	-0.551859	-0.908859	0.936538
H	-1.150656	-1.582543	0.479322
H	-1.080457	-0.453619	1.665563
C	-1.851955	-0.222385	-1.751577
H	-2.011309	-0.387289	-2.820838
H	-2.252001	0.75952	-1.497775
H	-2.477629	-0.926106	-1.206518
Br	-4.850815	0.0	0.0
