15

C	0.0	0.0	0.0
C	-0.491238	-0.431657	-1.375158
Cl	1.850228	0.0	0.0
H	-1.578821	-0.529724	-1.259478
H	-0.05754	-1.41985	-1.571456
C	-0.335192	1.403829	0.286413
N	-0.51843	2.539456	0.521241
N	-0.512466	-0.826121	1.002431
H	-0.446646	-1.811666	0.805565
H	-0.248814	-0.579346	1.941895
C	-0.156357	0.543284	-2.494181
H	-0.431941	0.109228	-3.457978
H	0.90778	0.789391	-2.522595
H	-0.727077	1.465598	-2.3722
Br	-3.94893	0.0	0.0
