15

C	0.0	0.0	0.0
C	-0.481755	-0.221947	-1.436994
Cl	1.798454	0.0	0.0
H	0.034911	0.502799	-2.073067
H	-1.551055	0.012567	-1.439569
C	-0.330088	1.384959	0.41556
N	-0.538761	2.493359	0.746762
N	-0.515335	-1.00981	0.873927
H	-0.318586	-0.76007	1.837216
H	-1.537064	-0.98439	0.752358
C	-0.258982	-1.647254	-1.924905
H	-0.503325	-1.710502	-2.98941
H	0.776998	-1.964804	-1.788663
H	-0.906019	-2.337852	-1.386656
Br	-3.751759	0.0	0.0
