15

C	0.0	0.0	0.0
C	-0.484255	-0.201394	-1.438546
Cl	1.798556	0.0	0.0
H	-1.551889	0.038917	-1.435504
H	0.034346	0.526568	-2.067956
C	-0.330417	1.378803	0.436458
N	-0.530748	2.483434	0.78527
N	-0.515446	-1.021181	0.860482
H	-0.319435	-0.783597	1.827002
H	-1.537254	-0.993915	0.739041
C	-0.271688	-1.621717	-1.94504
H	-0.908525	-2.317449	-1.401191
H	-0.537743	-1.673601	-3.004728
H	0.76761	-1.939281	-1.832516
Br	-3.758015	0.0	0.0
