15

C	0.0	0.0	0.0
C	-0.535318	0.113991	-1.419709
Cl	1.856449	0.0	0.0
H	-1.604154	0.333006	-1.291079
H	-0.042494	0.96255	-1.900682
C	-0.307734	1.222323	0.761182
N	-0.497424	2.192508	1.394514
N	-0.514343	-1.113305	0.673904
H	-0.380269	-1.984521	0.186659
H	-0.249384	-1.170536	1.64497
C	-0.370682	-1.158687	-2.239272
H	-1.053952	-1.931785	-1.882376
H	0.656992	-1.53249	-2.220103
H	-0.638601	-0.959497	-3.278841
Br	-4.024113	0.0	0.0
