15

C	0.0	0.0	0.0
C	-0.375041	0.06023	-1.488773
Cl	1.79535	0.0	0.0
H	0.200792	0.882819	-1.922323
H	0.012186	-0.86932	-1.918692
C	-0.355089	1.264949	0.684236
N	-0.597373	2.237418	1.298293
N	-0.536051	-1.170183	0.627881
H	-1.547549	-1.1647	0.485683
H	-0.365917	-1.143635	1.627812
C	-1.85353	0.237741	-1.79199
H	-2.463086	-0.621354	-1.520083
H	-2.292357	1.084002	-1.262736
H	-1.978194	0.409716	-2.864938
Br	-4.786753	0.0	0.0
