15

C	0.0	0.0	0.0
C	-0.463537	-0.199613	-1.452034
Cl	1.802152	0.0	0.0
H	-1.526165	0.061492	-1.458028
H	0.079948	0.505744	-2.087318
C	-0.354958	1.367861	0.430561
N	-0.557301	2.471932	0.775396
N	-0.497123	-0.927728	0.977399
H	-0.309809	-1.869666	0.650399
H	-1.516864	-0.79814	0.98978
C	-0.292659	-1.628929	-1.946688
H	0.723971	-2.001829	-1.790861
H	-0.507597	-1.67688	-3.016778
H	-1.002928	-2.291505	-1.449425
Br	-3.729115	0.0	0.0
