15

C	0.0	0.0	0.0
C	-0.360793	-0.439259	-1.431745
Cl	1.805855	0.0	0.0
H	0.130242	0.250292	-2.125621
H	0.116267	-1.417115	-1.572633
C	-0.398544	1.397214	0.224619
N	-0.680726	2.527061	0.376094
N	-0.5212	-0.812178	1.062642
H	-0.466134	-1.788227	0.791383
H	-1.504843	-0.580359	1.199095
C	-1.851326	-0.518655	-1.704815
H	-2.350577	-1.284485	-1.113295
H	-2.379465	0.407016	-1.478425
H	-2.014362	-0.754509	-2.760334
Br	-4.806241	0.0	0.0
