12
Coordinates from ORCA-job run
  C   0.96849625594193     -0.49626794172250      0.02467674483582
  C   -0.43745349959371     -0.08731991613635     -0.41842414246672
  H   1.33984783283168     -1.27783503533930     -0.64358355308875
  H   -0.43198266605106      0.40800953102015     -1.39090310546166
  H   0.92245322000699     -0.90185032325404      1.03696675569286
  C   1.86950903029390      0.65327083405434     -0.01094006455031
  N   2.57199676406811      1.59196142865950     -0.05601409061630
  N   -1.00321935104250      0.93758870567033      0.55240224156710
  O   -1.62468432173323      1.86622189453037      0.05219075925403
  O   -0.80550758300522      0.72779934530362      1.74218170898631
  C   -1.33628618832940     -1.23738991050553     -0.43701815254879
  N   -2.03216949338750     -2.18318861228060     -0.45353510160357
