12
Coordinates from ORCA-job run
  C   0.95017278830774      0.06734655239064     -0.64883325334093
  C   -0.55169041015924     -0.11377411613487     -0.42962740227634
  H   1.13317766793286      1.04632229762732     -1.09387376870145
  H   -1.08456895783580      0.02031832897071     -1.37698053955104
  H   1.29359483656476     -0.69972884541652     -1.34871888371783
  C   1.69156335728334     -0.04761132170654      0.60503438534650
  N   2.27906955675777     -0.14561106224622      1.61591799038229
  N   -1.10210319984916      0.99028536013036      0.46960825462482
  O   -2.11512491909599      0.72877750718903      1.10178968190986
  O   -0.51743239103513      2.06425568719653      0.41863875698006
  C   -0.88090237225043     -1.41668953164376      0.13613093116788
  N   -1.09675595662072     -2.49389085635667      0.55091384717616
