15

C	0.0	0.0	0.0
C	-0.734363	0.06488	-1.333396
F	1.342592	0.0	0.0
H	-1.667702	-0.503964	-1.211144
H	-0.378512	0.82511	0.599719
N	-0.347095	-1.254796	0.798553
O	-1.232818	-1.139278	1.637452
O	0.321184	-2.260633	0.572011
N	0.066487	-0.624949	-2.404117
O	0.235309	-1.830683	-2.257093
O	0.498649	0.043761	-3.341967
N	-0.99652	1.444679	-1.659835
H	-1.9912	1.587037	-1.494785
H	-0.771809	1.610724	-2.631554
Br	-3.897133	0.0	0.0
