15

C	0.0	0.0	0.0
C	-0.593872	-0.274456	-1.375661
F	1.357241	0.0	0.0
H	-1.605681	-0.652442	-1.227466
H	-0.396381	0.929475	0.404811
N	-0.345162	-1.073921	1.000277
O	-0.444711	-2.221172	0.576647
O	-0.376433	-0.721028	2.174785
N	0.173749	-1.332229	-2.123778
O	1.322591	-1.049866	-2.464928
O	-0.411252	-2.375867	-2.39731
N	-0.645641	0.889547	-2.214155
H	0.158998	1.486894	-2.077919
H	-1.501459	1.386137	-1.993985
Br	-3.589796	0.0	0.0
