10
Coordinates from ORCA-job run
  C   0.75405101844897     -0.14997547075194     -0.04573108985592
  C   -0.75379219968399      0.14871947161341      0.04590925255169
  H   1.23068461057748      0.52758884193355     -0.75839799973492
  H   -1.23061848497955     -0.52946882285879      0.75785673716137
  H   0.91626781790826     -1.16922665538145     -0.40481989740413
  H   -0.91573309413140      1.16760683597260      0.40617514470158
  C   1.38929320152849      0.00543064563039      1.26177339094408
  N   1.87191915230691      0.13860538675626      2.32274573663207
  C   -1.38938773713769     -0.00455487762754     -1.26166896573580
  N   -1.87368428483749     -0.13672535528650     -2.32184230925999
