10
Coordinates from ORCA-job run
  C   -0.88236213427517     -0.07591559974726      0.14389773630884
  C   0.54929546325362     -0.55048931457830      0.44725881492599
  H   -1.16190093151956      0.73547533358049      0.82058444149425
  H   0.84078837613327     -1.34025398651801     -0.24939461529052
  H   -1.58023808742550     -0.90069506690060      0.31180285347410
  H   0.58453702045391     -0.97074506942934      1.45596283400584
  C   -1.02043354762194      0.38480516766512     -1.23707121296360
  N   -1.11806166500696      0.73816686148696     -2.35150681187761
  C   1.51412020965270      0.54464930027783      0.35966770060066
  N   2.27325529635563      1.43700237416310      0.29779825932205
