15

C	-0.461706	0.051299	-1.453441
C	0.0	0.0	0.0
Cl	-0.144465	-1.538668	-2.229447
H	1.088434	0.0	0.0
H	-0.366302	0.888355	0.523094
C	-1.887038	0.351171	-1.615698
N	-2.998467	0.680013	-1.808389
C	0.38012	1.108524	-2.166872
H	0.181836	2.089311	-1.725884
H	0.12773	1.136671	-3.227729
H	1.436962	0.86742	-2.029343
N	-0.555303	-1.16503	0.738146
O	-1.763986	-1.36958	0.614693
O	0.207279	-1.818873	1.439189
Br	3.525016	0.0	0.0
