15

C	-0.461468	-0.034952	-1.442014
C	0.0	0.0	0.0
Cl	-2.267346	-0.228742	-1.493367
H	1.092764	0.0	0.0
H	-0.353342	-0.892417	0.514872
C	-0.141499	1.15967	-2.226043
N	0.103153	2.02735	-2.979206
C	0.190352	-1.246818	-2.103695
H	-0.107541	-2.155709	-1.577671
H	1.276173	-1.130672	-2.032222
H	-0.115826	-1.319105	-3.148071
N	-0.503434	1.149357	0.784416
O	-0.611687	2.235781	0.2231
O	-0.75168	0.93647	1.969596
Br	3.420308	0.0	0.0
