15

C	-0.460052	-0.034723	-1.440584
C	0.0	0.0	0.0
Cl	-2.264969	-0.253042	-1.488145
H	1.092754	0.0	0.0
H	-0.353022	-0.893385	0.51379
C	-0.156211	1.169352	-2.217477
N	0.087022	2.043305	-2.963548
C	0.21525	-1.231043	-2.114167
H	-0.062095	-2.150607	-1.592097
H	-0.094818	-1.302669	-3.156799
H	1.300075	-1.09226	-2.051778
N	-0.504144	1.147401	0.786767
O	-0.60389	2.237881	0.232861
O	-0.76555	0.928458	1.967311
Br	3.427532	0.0	0.0
