15

C	-0.458999	-0.063417	-1.442033
C	0.0	0.0	0.0
Cl	-2.263707	-0.261075	-1.494687
H	1.092736	0.0	0.0
H	-0.353695	-0.882068	0.532091
C	-0.136416	1.116066	-2.247889
N	0.108099	1.967823	-3.01862
C	0.196166	-1.287826	-2.077611
H	-0.104062	-2.185766	-1.534403
H	1.28147	-1.170462	-2.004089
H	-0.105927	-1.380991	-3.121431
N	-0.505387	1.165284	0.759874
O	-0.609567	2.240928	0.176591
O	-0.758893	0.975353	1.948286
Br	3.419405	0.0	0.0
