15

C	-0.462923	-0.059659	-1.44188
C	0.0	0.0	0.0
Cl	-2.266609	-0.267832	-1.486072
H	1.092675	0.0	0.0
H	-0.352476	-0.88452	0.528775
C	-0.151669	1.123986	-2.24329
N	0.084086	1.983121	-3.01046
C	0.196279	-1.277373	-2.08576
H	-0.093282	-2.179707	-1.544472
H	1.281224	-1.154219	-2.020056
H	-0.11401	-1.367549	-3.127677
N	-0.505362	1.160421	0.765582
O	-0.609834	2.240888	0.187454
O	-0.759765	0.965132	1.953895
Br	3.421293	0.0	0.0
