15
Coordinates from ORCA-job run
  C   -0.51207239872056      0.14831398406675     -0.33338285761844
  C   0.82272357583303     -0.49000997617012     -0.71084675734386
  Cl  -1.51958659504073     -0.08476022561424     -1.88526482386377
  H   0.71233917341421     -1.56365973097108     -0.85299384656088
  H   1.23695024106893     -0.02292443114539     -1.60270062409675
  C   -1.25986927646267     -0.57390753516798      0.76917441275560
  H   -0.69242260141940     -0.50754903335577      1.69727609011504
  H   -2.23942032109937     -0.11221174721127      0.91031203653159
  H   -1.41126030479686     -1.62186636004498      0.51218642967825
  N   -0.31151419998986      1.50325043398928     -0.00014799471874
  H   0.16144579911458      2.02781633119891     -0.72469691199575
  H   -1.17235559200879      1.96721511137060      0.25696438940651
  N   1.81729211947735     -0.27844261741707      0.37995340739436
  O   2.63649073914307      0.62317377816288      0.22327333837708
  O   1.73225964148705     -1.01343798169052      1.36189371193975
