15
Coordinates from ORCA-job run
  C   -0.44234302618814      0.22645845145500     -0.23138057562243
  C   1.08146320699873      0.13193374151797     -0.28630617993173
  Cl  -1.09368877480086     -0.91134401953899     -1.52496371495419
  H   1.44811218347182      0.48101288698013     -1.25035915169179
  H   1.49604861461474      0.72641053503486      0.52845721008523
  C   -1.05630841069346     -0.19474715566112      1.08867491029678
  H   -2.13922557776835     -0.06070703022430      1.04001101106213
  H   -0.65466664546641      0.43265124133271      1.88726272858012
  H   -0.84553633805345     -1.23677539903242      1.31280194750854
  N   -0.75807002661656      1.58939632265343     -0.50237759932587
  H   -1.75055968428059      1.75788388356584     -0.39384440015654
  H   -0.48881398677963      1.85468029290378     -1.44232536854242
  N   1.60013319036294     -1.25303240511895     -0.12093279788403
  O   2.11252102747796     -1.78682561105603     -1.10099373025090
  O   1.48893424772125     -1.75599573481191      0.99627571082711
