15
Coordinates from ORCA-job run
  C   -0.52578490788943      0.16837498493049     -0.48073848036173
  C   0.90453280214623     -0.28112319897294     -0.78275820573225
  Cl  -1.44542258924768     -0.20037624182898     -1.99913271546091
  H   1.37631716403216      0.43108070447049     -1.46011023385315
  H   0.92253270697398     -1.29014731651434     -1.18525808761942
  C   -1.15384313289320     -0.65510478086969      0.63589657265039
  H   -1.08855941207710     -1.72670501900721      0.43802236242689
  H   -0.65080298241362     -0.43584042109687      1.58159523467323
  H   -2.20718434456177     -0.38712146152014      0.73773775245363
  N   -0.55324716550007      1.59220398051399     -0.29234872430272
  H   0.17083274127627      1.86673841711834      0.36151016957276
  H   -1.45643325734299      1.88945399421093      0.05618133774080
  N   1.70919187171925     -0.31664657572106      0.47296310099144
  O   1.95111490552509      0.76336772224643      1.01502576573532
  O   2.04775560025287     -1.41715478795944      0.90041415108570
