15
Coordinates from ORCA-job run
  C   -0.57957951665117      0.14189638938657     -0.43363478843285
  C   0.79952706508691     -0.48632627761372     -0.71750214465879
  Cl  -1.53888803390139     -0.27708992194687     -1.90216700723776
  H   0.71867505429136     -1.55093353056224     -0.92563832965718
  H   1.29441697086953      0.03920274010907     -1.53429203781030
  C   -1.23662757815736     -0.48514859164185      0.78087937962402
  H   -2.25385490379643     -0.10486417098537      0.86559976170712
  H   -1.25827009667487     -1.57244296422848      0.70112383862977
  H   -0.68779567679581     -0.21609861625155      1.68793520782686
  N   -0.60139903882287      1.57401413565131     -0.31021646235841
  H   -0.18070052748364      2.01128062114667     -1.12212802804855
  H   -0.07148429235786      1.85433660444335      0.50731184165879
  N   1.66145588132663     -0.35032501093444      0.48764827096687
  O   1.83578810135319     -1.35272519823820      1.17824833076699
  O   2.09873659171379      0.77422379166575      0.73683216702342
