15
Coordinates from ORCA-job run
  C   -0.49293900817536      0.19683885036597     -0.33854639614193
  C   1.03549770345825      0.20819768975920     -0.19137377798474
  Cl  -0.86981779607496     -0.70228953381200     -1.85033330544534
  H   1.49142193995252      0.65613141661004     -1.07306455468695
  H   1.29786559464999      0.76218561090955      0.71203087214363
  C   -1.21722264345122     -0.46134178314596      0.81876866873055
  H   -0.94902908712277      0.03401912654108      1.75687479649179
  H   -0.96017125281596     -1.51405592097345      0.90845313859855
  H   -2.28933318624917     -0.35951898230653      0.65110017359968
  N   -0.99757524171321      1.53924505438110     -0.50598166382619
  H   -0.50895713564142      2.03423016774026     -1.24273812171577
  H   -0.91943599202069      2.05649596700029      0.36192172852465
  N   1.64348642595914     -1.14428736773430     -0.04279975158844
  O   1.49968917671050     -1.69708549560948      1.04759485103578
  O   2.23752050253436     -1.60976479972578     -1.01190665773527
