15
Coordinates from ORCA-job run
  C   -0.38819589194677      0.25298710617162     -0.38609326379840
  C   1.13204754246103      0.18253847596270     -0.23719834336511
  Cl  -0.84772659076598     -0.54665519786557     -1.92408600535778
  H   1.60318139945763      0.51750929218643     -1.15754753234508
  H   1.43592401211896      0.79915079914090      0.61002192743664
  C   -1.15119532787354     -0.42154164177629      0.74309826045990
  H   -0.97005053703562     -1.49500333490483      0.78392164730852
  H   -2.21995194845887     -0.25356100572618      0.59800168595548
  H   -0.84826589908124      0.01125396309950      1.70068188016296
  N   -0.67454607427715      1.67241223536913     -0.54493643147969
  H   -1.60104570898207      1.78919628785462     -0.93903814910923
  H   -0.67002964120540      2.11151602185170      0.37081900800547
  N   1.61748118213026     -1.19272834597984      0.05236589199400
  O   1.56394531032669     -1.56338207364243      1.22579446791041
  O   2.01842817313207     -1.86469258174145     -0.89480504377810
