15
Coordinates from ORCA-job run
  C   -0.43234576441317      0.19986090142967     -0.01150353205904
  C   0.81446470370865     -0.66837208520517     -0.12448204352226
  Cl  -0.74841770714072      0.84914560309829     -1.72231335707133
  H   0.63135270394045     -1.52792829823996     -0.76436403265568
  H   1.12147726329438     -0.97819966562498      0.87724052559770
  C   -1.62412925865860     -0.67599150816535      0.33417845368813
  H   -1.78205727808860     -1.44441952014533     -0.42252913821629
  H   -1.45750743270534     -1.14112767513386      1.30849524307414
  H   -2.52674738146430     -0.06435456157457      0.39027826721274
  N   -0.27726713973782      1.21964047491234      0.95451304502295
  H   0.53615565954105      1.79254044527046      0.77141775406908
  H   -1.10555200608076      1.79773633304933      1.01189252098247
  N   1.98426076092729      0.03990008785514     -0.72300812324857
  O   2.55536058850861     -0.51142632007573     -1.65739627458297
  O   2.30995228836887      1.11499578854972     -0.22141930829107
