15
Coordinates from ORCA-job run
  C   -0.50936781469440      0.12855019693156     -0.15966893169700
  C   0.83676658881598     -0.58341537378906      0.05790614330639
  Cl  -0.92489502447663     -0.10771068547350     -1.90052158195987
  H   1.18053573538470     -0.39479362244499      1.07780902313266
  H   0.75558086108391     -1.65078561042383     -0.13695705624884
  C   -1.56383155848296     -0.57196885995782      0.68048368119634
  H   -2.52473735346725     -0.08576350036200      0.51205212608862
  H   -1.30869232592450     -0.49444690890124      1.74247767490073
  H   -1.64566076192332     -1.62578894705734      0.41395131935919
  N   -0.54504866389881      1.53626229081044      0.11361846963571
  H   0.25094769264178      2.00628758168310     -0.29944955376269
  H   -0.53638135636800      1.69490060864977      1.11426621851848
  N   1.90836156906144     -0.08089046670403     -0.84582036174472
  O   2.41538462653980     -0.88031634732957     -1.62601755636446
  O   2.21003778570825      1.10887964436851     -0.74412961436054
