15
Coordinates from ORCA-job run
  C   -0.45364420962857      0.19922773842815     -0.23391380536781
  C   1.04764654236736     -0.01949368386300     -0.41412281015876
  Cl  -1.30268469684109     -1.15684996726001     -1.14728657323726
  H   1.58055042311055      0.71502448302908      0.19058367316020
  H   1.31973097647507      0.06803139134321     -1.46480776682199
  C   -0.93489080135360      0.14347120391001      1.20212976464148
  H   -0.41546277406943      0.90760978437658      1.78434241998674
  H   -0.75138470130223     -0.83060679445300      1.64706596653017
  H   -2.00854159634514      0.34233514744945      1.22911786209022
  N   -0.73044157487794      1.48102139284924     -0.79091254919277
  H   -0.55536898684152      1.50025191623049     -1.78854335486866
  H   -1.69458609586841      1.74441793879478     -0.62916257831956
  N   1.51212552425780     -1.36308301376186      0.02528095252602
  O   1.88311142939491     -2.14672210181451     -0.84431559518977
  O   1.50284054152224     -1.58363543525861      1.23554439422175
