15
Coordinates from ORCA-job run
  C   -0.53969704189055      0.11920981629035     -0.30181040854830
  C   0.98614578959384     -0.00667623034661     -0.42402965762952
  Cl  -1.25860393312006     -1.21493673290321     -1.27033054581839
  H   1.45161753523828      0.80125071127111      0.14378877950484
  H   1.27998120323980      0.02988838212160     -1.47198499537634
  C   -1.05137467955800      0.02494921277821      1.12170456466405
  H   -2.12892179807559      0.18803388646955      1.10782301873660
  H   -0.83441195957110     -0.94422994459184      1.56440328111624
  H   -0.57766059341546      0.79360002611989      1.73994158059132
  N   -0.99565722260466      1.35954754000850     -0.88359001068671
  H   -0.63919716264990      1.48612206731288     -1.82352539513255
  H   -0.71802443134601      2.14398507514235     -0.30527071814430
  N   1.53837507419306     -1.27658979146854      0.12582729726245
  O   1.89735443184566     -2.13411167713407     -0.67700231818717
  O   1.58907478812070     -1.37104234107016      1.35205552764778
