18
Coordinates from ORCA-job run
  C   0.68732002438544     -0.19472179469532     -0.54414605057734
  C   -0.72560746917863     -0.50844278610746     -0.02324922121799
  Cl  1.34392428125852     -1.65418147177271     -1.33969140095275
  H   -1.28911788365784     -0.87390672200868     -0.89160845148061
  C   1.66429048996293      0.28599388161675      0.49702346021146
  H   2.64122076944459      0.46089111529736      0.04780331238359
  H   1.73844960609409     -0.47942088016542      1.26707991334712
  H   1.32039139079407      1.21712416260846      0.94530029751648
  N   0.50950406495487      0.84639384883309     -1.64488782398593
  O   1.04645598426132      1.93898420571427     -1.48364316180286
  O   -0.21249107675107      0.53541280231823     -2.58549223784749
  C   -1.41110929250996      0.73935832852845      0.51831767127305
  H   -1.43923398162297      1.54886188954811     -0.21254566130215
  H   -2.44678049734410      0.49645504079399      0.77063832332536
  H   -0.91581212171755      1.09037831724520      1.42505210534757
  N   -0.60768249940089     -1.49192364455822      1.04679107140206
  H   -0.41793634147362     -2.40844240732732      0.65921377586956
  H   -1.48578544749919     -1.54781388586876      1.54804407849087
