18
Coordinates from ORCA-job run
  C   0.55163867686862      0.33083197439273     -0.46413068078687
  C   -0.52981144130052     -0.05053406286545      0.55304609090221
  Cl  -0.17921128017440      1.06350170125374     -1.90355530454950
  H   0.02693423883178     -0.44339053295849      1.40922395681448
  C   1.46255158379413     -0.80683514074255     -0.88205200235673
  H   1.87490537628376     -1.29321302548827      0.00272079271000
  H   2.28162239854535     -0.42203733728358     -1.49254936817246
  H   0.90695323650804     -1.53112532129810     -1.47638120588461
  N   1.42725304787598      1.37643408974194      0.23812735888968
  O   1.53066471978609      2.50177873087521     -0.21744479745376
  O   1.98531841550294      0.94475341567424      1.24303086390098
  C   -1.47421063571274     -1.13318793402759      0.03751729319969
  H   -0.95213605771584     -2.05765625172983     -0.21980063543139
  H   -2.02470959669126     -0.78790550333549     -0.84007797237037
  H   -2.19845877127546     -1.36903928161374      0.82098477974272
  N   -1.17472342871792      1.17540047263924      1.00004061919234
  H   -1.85366701553577      1.48870688034395      0.31603576048395
  H   -1.65991346687279      1.01451712642202      1.87326445116964
