18
Coordinates from ORCA-job run
  C   0.53420820830932      0.24270961200724     -0.52934913440378
  C   -0.58030200842679     -0.05099145966300      0.49017901000699
  Cl  -0.12178507479397      0.45928136226403     -2.15068302730896
  H   -0.05382690682078     -0.32570253654567      1.41243883966961
  C   1.64669537668743     -0.78984391226444     -0.55348016216577
  H   2.43688154933995     -0.46771246773573     -1.23406233303481
  H   1.26318756448204     -1.74684244821945     -0.90609000517443
  H   2.06109829103674     -0.90856348625948      0.44950198781703
  N   1.19500107778346      1.55383399147436     -0.08281056957624
  O   1.46208452837392      2.41617990451081     -0.90265496722990
  O   1.46185467994917      1.59371455662458      1.11797926250024
  C   -1.45817936584297     -1.21817771698127      0.06468957548100
  H   -2.08660280926003     -0.93301409710225     -0.78015616707818
  H   -2.10395662832588     -1.50161636007223      0.89968149965832
  H   -0.87551368318078     -2.09542788724012     -0.21879658254730
  N   -1.38314107838954      1.15184733866464      0.65890941447555
  H   -2.35227031963703      0.91995673025227      0.82732441513305
  H   -1.04443340128424      1.70136887628572      1.43737894377759
