18
Coordinates from ORCA-job run
  C   0.54519052292185      0.28379635998987     -0.41476288267681
  C   -0.61090828649981     -0.10548627143073      0.54129597784686
  Cl  -0.07174418385061      1.16901688461670     -1.81733257001583
  H   -0.11824283198314     -0.63695482385871      1.36226281905908
  C   1.40533561235146     -0.87552429983330     -0.87860064033872
  H   2.28579241188253     -0.50350011641591     -1.40615615600365
  H   0.83904508509227     -1.50426821838510     -1.56403573663988
  H   1.72791611491868     -1.46553171054664     -0.02039649900054
  N   1.43762960160162      1.21771024836399      0.40531051209638
  O   1.99744471866650      0.66044108743412      1.34794671382485
  O   1.50592875310195      2.40814550506545      0.13570734838251
  C   -1.60967801768495     -1.04179396032536     -0.12337226265960
  H   -2.13383440310424     -0.54033212188361     -0.93933702364052
  H   -1.13708217549671     -1.94343494072356     -0.51594001356046
  H   -2.34714894816482     -1.33242044358274      0.62522026857840
  N   -1.31520332440622      1.01848450228983      1.12387432518862
  H   -1.67921023441695      1.63040763422581      0.40323253838526
  H   -0.71923041492941      1.56124468499987      1.73608328117407
