18
Coordinates from ORCA-job run
  C   0.60163714685523      0.16175220874070     -0.49027934479901
  C   -0.60585667430045      0.13026693640880      0.45312812880744
  Cl  0.07104877714851      0.14576419322182     -2.18173504712001
  H   -0.17106636335551      0.19209017530566      1.45543100484126
  C   1.61385604771006     -0.94456773746833     -0.26671235195381
  H   2.49818828287490     -0.76769974310595     -0.88179523376758
  H   1.90804076008353     -0.96816006225609      0.78316722351031
  H   1.18775282754442     -1.90549956816715     -0.55220908339393
  N   1.31316849425222      1.49059385469665     -0.20330866628333
  O   1.43328737909789      2.32841132363523     -1.07982908177009
  O   1.73126591477004      1.57768306476827      0.94783707787395
  C   -1.41281093424764     -1.16040451245299      0.34120390011532
  H   -1.83383741150036     -1.27379876842142     -0.65994508917183
  H   -2.23993294896003     -1.12059399453508      1.05415055725178
  H   -0.81909939072419     -2.04770993853589      0.57270546537398
  N   -1.36331027132159      1.35698464236660      0.25066661634307
  H   -1.97501074313309      1.52031812482987      1.04006664696403
  H   -1.93732089279395      1.28556980096929     -0.58154272282153
