18
Coordinates from ORCA-job run
  C   0.63764470450342      0.00919737087873     -0.56877825145682
  C   -0.59694486292426     -0.45958884874862      0.22702221649725
  Cl  0.43241693681378     -0.25591134379861     -2.32199843120354
  H   -0.46986087815463     -1.54734095357045      0.27558528893036
  C   1.89996872135210     -0.68267839146793     -0.10685116885342
  H   1.79125927149526     -1.75519779891451     -0.27620675894206
  H   2.76369963483076     -0.32141237403466     -0.65983681394296
  H   2.03500730289645     -0.49069937275649      0.95738016183498
  N   0.81845252544621      1.51975359231324     -0.40838681106736
  O   -0.19503765133008      2.19603395592400     -0.25413539751279
  O   1.95854220846493      1.96103954296028     -0.47633635138074
  C   -1.97450244958284     -0.19087662981067     -0.37536879346532
  H   -2.10361539158676     -0.67860073380114     -1.34189138761937
  H   -2.15285988796325      0.87617071548953     -0.49456588951469
  H   -2.72428015234511     -0.59749708612897      0.30861992426556
  N   -0.41463107259673      0.05353893004087      1.58507118975303
  H   -0.88276798932880      0.94741181053113      1.67589608963364
  H   -0.82249096999046     -0.58434238510573      2.25578118404427
