14
Coordinates from ORCA-job run
  C   0.72583062561430     -0.40769393644230     -0.08597257407577
  C   -0.76559691300868     -0.22764664041415      0.27798357554819
  F   0.86086648502571     -1.77690260343803     -0.38431959353370
  H   -0.97425522288872     -1.00312525872917      1.02990140763193
  C   1.54568012126139     -0.16701224661125      1.11963470826245
  N   2.15098055534942      0.03904101812254      2.10420402189706
  N   1.13812558089934      0.44173285806862     -1.11823794002006
  H   0.51871381874750      0.41283104151014     -1.91751826457284
  H   2.09774478625775      0.27975514789820     -1.39201177305329
  C   -1.56376644386211     -0.54490466499978     -0.91375128860016
  N   -2.19914015744593     -0.77791871315946     -1.87266026166927
  N   -1.03964098714241      1.13632040072281      0.69415766283963
  H   -2.01538802231235      1.22678357628942      0.95003328599877
  H   -0.47915422649520      1.36874002118241      1.50655703334704
