14
Coordinates from ORCA-job run
  C   0.74242324557921     -0.32744670381557     -0.19297942194606
  C   -0.71413665510072     -0.32548384870983      0.32285252681711
  F   0.96291172196424     -1.64075555530791     -0.64840296415148
  H   -0.77629363203060     -1.17795052230188      1.01540417319417
  C   1.65788530052999     -0.13005753424071      0.95029465167261
  N   2.34361009994336      0.03675719212545      1.88847098726594
  N   0.97405092780853      0.65647236270504     -1.16067010936272
  H   0.28259011130534      0.64481729446211     -1.89960753950306
  H   1.91192905091015      0.61450809730040     -1.53641503709029
  C   -1.59809127076052     -0.61706139242060     -0.81413801224238
  N   -2.30447861006120     -0.82903962437197     -1.72710569279393
  N   -1.06510567888664      0.96549607785012      0.88795236577122
  H   -1.99737703727480      0.92450149142588      1.28156293707087
  H   -0.41991757392635      1.20424266529946      1.63278113529800
