12
Coordinates from ORCA-job run
  C   -0.65301949798304      0.62249576010535      0.13080752972027
  C   0.69370272135026      0.40879015478836     -0.50678821476416
  Br  -1.67160229780804      1.87054402528838     -0.93069196294078
  H   1.24889863849958      1.34613330451756     -0.56261898806187
  H   -0.60204617489884      1.00054743125136      1.14764884931677
  H   0.60881529320220     -0.03087838541542     -1.49753353997529
  N   -1.42089320163096     -0.67352310184829      0.20806510636299
  O   -1.15899472131441     -1.52733683267844     -0.63204241678802
  O   -2.25480571729737     -0.74886775351984      1.09999543104691
  N   1.52581778996416     -0.53235612945135      0.31246753381268
  O   1.13299154710530     -0.79775294677060      1.44636888443045
  O   2.55213562081115     -0.93779552626708     -0.21567821215995
