12
Coordinates from ORCA-job run
  C   -0.59357492118657      0.42212095402922     -0.01028621026637
  C   0.60305364306618     -0.50104803554331      0.01808503637662
  Br  -0.79034018104872      1.27497167641069     -1.72517116492764
  H   0.60201846957318     -1.20533941787099     -0.80828274256734
  H   -0.53356615613320      1.20024209779686      0.74593848950253
  H   0.64321365035627     -1.02928117904556      0.97426232225490
  N   -1.83739466856568     -0.37229369446287      0.27974379251131
  O   -1.88581325184467     -1.51355074783930     -0.16919244477394
  O   -2.70195796899788      0.19596865780901      0.93694979365225
  N   1.85359262875072      0.31251338491891     -0.06839825318542
  O   2.70710217342915     -0.05800833242600     -0.86660123394010
  O   1.93466658260121      1.27370463622334      0.69195261536319
