12
Coordinates from ORCA-job run
  C   -0.59488691016519      0.27628030690482     -0.38657789556944
  C   0.57277034377642     -0.33267489087049      0.36169458063654
  Br  -0.44317908791877      0.02213376454658     -2.27600925589765
  H   0.41813550436494     -0.21749175809801      1.43683336985405
  H   -0.67732624603765      1.34087862271268     -0.18146349791723
  H   0.73734386764185     -1.37467175637962      0.09300779944822
  N   -1.85123722381491     -0.35683702382163      0.18685028051449
  O   -2.42269929540596     -1.24257447762971     -0.42844830005560
  O   -2.14710731995551      0.08474789058442      1.29417244848194
  N   1.82638216038656      0.41395938199011      0.03521945201371
  O   1.75875967691778      1.63874836840469      0.07665379586922
  O   2.82404453021043     -0.25349842834383     -0.21293277737825
