17
Coordinates from ORCA-job run
  C   -0.52556722287245      0.38174130457262     -0.40181056796018
  C   0.60676037794765     -0.22627582923813      0.43795754665883
  H   -0.08809368771785      0.64445699352453     -1.37970785759986
  H   0.19367563442141     -0.47612805787842      1.42307224762651
  N   -1.06053436201313      1.61454686834213      0.16926702274659
  H   -1.64827719210815      1.37322165326849      0.96119301869651
  H   -0.28042289511954      2.15060048924021      0.53447402431615
  C   -1.66118885707944     -0.60219122665652     -0.63007625006675
  H   -2.07809342390805     -0.91995598106172      0.33215518916361
  H   -2.45427495089671     -0.11754463033823     -1.20284004712131
  H   -1.32237470349955     -1.49482690773248     -1.15244803527856
  N   1.61570908670441      0.81340817171710      0.66311046833926
  H   2.30137558703859      0.49810162149307      1.33964054683216
  H   2.10780578445188      0.99399517800399     -0.20662835237178
  N   1.05783604006507     -1.47303616913380     -0.17051492957786
  H   1.42979922073135     -1.28141925399583     -1.09571226480004
  H   1.80586556385450     -1.88069422412703      0.37886824039670
