13

C	0.0	0.0	0.0
C	-0.44876	0.271015	-1.443431
Cl	1.792507	0.0	0.0
H	-1.482223	-0.085384	-1.440868
H	-0.341371	-0.981896	0.313165
H	0.200056	-0.309492	-2.108921
C	-0.470359	0.98676	0.969971
N	-0.61507	1.812933	1.793605
C	-0.421705	1.750137	-1.794422
H	-1.217839	2.243725	-1.234602
H	0.533911	2.227749	-1.55481
H	-0.613676	1.896416	-2.862433
F	-2.542197	0.0	0.0
