18

C	-0.449118	0.051464	-1.458704
C	0.0	0.0	0.0
F	0.058723	-1.121524	-2.07212
H	1.095233	0.0	0.0
N	-1.879164	0.05832	-1.580359
H	-2.242474	-0.785707	-1.145964
H	-2.119532	0.024358	-2.565392
C	0.17643	1.215682	-2.195012
H	-0.276149	2.158332	-1.883975
H	0.01686	1.084072	-3.269554
H	1.248647	1.223379	-1.984016
C	-0.508439	-1.217745	0.615878
N	-0.959857	-2.184759	1.110781
C	-0.433564	1.228212	0.803082
H	-1.510471	1.398186	0.749292
H	-0.134686	1.099827	1.845688
H	0.094569	2.105235	0.424717
H	2.830149	0.0	0.0
