18

C	-0.336656	-0.137786	-1.502085
C	0.0	0.0	0.0
F	-0.079902	1.120683	-2.063777
H	1.092577	0.0	0.0
N	0.551084	-1.063781	-2.155367
H	1.490058	-0.895817	-1.778658
H	0.290192	-2.007584	-1.891242
C	-1.785217	-0.455138	-1.815065
H	-2.077073	-1.420957	-1.397911
H	-1.906602	-0.476302	-2.899842
H	-2.434738	0.317187	-1.397703
C	-0.446954	-1.200226	0.688394
N	-0.825502	-2.172736	1.232558
C	-0.506667	1.264282	0.684186
H	-0.121818	2.129518	0.145296
H	-0.120154	1.302627	1.705598
H	-1.599096	1.319255	0.721443
H	2.818292	0.0	0.0
