18

C	-0.426092	-0.0398	-1.464379
C	0.0	0.0	0.0
F	-1.836935	-0.353397	-1.517085
H	1.095519	0.0	0.0
N	-0.216416	1.221709	-2.085012
H	-0.797729	1.925534	-1.646399
H	-0.477376	1.155621	-3.060397
C	0.304703	-1.134895	-2.20558
H	1.380262	-0.980638	-2.063311
H	0.046831	-1.115497	-3.27057
H	0.022608	-2.10715	-1.798517
C	-0.46008	-1.206874	0.673711
N	-0.837305	-2.176179	1.221972
C	-0.458454	1.247119	0.754816
H	-1.535697	1.415822	0.666723
H	-0.208214	1.143781	1.812241
H	0.093362	2.108828	0.375635
H	2.813115	0.0	0.0
