18

C	-0.255879	0.044267	-1.51298
C	0.0	0.0	0.0
F	-1.616747	0.310504	-1.759162
H	1.096928	0.0	0.0
N	0.495659	1.107246	-2.146439
H	0.188083	1.989549	-1.75049
H	1.467089	0.979454	-1.842746
C	0.105842	-1.268228	-2.168469
H	-0.533989	-2.071657	-1.800106
H	-0.013876	-1.162177	-3.247799
H	1.148604	-1.499199	-1.931421
C	-0.53008	-1.199098	0.623902
N	-0.963816	-2.158707	1.148795
C	-0.470003	1.24566	0.748277
H	0.08487	2.118466	0.397531
H	-0.251638	1.138385	1.813158
H	-1.541227	1.419251	0.619675
H	2.77885	0.0	0.0
