18

C	-0.335095	0.121744	-1.50652
C	0.0	0.0	0.0
F	-0.176096	1.483371	-1.81751
H	1.08921	0.0	0.0
N	0.608247	-0.599935	-2.313508
H	0.35079	-1.579398	-2.337489
H	1.528996	-0.527382	-1.864311
C	-1.759691	-0.232628	-1.884726
H	-1.885119	-0.063422	-2.955948
H	-1.979856	-1.276402	-1.65272
H	-2.461177	0.402135	-1.339194
C	-0.429586	-1.307938	0.470718
N	-0.781904	-2.367608	0.84291
C	-0.51701	1.121287	0.891951
H	-1.609236	1.192912	0.893784
H	-0.17584	0.95757	1.916798
H	-0.098262	2.064003	0.541624
H	2.821762	0.0	0.0
