18

C	-0.457548	0.067266	-1.466214
C	0.0	0.0	0.0
F	-0.070068	-1.143214	-2.042006
H	1.098457	0.0	0.0
N	-1.889659	0.141613	-1.690844
H	-2.339684	-0.588976	-1.146451
H	-2.235373	1.033252	-1.356388
C	0.260774	1.174736	-2.205665
H	-0.114572	2.159575	-1.915051
H	0.088778	1.037149	-3.274714
H	1.32748	1.111457	-1.97352
C	-0.537831	-1.19901	0.621093
N	-1.013731	-2.136754	1.148691
C	-0.399142	1.232894	0.814068
H	-0.041009	1.112811	1.838611
H	-1.481055	1.399598	0.843929
H	0.097795	2.115382	0.405791
H	2.810039	0.0	0.0
