13
Coordinates from ORCA-job run
  C   0.65868666898973      0.55213093028170     -0.31672066303217
  C   -0.59621451034321     -0.25888480232778     -0.00400329819160
  Br  1.20661727244938      1.63411664324562      1.15176379857646
  H   -0.85969536951255     -0.83162529739878     -0.89837868766102
  H   0.47078108439090      1.18631444588169     -1.18209111492606
  N   1.72449703424841     -0.44672506237537     -0.75720245191316
  O   1.40371953406697     -1.06171121633354     -1.77051311250043
  O   2.75326970756520     -0.56394724801300     -0.11489441014958
  N   -1.74991271500512      0.70923804638496      0.20554411783513
  O   -2.40408591761294      0.61345356225616      1.23247154352064
  O   -1.92153227815728      1.49541603160149     -0.71766495699128
  C   -0.42779374740934     -1.14090664013548      1.13983325277217
  N   -0.25733676367016     -1.88686939306766      2.03085598266090
