13
Coordinates from ORCA-job run
  C   0.69615166091390      0.27501525159839     -0.73978621946617
  C   -0.73166223441770     -0.11583134095264     -0.36873117910733
  Br  0.79972983745149      2.03089437403332     -1.49716514463235
  H   -1.40653907691067      0.26785906170934     -1.14033045560575
  H   1.07077961128770     -0.42062187850141     -1.49416643590745
  N   1.63538815140030      0.09559361141596      0.44881850903352
  O   1.30648024327502     -0.80202061702551      1.21533134438017
  O   2.64267352891472      0.77725093333129      0.49550249099036
  N   -1.21182658456181      0.55767492775209      0.91348118900775
  O   -2.29273319551833      0.16653186635858      1.32749285722040
  O   -0.51463572642045      1.44921125453311      1.37405785169712
  C   -0.92281205177165     -1.55772069544932     -0.26386317080149
  N   -1.06999416364253     -2.72283674880321     -0.26864163680880
