13
Coordinates from ORCA-job run
  C   0.66851910950119      0.59462321014798     -0.19417029614522
  C   -0.59228497394609     -0.25732551622532     -0.07347543525719
  Br  1.12928737234564      1.44288638374642      1.44769507793644
  H   -0.80383338615550     -0.68912448784915     -1.05648253504366
  H   0.51811973526897      1.35245012699839     -0.96187246208269
  N   1.76566673161780     -0.32226075351428     -0.72523688151883
  O   1.50354747231358     -0.77597307065441     -1.83579308325099
  O   2.76156503984252     -0.53354617174904     -0.05579327409409
  N   -1.76532019158628      0.66556206658400      0.21797962177437
  O   -1.89665130004640      1.58127507965584     -0.58457791436329
  O   -2.47100790879286      0.41480061116891      1.18282576167903
  C   -0.47442111619064     -1.30159860033508      0.93158490756288
  N   -0.34318658417194     -2.17376887797426      1.70731651280324
