13
Coordinates from ORCA-job run
  C   0.72584657289492      0.23877610893049     -0.73020595796797
  C   -0.74139892002792     -0.05069406715838     -0.40224638810101
  Br  0.96775119208333      2.08803297711448     -1.15535202459590
  H   -1.35254203539148      0.29603710578461     -1.23821340564886
  H   1.01895423764551     -0.35845065467816     -1.59335538439188
  N   1.64629382985454     -0.22195812983525      0.39595512408699
  O   1.73421537995170     -1.44349935220379      0.45850905572835
  O   2.19296593736943      0.60350008590577      1.10510312830524
  N   -1.18461749893648      0.76763448221929      0.79465244869542
  O   -2.05269281656115      1.60582782063255      0.59029494144954
  O   -0.62375310321448      0.50869047049306      1.85221537277220
  C   -1.01749509075525     -1.45739028617696     -0.13314229626740
  N   -1.31252768491268     -2.57850656102771      0.05678538593527
