14

C	0.0	0.0	0.0
C	-0.182331	0.289396	-1.514315
Cl	1.766777	0.0	0.0
H	0.379693	1.203526	-1.699202
H	0.282175	-0.548983	-2.028735
C	-0.481872	1.003405	0.93311
N	-0.536614	1.903486	1.690595
N	-0.408088	-1.409763	0.414428
O	-0.532837	-1.594259	1.6144
O	-0.434683	-2.24639	-0.474012
N	-1.463583	0.525419	-2.251051
O	-1.914183	-0.422187	-2.884372
O	-1.83304	1.692098	-2.329265
Cl	-2.952465	0.0	0.0
