14

C	0.0	0.0	0.0
C	-0.599098	0.136732	-1.39714
Cl	1.787585	0.0	0.0
H	-1.677539	-0.050139	-1.292141
H	-0.404905	1.150979	-1.74661
C	-0.440745	1.108507	0.840829
N	-0.631117	2.0714	1.487334
N	-0.397181	-1.330016	0.650365
O	-0.549137	-1.325836	1.860251
O	-0.435431	-2.286441	-0.107337
N	-0.034355	-0.767232	-2.441496
O	-0.769231	-1.636993	-2.895799
O	1.109323	-0.532839	-2.831913
Cl	-3.438709	0.0	0.0
