16

C	0.0	0.0	0.0
C	-0.423849	-0.0165	-1.513891
Cl	1.783915	0.0	0.0
H	-0.004867	-0.910916	-1.985989
H	-0.054867	0.883014	-2.008185
C	-0.344338	1.273987	0.884937
H	-0.01937	2.163103	0.332775
H	0.157853	1.200551	1.855343
H	-1.414297	1.343983	1.047253
N	-0.327815	-1.325742	0.674704
O	-0.602545	-1.334003	1.867137
O	-0.245291	-2.33033	-0.028263
N	-1.97808	-0.056331	-2.061858
O	-2.785282	-1.153632	-1.837569
O	-2.216521	0.750411	-2.96749
F	-1.992178	0.0	0.0
