16

C	0.0	0.0	0.0
C	-0.60862	-0.085452	-1.384324
Cl	1.773859	0.0	0.0
H	-0.342156	-1.019258	-1.864972
H	-1.720698	0.007959	-1.133116
C	-0.481382	1.161804	0.837313
H	-0.058286	1.093013	1.838005
H	-0.16301	2.087887	0.363107
H	-1.574002	1.070853	0.836408
N	-0.392917	-1.314267	0.704653
O	-0.45636	-2.327236	0.017869
O	-0.530894	-1.278388	1.918451
N	-0.137567	0.986049	-2.281097
O	0.409992	0.6413	-3.332685
O	-0.345815	2.160434	-1.975015
F	-2.831567	0.0	0.0
