16

C	0.0	0.0	0.0
C	-0.300686	-0.476949	-1.421261
Cl	1.783993	0.0	0.0
H	-0.097424	-1.54256	-1.480586
H	0.368124	0.070182	-2.086974
C	-0.435569	1.40234	0.35652
H	-1.531317	1.345191	0.357662
H	-0.058261	2.088261	-0.405237
H	-0.026752	1.667551	1.332148
N	-0.447848	-1.015382	1.034089
O	-0.556906	-2.181126	0.676233
O	-0.555311	-0.61226	2.18331
N	-1.643103	-0.262932	-2.047717
O	-1.866669	0.872568	-2.458852
O	-2.284382	-1.267539	-2.333578
F	-2.554057	0.0	0.0
