15

C	0.0	0.0	0.0
C	-0.370825	-0.009187	-1.500919
F	1.392089	0.0	0.0
H	0.144136	0.85927	-1.931938
H	-0.329921	0.952795	0.427229
C	-0.543728	-1.160009	0.789895
H	-0.189356	-1.10494	1.821625
H	-0.212945	-2.107229	0.357422
H	-1.636587	-1.115917	0.795734
N	-1.76409	0.053854	-1.879974
H	-2.223579	0.851303	-1.454077
H	-2.289203	-0.732167	-1.512583
C	0.247117	-1.196173	-2.12274
N	0.729859	-2.152818	-2.601702
Br	-4.482617	0.0	0.0
