15

C	0.0	0.0	0.0
C	-0.221937	0.104113	-1.524208
F	1.400129	0.0	0.0
H	0.464479	-0.669789	-1.908525
H	-0.347916	0.905855	0.496776
C	-0.518593	-1.25967	0.630999
H	-1.61213	-1.223332	0.61889
H	-0.164716	-2.135108	0.079133
H	-0.166469	-1.329124	1.663453
N	0.187034	1.451639	-1.947547
H	1.164093	1.558882	-1.70092
H	0.10991	1.519903	-2.955831
C	-1.49218	-0.223125	-2.183892
N	-2.238689	-0.523441	-3.040616
Br	-3.896326	0.0	0.0
