15

C	0.0	0.0	0.0
C	-0.492189	-0.17657	-1.428592
F	1.397332	0.0	0.0
H	-1.590244	-0.197785	-1.361108
H	-0.325226	0.978677	0.36329
C	-0.474111	-1.101587	0.914772
H	-0.100616	-0.917942	1.925892
H	-0.096966	-2.060032	0.558807
H	-1.565768	-1.113096	0.928063
N	-0.001357	-1.436421	-1.983486
H	1.00006	-1.363291	-2.123832
H	-0.433343	-1.599065	-2.884979
C	-0.089111	0.985936	-2.247815
N	0.252183	1.864268	-2.949866
Br	-3.868019	0.0	0.0
