15

C	0.0	0.0	0.0
C	-0.368602	0.245778	-1.481545
F	1.398245	0.0	0.0
H	0.308395	1.047489	-1.804169
H	-0.319294	0.880246	0.568823
C	-0.554567	-1.260529	0.604844
H	-0.229746	-1.350736	1.644404
H	-0.210231	-2.136495	0.050224
H	-1.648606	-1.217319	0.583285
N	-1.717216	0.649186	-1.813044
H	-2.434506	0.060576	-1.387648
H	-1.887503	1.570988	-1.427102
C	0.022858	-0.936132	-2.275064
N	0.364683	-1.866544	-2.904892
Br	-4.437453	0.0	0.0
