15

C	0.0	0.0	0.0
C	-0.499299	-0.168953	-1.42748
F	1.397185	0.0	0.0
H	-1.597247	-0.167515	-1.353342
H	-0.32228	0.979054	0.365462
C	-0.480008	-1.097863	0.915669
H	-0.134053	-2.06291	0.546028
H	-0.08471	-0.92752	1.920438
H	-1.571151	-1.082127	0.94514
N	-0.043702	-1.439185	-1.985795
H	0.94899	-1.380624	-2.179377
H	-0.527165	-1.617584	-2.85674
C	-0.078436	0.985804	-2.248749
N	0.277495	1.860049	-2.948823
Br	-3.885018	0.0	0.0
