15

C	0.0	0.0	0.0
C	-0.222048	0.069949	-1.526859
F	1.400069	0.0	0.0
H	0.444143	-0.73051	-1.894168
H	-0.348644	0.918333	0.473387
C	-0.526459	-1.240678	0.660843
H	-0.174323	-2.133158	0.135476
H	-1.62008	-1.198539	0.639655
H	-0.183396	-1.28506	1.697913
N	0.216201	1.397381	-1.982309
H	0.139434	1.444417	-2.991618
H	1.194805	1.491512	-1.737908
C	-1.502037	-0.23605	-2.178739
N	-2.261132	-0.516147	-3.03215
Br	-3.924681	0.0	0.0
