14
Coordinates from ORCA-job run
  C   0.91363368046862      0.01039121563517     -0.00698027882393
  C   -0.57265047582642     -0.30115134850078     -0.20810930248375
  Br  1.90989237344397     -1.42439463949679     -1.03789977304802
  H   -0.84057987364566     -0.18800247185597     -1.25961292105499
  H   1.19891116784925     -0.18132201838029      1.02740310931829
  N   1.22345413125258      1.32679913461105     -0.37001758200790
  H   2.16878928698386      1.59695286131035     -0.13971224987821
  H   1.02256393897587      1.53659831603477     -1.33887948426294
  N   -1.30275755303825      0.79675703296092      0.52430767850370
  O   -1.89231324121300      1.63901231842614     -0.14152259280089
  O   -1.22597598398546      0.75358792544242      1.74882527624804
  N   -1.07236532719093     -1.54309447708550      0.29168928426533
  H   -0.80087220817518     -2.30290460288401     -0.31622014333885
  H   -0.72972991589927     -1.71922924621748      1.22772897936413
