14
Coordinates from ORCA-job run
  C   0.77702625117917      0.42563148986605     -0.50756506759116
  C   -0.39371870520249     -0.45742174096168     -0.10322408499621
  Br  0.50102857777157      2.23519513869717      0.39371871544487
  H   -0.30542324635631     -1.38425679122852     -0.67677146733087
  H   0.72288224796970      0.68462297885868     -1.56153367874074
  N   1.97557412534215     -0.21782167716114     -0.18199638579555
  H   2.79571463537749      0.31510261004168     -0.43326317841769
  H   1.99794879723157     -0.49592667880701      0.79043412999385
  N   -1.68403962991239      0.17770686836497     -0.64012619408792
  O   -1.70714269040975      0.40104644628380     -1.84620560489245
  O   -2.59264773709794      0.38651856052118      0.15504074350667
  N   -0.39896438165805     -0.72845742358641      1.28394995758937
  H   -1.06614353614606     -1.45001692292071      1.51919918662803
  H   -0.62209470808866      0.10807714203194      1.80934292868979
