14
Coordinates from ORCA-job run
  C   0.72872694235208      0.40453237204317     -0.38149002174460
  C   -0.53653977422289     -0.40993354443762     -0.05945375036642
  Br  0.68379710241886      2.12026929756572      0.53063961819246
  H   -0.44889763986914     -1.34394992603553     -0.62549076529677
  H   0.74871536042616      0.64706197691641     -1.44851079089589
  N   1.86200941070028     -0.35736137433988      0.10823294793234
  H   2.69090411672558      0.22322921345797      0.13895746879635
  H   2.04335716016975     -1.12215898950682     -0.53525189506024
  N   -1.70295752729381      0.29891568424231     -0.68777776239052
  O   -2.51730905569801      0.84189987110345      0.04908498313377
  O   -1.71408395387191      0.31153902990803     -1.91712257350468
  N   -0.81339317585479     -0.69689897813671      1.30933720177609
  H   -1.05659493497537      0.15682756215465      1.79717630476740
  H   0.03326596899321     -1.07497219493515      1.71966903466071
