14
Coordinates from ORCA-job run
  C   0.99058257583296      0.06400142415870      0.04344754698595
  C   -0.41850525967059     -0.43687486103157     -0.26674967138284
  Br  2.26268947729748     -1.14506832194121     -0.92160053983024
  H   -0.60746652747727     -0.42280273459226     -1.34123472458640
  H   1.21362631853606     -0.10415427031281      1.09782570482535
  N   1.12932777977768      1.43291156542912     -0.26417983788729
  H   2.01832125279892      1.80435800942038      0.03962286350159
  H   1.00039298581089      1.62585994972820     -1.24942626914808
  N   -1.35027631414803      0.63811234939840      0.30179780752083
  O   -1.89500397405967      1.39736634766104     -0.49178349104425
  O   -1.47135387857794      0.65058089289357      1.52394463584241
  N   -0.66602793136938     -1.71909104420759      0.27904503973890
  H   -0.65915390910169     -1.68559538045438      1.29073324730428
  H   -1.54615259564944     -2.09960392614960     -0.04044231184020
