14
Coordinates from ORCA-job run
  C   0.98221424096298     -0.00267000396597      0.04431382360046
  C   -0.47819939882488     -0.34024695487860     -0.20573058405977
  Br  2.05296843400472     -1.43504227279110     -0.74412254474627
  H   -0.66073809077212     -0.34238899546204     -1.28633735043102
  H   1.18680087488890     -0.04507307640839      1.11802527860958
  N   1.31811319958269      1.23653087445366     -0.62259632893226
  H   2.31911921085886      1.30435904823771     -0.75273145251149
  H   1.02323162639947      2.00291251863853     -0.02789128094849
  N   -1.34117091261999      0.79135467456543      0.31491395430950
  O   -2.49291982446095      0.80328707478828     -0.10663693620793
  O   -0.87293736697264      1.56310699237871      1.14871010681928
  N   -0.92151895739534     -1.49543463869876      0.52940819134736
  H   -0.27721839669666     -2.26228655541592      0.38758448554240
  H   -1.83674463895505     -1.77940868544152      0.20209063760865
