14
Coordinates from ORCA-job run
  C   0.91591298812973     -0.17108229838330     -0.39525103065884
  C   -0.57473046453213     -0.47548243059916     -0.24028166319465
  Br  1.20036467256054      0.61281520857931     -2.22687915647608
  H   -0.89989216408397     -1.14433806858382     -1.03609068000766
  H   1.43340243020660     -1.12870562643335     -0.46139749193705
  N   1.44007750131016      0.57986518561235      0.67636376326876
  H   2.44767515756861      0.64337947478848      0.64173739807305
  H   1.02266782384560      1.49954836674634      0.73337148043255
  N   -1.39101782595656      0.78345339609344     -0.46588765685581
  O   -1.09166538827485      1.76471632400974      0.21203297444208
  O   -2.31657909364400      0.71923377210336     -1.26562468973965
  N   -0.90867093580962     -0.98501240823124      1.04974583624776
  H   -1.06376712309551     -1.98067080462824      1.04276664012904
  H   -0.21477757822463     -0.71972009107391      1.73539427627649
