14
Coordinates from ORCA-job run
  C   0.73383074816779      0.35381259595720     -0.48876525358599
  C   -0.53766745436531     -0.41052029942403     -0.10709053052495
  Br  0.64351549673103      2.18354292440843      0.34843792424844
  H   -0.51168981730627     -1.34143962893085     -0.67845486878542
  H   0.74061550238450      0.55986586071031     -1.55718534034889
  N   1.86841176531075     -0.39669134673199     -0.11198377878688
  H   2.72278242307732      0.00545771710764     -0.47316995933034
  H   1.94383230505678     -0.48017315502720      0.89364332959225
  N   -1.71240441876330      0.35753967711045     -0.68766072764932
  O   -1.71869028724303      0.43994250330860     -1.91456422454849
  O   -2.53560823241211      0.83907220446050      0.07652197100441
  N   -0.76262647655691     -0.69541364682274      1.26169965827873
  H   -0.60848227524523      0.09943919753859      1.86587230725424
  H   -0.26581927883599     -1.51543460366493      1.57269949318221
