14
Coordinates from ORCA-job run
  C   0.90549404186037      0.04618098489921      0.11093562320914
  C   -0.53083850451720     -0.34032029016397     -0.25449838910107
  Br  2.07265280244094     -1.42920446405508     -0.64391375928156
  H   -0.65982827662802     -0.32473775874904     -1.33779508945987
  H   1.05353037304607     -0.04192563881898      1.18721963870932
  N   1.22302177185353      1.33841473955808     -0.32714180270346
  H   1.15485122063312      1.45179341028761     -1.32998918981639
  H   2.11916945419304      1.66624196837784      0.00342132536185
  N   -1.38355181079291      0.78434818781956      0.27703950452331
  O   -1.90913054693194      1.53945775699093     -0.53136501943647
  O   -1.46405573090802      0.85041630860022      1.50027492972369
  N   -1.05783590738629     -1.55506800279409      0.28323359008477
  H   -0.84314650508672     -1.63386177490096      1.26942924781788
  H   -0.67833238177595     -2.35173542705138     -0.20885060963114
