14
Coordinates from ORCA-job run
  C   0.94582369116761     -0.10782938120122     -0.34422762339557
  C   -0.52320397058409     -0.52366010542231     -0.25680131798738
  Br  1.26508487168582      0.65599631086294     -2.17850686126717
  H   -0.75485868574959     -1.23237809253110     -1.05082331984148
  H   1.53737540185532     -1.02381199078991     -0.35996490527137
  N   1.35433788277751      0.70440588534705      0.73299563182762
  H   0.86524391831614      1.58979165343924      0.74533701478016
  H   2.35457571956598      0.84497811437602      0.74760829492939
  N   -1.42037014079689      0.66311362926467     -0.55497929090534
  O   -2.29517970714938      0.51054595716618     -1.39871636449628
  O   -1.23255999295967      1.67911569815806      0.11188444657660
  N   -0.88390968723650     -1.03021490487909      1.02693252793339
  H   -0.96214360177948     -2.03473428949806      1.03799686208041
  H   -0.25021569911277     -0.69631848429247      1.74026490503702
