14
Coordinates from ORCA-job run
  C   0.97201336609389     -0.18105544318614     -0.43980435338852
  C   -0.45567748878960     -0.62529772725095     -0.13949311252143
  Br  1.04868225028429      0.33815809681204     -2.38346025774066
  H   -0.75820129276415     -1.41529426383805     -0.82612716182260
  H   1.59603078985997     -1.07240238691196     -0.39467037487737
  N   1.44938330577608      0.79016603574004      0.46181425126916
  H   2.44266591921114      0.94436143592275      0.36217815309947
  H   0.94275029102835      1.66242983035397      0.38991956419530
  N   -1.43390673436331      0.50910889713106     -0.45500128527310
  O   -2.35548738753679      0.26036863918962     -1.22563435020931
  O   -1.26290200697989      1.57497948032432      0.13839039563975
  N   -0.52895908165348     -1.05994400232146      1.20857960358338
  H   -1.45162922690577     -1.38634518096964      1.46227273099518
  H   -0.20376270326076     -0.33923341099560      1.83903619705076
