14
Coordinates from ORCA-job run
  C   0.98551050155497     -0.16667084852133     -0.57003460506200
  C   -0.46008177268347     -0.46132859200118     -0.15787316554505
  Br  1.04468698001322      0.13117774278365     -2.49657207732226
  H   -0.89699852256950     -1.21067915062382     -0.82953779097999
  H   1.52668281105700     -1.10781379752645     -0.42783780117999
  N   1.69152723206520      0.87127646128484      0.12245337170785
  H   1.68093149443009      0.65825040575357      1.11421847599171
  H   1.21339109586507      1.75212636273546     -0.01747276660762
  N   -1.39350472348546      0.71832949321218     -0.28327289733841
  O   -0.95161649015739      1.82624884928998     -0.56675703195990
  O   -2.57249551872648      0.45546088810171     -0.05630560587074
  N   -0.48303601925093     -0.80929499947771      1.24919643573661
  H   0.05471331714931     -1.65656299148368      1.39215421867686
  H   -1.43871038526162     -1.00051982352722      1.52964123975297
