14
Coordinates from ORCA-job run
  C   0.91246540074137      0.04051379572407      0.01731543262213
  C   -0.55677649598527     -0.32373066801475     -0.21720369928620
  Br  1.98451182894814     -1.38266587834822     -0.94943887907394
  H   -0.79996110124222     -0.24027983953195     -1.27749937055883
  H   1.17265657794124     -0.11606127153745      1.06415348000036
  N   1.18912723040809      1.35835088054141     -0.36891823770958
  H   1.01392667666067      1.53576215652914     -1.34925549337518
  H   2.11786782577464      1.66452876795478     -0.11683723741156
  N   -1.34140651937632      0.76440255853584      0.47185384275128
  O   -1.29228070469417      0.75184455512255      1.69842424802297
  O   -1.94587532125522      1.56852356944884     -0.22679286207235
  N   -1.02965147125765     -1.57062161831260      0.29606670804866
  H   -0.70592747751525     -1.71592170836967      1.24407935401098
  H   -0.71767644914806     -2.33364529974201     -0.28794728596874
