14
Coordinates from ORCA-job run
  C   1.00583080396552      0.04078398629414     -0.12678046200247
  C   -0.42127854327066     -0.47399694013437     -0.25897115031037
  Br  2.15343236185207     -1.10629746148280     -1.19396673271195
  H   -0.70288728113370     -0.52801605999172     -1.30974665209465
  H   1.34909611516982     -0.08418742429147      0.90592285643057
  N   1.07763990882293      1.39565508183662     -0.63722756143402
  H   2.02030875790327      1.60941538431908     -0.93439657623224
  H   0.82922490640106      2.03847412924217      0.10699653561959
  N   -1.32809753793682      0.61074112509511      0.32056032883464
  O   -0.99932130696606      1.06539405654651      1.41936773713934
  O   -2.35087487963839      0.89133738312984     -0.29449934831312
  N   -0.61956285941897     -1.71654487865214      0.39863765184840
  H   -0.48250231093997     -1.63526755487819      1.39817957219467
  H   -1.53100813481017     -2.10849082703276      0.20492380103157
