14
Coordinates from ORCA-job run
  C   0.90562975792485      0.08392906166107      0.08740327846447
  C   -0.52336117784672     -0.37000629569444     -0.22549042434550
  Br  2.10945010273994     -1.38200985549502     -0.62625541852516
  H   -0.67721912177677     -0.40886760448023     -1.30494456275529
  H   1.08004416368420      0.05169802405716      1.16284224422973
  N   1.16510569714043      1.36491484890517     -0.41752803815692
  H   2.05720612135715      1.73833422931197     -0.12661345208631
  H   1.06865672374100      1.42777893168543     -1.42254378281910
  N   -1.40455175178453      0.74670501831706      0.27552772732637
  O   -1.45911709303422      0.86594125734659      1.49614295300058
  O   -1.97746184632112      1.44348143499727     -0.55280620339864
  N   -0.99313010847633     -1.57666678416247      0.37913763017388
  H   -0.75336437342771     -1.60261204746875      1.36229806708897
  H   -0.59788709392018     -2.38162021898082     -0.08617001819704
