14
Coordinates from ORCA-job run
  C   0.74783982925888      0.55857800374830     -0.41497115170397
  C   -0.34540801116292     -0.47280254957139     -0.17805590057696
  Br  0.27621108942668      2.19889261594410      0.69853027614532
  H   -0.15161220762036     -1.30384767742812     -0.86170145713968
  H   0.70194224317646      0.94669475489063     -1.42902374982249
  N   1.99196344136718     -0.01338284166763     -0.12452421422751
  H   2.00913731705279     -0.41055958469435      0.80594058862215
  H   2.76425699501717      0.62140072303692     -0.26818395609418
  N   -1.67294059541435      0.10927654734393     -0.68244180089457
  O   -2.61864493761899      0.13641771686291      0.09625149866996
  O   -1.68130809475890      0.48385216885733     -1.85070884187815
  N   -0.36698627806368     -0.92468193582767      1.16114019872708
  H   -0.69741403183385     -0.19375678093990      1.77924937462925
  H   -0.95803675882613     -1.73708116055508      1.26949913554368
