14
Coordinates from ORCA-job run
  C   0.80534124038012      0.38091484974737     -0.46281795475045
  C   -0.52499144728877     -0.28952457384034     -0.05911403460756
  Br  0.87592933130110      2.16086234561215      0.36810512612757
  H   -0.55923365461550     -1.24635805458797     -0.58755805123317
  H   0.80313817249963      0.56120704311849     -1.53740334714510
  N   1.97216192912548     -0.35818465571197     -0.10346005525243
  H   2.14892816012547     -1.11054057298295     -0.75610393910159
  H   1.92151961008135     -0.71015647072792      0.84321776427983
  N   -1.64507115083591      0.52038766043511     -0.69369112782323
  O   -2.41466040800305      1.13152644440205      0.03272912790001
  O   -1.64802961846719      0.51777786840077     -1.92425228174893
  N   -0.78496737389499     -0.49526168062785      1.31622168804546
  H   -0.54410912121799      0.29633500828272      1.89513128278004
  H   -0.40695566918975     -1.35898521151967      1.66999580252956
