14
Coordinates from ORCA-job run
  C   0.77962023753231      0.46563618912743     -0.46755439973778
  C   -0.44352002417307     -0.38824714419752     -0.16689806621934
  Br  0.74653252241512      2.03846000687343      0.82966148038712
  H   -0.48595831659332     -1.16360005784903     -0.93682839894141
  H   0.68072601020504      0.95933029008731     -1.43065013790351
  N   1.92733186173427     -0.33137395270737     -0.39732783248173
  H   1.98448968078034     -0.82450303262189      0.48427074829208
  H   2.77829381073679      0.17671811266574     -0.59160492676731
  N   -1.69727619284324      0.45586272432342     -0.43583465877177
  O   -2.52336677214061      0.55555926881153      0.46359934716307
  O   -1.77987933810053      0.94579574868143     -1.55752838874209
  N   -0.38297222533215     -0.96612192496944      1.12113000331898
  H   -1.10035256985661     -1.66588738590057      1.25005091460458
  H   -0.48466868436437     -0.25562884232446      1.83551431579910
