14
Coordinates from ORCA-job run
  C   1.03617404456702     -0.07211786069001     -0.49640471441028
  C   -0.40027467617462     -0.57185451659784     -0.27698994645373
  Br  1.15812989868064      0.64177741680444     -2.32992169408729
  H   -0.65884726809123     -1.32228212040278     -1.02363924202938
  H   1.66077626712926     -0.96569286577839     -0.49947287019223
  N   1.55751178040491      0.85546916080243      0.44267714481998
  H   1.95444924287443      0.40452481107549      1.25307230410299
  H   0.90173916448392      1.58295624237537      0.68842510910233
  N   -1.38938113831869      0.55791440240650     -0.52107306193347
  O   -2.18772481460765      0.43970776688955     -1.44380764111416
  O   -1.32968432763218      1.50895311486271      0.26209674715448
  N   -0.50327102814835     -1.10443346251384      1.04104227204922
  H   -0.42090413209024     -0.36454717110773      1.72663030124699
  H   -1.37969301307722     -1.59137491812588      1.17836529174454
