14
Coordinates from ORCA-job run
  C   0.92672742556068     -0.03131226021632     -0.40514333782951
  C   -0.50695774243073     -0.54022083303339     -0.25353912308541
  Br  1.08442069843190      0.84373135779068     -2.21142435727558
  H   -0.74612177456121     -1.21937273514181     -1.07080905962676
  H   1.56850866084817     -0.90702460293883     -0.50736902398288
  N   1.35528433522473      0.74794667964862      0.68814831513608
  H   2.34470774727690      0.94800866299091      0.64987025495274
  H   0.81782447067548      1.60000501373717      0.77936058391802
  N   -1.48939047309056      0.60246360891898     -0.43025632065639
  O   -2.40938144009859      0.43659542896896     -1.22179069098468
  O   -1.31659298326990      1.59453876567792      0.27542828429848
  N   -0.75603091528745     -1.13430801272827      1.01962142774316
  H   -0.09784259598355     -0.80005968987958      1.71033071756859
  H   -0.77415541329582     -2.14099138379500      0.97857232982410
