14
Coordinates from ORCA-job run
  C   1.01542639798431     -0.08579074386541     -0.36310179368291
  C   -0.41714519983843     -0.60359567536877     -0.28530606847266
  Br  1.26215330235728      0.75070029662548     -2.17689459560749
  H   -0.62333550294308     -1.27378564255775     -1.11925265030762
  H   1.66517129905741     -0.95897619567674     -0.39958176157098
  N   1.36520673598074      0.73234045060968      0.72920666324538
  H   0.83444129809287      1.59297422543868      0.74973719619211
  H   2.35664917157115      0.92365671247694      0.75715923468508
  N   -1.40018175279891      0.54885758989133     -0.50795428154222
  O   -1.33545801487790      1.49581440237179      0.27735060032966
  O   -2.22245252004083      0.42304849049305     -1.40955478434965
  N   -0.60290782689264     -1.25788562948372      0.95898740707621
  H   -1.53289011361481     -1.64091605807569      1.06197849184834
  H   -0.36667727403715     -0.64544222287885      1.72822634215678
