14
Coordinates from ORCA-job run
  C   0.95214704378182     -0.09255594690003     -0.33076253941405
  C   -0.51360017057777     -0.52485621004491     -0.27262583731336
  Br  1.29152971296100      0.70180271645211     -2.14821082036395
  H   -0.72509877692800     -1.22440964769530     -1.08029714315120
  H   1.55333889796213     -1.00220778026526     -0.34999548357345
  N   1.33540995675944      0.70775039732784      0.76455653649061
  H   0.83692662348684      1.58778092310658      0.78234734497063
  H   2.33376269071138      0.85835917149420      0.79702142896917
  N   -1.41897070610991      0.65667756354469     -0.56761753750668
  O   -2.28001760180824      0.50645976453267     -1.42558430165175
  O   -1.25129769430231      1.66488702691940      0.11607569395158
  N   -0.88920193124270     -1.05407049268434      0.99775519339248
  H   -0.95570334762632     -2.05952008441767      0.99260164436385
  H   -0.27022469706737     -0.72409740136998      1.72573582083613
