13

C	0.0	0.0	0.0
C	-0.463154	0.019079	-1.451602
Cl	1.802476	0.0	0.0
H	-0.052593	0.909153	-1.939905
H	-0.102065	-0.866868	-1.981089
H	-1.560352	0.044253	-1.377739
C	-0.463218	1.239272	0.756046
H	-0.052933	2.126275	0.261977
H	-1.560419	1.189889	0.69562
H	-0.101913	1.216479	1.787826
C	-0.429011	-1.227015	0.67811
N	-0.581932	-2.245864	1.24104
F	-2.795121	0.0	0.0
