17

C	-0.552818	-0.005925	-1.434731
C	0.0	0.0	0.0
Br	0.055488	1.633573	-2.33224
H	1.088405	0.0	0.0
C	0.059626	-1.11212	-2.172872
N	0.421405	-2.021714	-2.824143
C	-2.072035	-0.130625	-1.553853
H	-2.559042	0.700912	-1.051638
H	-2.347571	-0.140308	-2.609046
H	-2.395482	-1.072187	-1.10178
N	-0.495152	-1.235929	0.695162
O	-1.473478	-1.128404	1.434965
O	0.0932	-2.274682	0.419068
N	-0.44724	1.143656	0.855693
O	-1.312591	1.916655	0.449971
O	0.11058	1.198886	1.945146
Cl	3.144536	0.0	0.0
