17

C	-0.459985	-0.00658	-1.459212
C	0.0	0.0	0.0
Br	-2.404346	-0.319432	-1.622227
H	1.091398	0.0	0.0
C	-0.179461	1.29203	-2.068773
N	0.104199	2.289647	-2.622578
C	0.279077	-1.085266	-2.252959
H	0.036161	-0.976306	-3.31036
H	-0.012716	-2.07651	-1.912725
H	1.351892	-0.953645	-2.088164
N	-0.476696	-1.223471	0.718617
O	-1.410238	-1.106994	1.506848
O	0.09927	-2.266733	0.430704
N	-0.453673	1.174444	0.802243
O	0.024983	1.238992	1.92861
O	-1.241369	1.972984	0.298643
Cl	3.143028	0.0	0.0
