17

C	-0.4368	-0.025474	-1.465417
C	0.0	0.0	0.0
Br	-2.363591	-0.426578	-1.653926
H	1.091409	0.0	0.0
C	-0.208542	1.284258	-2.072895
N	0.026903	2.286237	-2.641605
C	0.364777	-1.066539	-2.251617
H	0.116951	-2.070105	-1.914771
H	0.132364	-0.965466	-3.312792
H	1.428449	-0.882854	-2.070418
N	-0.478433	-1.217246	0.729337
O	0.063753	-2.272359	0.415514
O	-1.378852	-1.083275	1.553311
N	-0.472748	1.181225	0.778727
O	-1.323724	1.918569	0.2856
O	0.044078	1.306198	1.883814
Cl	3.154365	0.0	0.0
