17

C	-0.499776	-0.001116	-1.42691
C	0.0	0.0	0.0
Br	-2.477773	-0.236199	-1.531486
H	1.091401	0.0	0.0
C	-0.186365	1.289029	-2.040719
N	0.139407	2.281954	-2.578486
C	0.146152	-1.114463	-2.25402
H	1.230328	-1.003506	-2.179116
H	-0.185152	-1.019865	-3.289502
H	-0.140493	-2.09113	-1.868972
N	-0.429732	-1.214753	0.741232
O	-1.397371	-1.138992	1.498217
O	0.188371	-2.246215	0.483177
N	-0.412421	1.170506	0.810292
O	-1.291778	1.923797	0.398923
O	0.104581	1.22136	1.924093
Cl	2.93259	0.0	0.0
