17

C	-0.430968	-0.020446	-1.466411
C	0.0	0.0	0.0
Br	-2.374255	-0.322087	-1.66548
H	1.091886	0.0	0.0
C	-0.129975	1.267374	-2.091511
N	0.134342	2.230913	-2.710915
C	0.320776	-1.112046	-2.234676
H	0.105946	-1.008755	-3.299052
H	0.014242	-2.09798	-1.892736
H	1.390717	-0.983244	-2.044795
N	-0.489905	-1.212262	0.725912
O	-1.439242	-1.082662	1.494152
O	0.089104	-2.261089	0.463369
N	-0.45631	1.188502	0.779275
O	-1.21767	1.993188	0.247339
O	-0.002472	1.260844	1.915124
Cl	3.144464	0.0	0.0
