17

C	0.0	0.0	0.0
C	-0.260954	0.030881	-1.544299
Cl	1.844157	0.0	0.0
H	0.434468	-0.695997	-1.991147
N	-0.504657	1.171021	0.609136
H	0.12716	1.955108	0.615875
H	-0.989684	1.013377	1.475885
C	-0.59865	-1.23823	0.616423
H	-1.688891	-1.067189	0.578365
H	-0.250399	-1.350596	1.647301
H	-0.336764	-2.127886	0.042703
C	0.164717	1.359304	-2.038926
N	0.445853	2.414247	-2.475452
N	-1.62454	-0.285915	-1.909138
H	-2.323518	-0.105309	-1.111901
H	-1.903331	0.302667	-2.682672
F	-3.26141	0.0	0.0
