17

C	0.0	0.0	0.0
C	-0.285612	-0.033914	-1.54487
Cl	1.797709	0.0	0.0
H	0.515653	-0.634815	-1.987805
N	-0.590688	1.170521	0.577763
H	-1.604709	1.003443	0.406368
H	-0.470516	1.115454	1.585074
C	-0.463929	-1.301568	0.644409
H	-0.094605	-2.17998	0.109626
H	-1.555886	-1.262838	0.61961
H	-0.104443	-1.333877	1.680038
C	-0.088691	1.33197	-2.09953
N	0.039042	2.346156	-2.68081
N	-1.54753	-0.648425	-1.915783
H	-2.309225	-0.335347	-1.26677
H	-1.759492	-0.387921	-2.868432
F	-3.093639	0.0	0.0
