17

C	0.0	0.0	0.0
C	-0.316385	-0.382421	-1.49033
Cl	1.837519	0.0	0.0
H	0.540371	-0.954222	-1.856895
N	-0.56763	1.273398	0.30963
H	-0.406239	1.46256	1.295048
H	-1.588229	1.077977	0.203929
C	-0.422045	-1.117381	0.943372
H	-1.514367	-1.101321	0.941901
H	-0.051511	-2.091066	0.618272
H	-0.037398	-0.900184	1.945368
C	-0.346649	0.846729	-2.323857
N	-0.419898	1.714393	-3.114774
N	-1.4926	-1.223034	-1.637786
H	-2.277874	-0.773891	-1.10875
H	-1.71903	-1.274224	-2.624914
F	-3.022023	0.0	0.0
