17

C	0.0	0.0	0.0
C	-0.498843	-0.186956	-1.444474
Cl	1.819781	0.0	0.0
H	-1.597304	-0.184583	-1.254142
N	-0.516069	1.213852	0.558219
H	-1.537804	1.004219	0.547863
H	-0.368077	1.938741	-0.139675
C	-0.437171	-1.172099	0.861323
H	-1.530698	-1.170207	0.813177
H	-0.09646	-0.994043	1.883126
H	-0.017815	-2.113137	0.499441
C	-0.092384	-1.468165	-2.037626
N	0.219261	-2.467433	-2.574487
N	-0.129917	0.955369	-2.277371
H	-0.726448	0.976943	-3.09475
H	0.831169	0.857822	-2.58628
F	-2.889129	0.0	0.0
