17

C	0.0	0.0	0.0
C	-0.273468	0.067148	-1.565393
Cl	1.802854	0.0	0.0
H	0.539368	-0.477222	-2.057316
N	-0.582476	1.040722	0.779744
H	-0.378202	1.944288	0.364873
H	-1.601964	0.855776	0.688308
C	-0.474284	-1.338464	0.539226
H	-0.103314	-2.161269	-0.073547
H	-1.566296	-1.308722	0.519027
H	-0.113838	-1.444878	1.564713
C	-0.11838	1.480282	-1.984557
N	-0.033857	2.590497	-2.363392
N	-1.532521	-0.527724	-1.965197
H	-2.280592	-0.275842	-1.269732
H	-1.781012	-0.186183	-2.88613
F	-3.07455	0.0	0.0
