17

C	0.0	0.0	0.0
C	-0.28445	-0.148445	-1.556457
Cl	1.79547	0.0	0.0
H	0.536554	-0.73552	-1.982183
N	-0.584587	1.13492	0.635009
H	-0.381934	1.975663	0.103811
H	-1.603804	0.938593	0.567765
C	-0.470736	-1.253029	0.719876
H	-0.099131	-2.152249	0.226252
H	-0.106484	-1.215437	1.748947
H	-1.562814	-1.230389	0.699589
C	-0.162953	1.201474	-2.159786
N	-0.104494	2.265683	-2.658474
N	-1.53282	-0.820051	-1.856895
H	-1.777602	-0.643373	-2.824736
H	-2.286663	-0.460614	-1.217267
F	-3.080489	0.0	0.0
