17

C	0.0	0.0	0.0
C	-0.287041	-0.216682	-1.507251
Cl	1.862652	0.0	0.0
H	0.204463	0.642904	-1.986478
N	-0.526523	1.271074	0.36889
H	-0.32169	1.415041	1.354892
H	-1.559122	1.044397	0.303326
C	-0.401194	-1.172151	0.878463
H	-1.494011	-1.168514	0.844767
H	0.008682	-2.109922	0.503961
H	-0.046896	-0.995261	1.899577
C	-1.6859	-0.172882	-1.994115
N	-2.478845	-0.21463	-2.867717
N	0.250556	-1.506841	-1.978496
H	-0.076526	-1.646571	-2.926436
H	1.260433	-1.441261	-1.998918
F	-2.77791	0.0	0.0
