17

C	0.0	0.0	0.0
C	-0.284855	-0.181731	-1.524708
Cl	1.811356	0.0	0.0
H	0.172132	0.713184	-1.985286
N	-0.543475	1.201341	0.534345
H	-1.571649	0.972567	0.493247
H	-0.365831	1.964159	-0.113732
C	-0.448182	-1.191335	0.821379
H	-0.018607	-2.112699	0.430035
H	-1.539915	-1.189838	0.751242
H	-0.130344	-1.035847	1.854767
C	-1.685173	-0.177738	-2.006861
N	-2.476978	-0.246262	-2.879248
N	0.301239	-1.425097	-2.0567
H	1.309553	-1.333459	-2.047156
H	-0.000684	-1.523889	-3.019121
F	-2.811885	0.0	0.0
