17
Coordinates from ORCA-job run
  C   0.71172989955207     -0.47835386251316     -0.14667369300120
  C   -0.51775914910214      0.44035150051627      0.03847693451631
  Br  0.41119177787284     -2.18796321204352      0.79929840200559
  H   -0.23411303519868      1.36502409445578     -0.48304150492111
  C   1.98680422801715      0.14932254757953      0.40381519241378
  H   1.84181923104119      0.38034101096576      1.45714371623486
  H   2.83483887669656     -0.52428539113468      0.27684833815893
  H   2.18765440930859      1.07699917463347     -0.14086759469050
  C   0.87740934685053     -0.80621072453269     -1.55985493518277
  N   1.01893973418901     -1.01177367810509     -2.70878016164850
  N   -0.64195000850435      0.77658084253321      1.45154476959392
  H   -1.10837071528637      0.01997600442007      1.94012240968704
  H   -1.21761809837420      1.60395837602188      1.55038020501770
  C   -1.79044563788973     -0.10384829617741     -0.60438997601412
  H   -2.11099558033895     -1.02150244016601     -0.10612542548949
  H   -1.65988297647783     -0.31457040588999     -1.66836060832758
  H   -2.58825230235570      0.63595445943656     -0.50053606835285
