17
Coordinates from ORCA-job run
  C   0.75438064120990     -0.42348240064910     -0.09448140288390
  C   -0.55847910171277      0.38913961697942     -0.01155392094875
  Br  0.63051706409291     -2.00697837572470      1.08157478477506
  H   -0.37063982136191      1.25544368414097     -0.66086821064248
  C   1.96497842873482      0.39452922459982      0.33914662240589
  H   2.87470430849116     -0.20416634338941      0.28515170203461
  H   1.80644711454835      0.75090240947415      1.35481408598082
  H   2.06767939378801      1.25510810239057     -0.32906468754494
  C   0.94136118167232     -0.92442843018771     -1.45356362477050
  N   1.09705709781342     -1.27074994333151     -2.56623103995303
  N   -0.70518946176350      0.90391150789472      1.34427513880282
  H   -1.09388123654642      0.18170881228141      1.94094679956824
  H   -1.35650592564775      1.67947220552323      1.34046394643719
  C   -1.77583617915810     -0.35949707369282     -0.54721605482926
  H   -2.64212163347389      0.30670975645973     -0.52862840878452
  H   -2.00041011795796     -1.22633250574481      0.07823156612648
  H   -1.63306175272858     -0.70129024702395     -1.57499729577374
