17
Coordinates from ORCA-job run
  C   0.68598805260194     -0.37311798578193     -0.57142343656290
  C   -0.70823635017717      0.27008386974498     -0.35178512124799
  Br  0.47209723708485     -2.01183656056098     -1.64491196573496
  H   -1.18462787170330      0.31992835974413     -1.34182434314617
  C   1.41719656523775     -0.71173044814754      0.72068851210516
  H   1.46227970699440      0.19044867288119      1.33333078759848
  H   2.42788005497048     -1.06056035211140      0.50602395817685
  H   0.88751647955205     -1.49670090049840      1.26058522896387
  C   1.48583888377732      0.54203561114626     -1.38427806845314
  N   2.10140366455580      1.32268294378474     -2.01199695360192
  N   -0.47276147440387      1.58485984759884      0.23982966963018
  H   -0.20106746803097      2.25515084469173     -0.47015476119706
  H   -1.32134658252278      1.92334938818898      0.67723705780899
  C   -1.58926255312539     -0.54339943031735      0.58273918295362
  H   -2.60321547998200     -0.13449606458546      0.57208063602997
  H   -1.64804734111156     -1.58819666671265      0.27806278600347
  H   -1.21263552371756     -0.48550112906512      1.60579683067357
