17
Coordinates from ORCA-job run
  C   0.70736670749764     -0.37465067102714     -0.54422741535908
  C   -0.70369646011358      0.24757065626821     -0.37498622067947
  Br  0.54930418932210     -2.04449436615872     -1.57925129665174
  H   -1.15485055212937      0.26395509140548     -1.37788654798026
  C   1.41376566012640     -0.66602782132446      0.77277752503383
  H   0.88510541626643     -1.44640353677905      1.32030338008303
  H   1.42803322166727      0.25222610251634      1.36249036360742
  H   2.43518362954390     -1.00194491984649      0.59076324282899
  C   1.50727547425131      0.53435151439338     -1.36337984634982
  N   2.11977315863610      1.31038003623783     -1.99976525718705
  N   -0.50648734113360      1.58075933169321      0.18864745270108
  H   -1.36946420077146      1.91255525288079      0.60167060970925
  H   -0.23317059770911      2.23963431354353     -0.53125766691623
  C   -1.59357234750790     -0.55872728559172      0.55730444327891
  H   -1.62844961501315     -1.61104326244365      0.27573856753662
  H   -2.61332911739900     -0.16681559925817      0.51351742470424
  H   -1.24278722553398     -0.47132483650936      1.58754124164027
