17
Coordinates from ORCA-job run
  C   0.71008589906337     -0.37987178928356     -0.53793492415355
  C   -0.69789141335726      0.25311571430318     -0.38188396090009
  Br  0.54983991256106     -2.04738188969801     -1.57557222345304
  H   -1.13952239054193      0.27368831705714     -1.38900567930226
  C   1.40030104156249     -0.67694485472742      0.78626740663366
  H   2.42136892286622     -1.01990998614342      0.61573349991929
  H   1.41467650518326      0.24091355670798      1.37659077194268
  H   0.86035054727804     -1.45398846285820      1.32757448686846
  C   1.52466295811388      0.52420842545726     -1.34816449835215
  N   2.14850802410486      1.29684967907182     -1.97758855895299
  N   -0.49597336763663      1.58431926246605      0.18455430658695
  H   -1.35993168937617      1.92204245844274      0.59075181592520
  H   -0.21198416526851      2.24162118083637     -0.53260790317459
  C   -1.60291684544918     -0.54707632126593      0.54107724552665
  H   -1.26318150544633     -0.46035472728662      1.57504500455707
  H   -1.64046440836435     -1.59959085876201      0.26041032905858
  H   -2.61992802529282     -0.14963970431734      0.48475288127013
