14

C	0.024064	0.041868	0.0369
C	-0.628039	0.466417	-1.271138
F	1.385091	-0.210133	-0.253217
H	-0.698589	-0.399611	-1.923332
H	-1.622598	0.877405	-1.10404
C	0.069241	1.12892	1.048634
N	0.087509	1.90295	1.931928
N	-0.606887	-1.118951	0.50814
H	-0.600052	-1.192131	1.514474
H	-1.561332	-1.236274	0.137868
N	0.212205	1.480693	-1.958762
O	0.726098	1.168319	-3.031135
O	0.329329	2.575106	-1.40908
Cl	-3.518629	-1.058749	-0.756558
