10
Coordinates from ORCA-job run
  C   -0.76639485529260      0.18882984168791     -0.20683008623154
  C   0.52953887880052      0.42704591520027      0.09243161477946
  H   -1.45237071046707      0.96681465121415     -0.51934258278216
  N   -1.35708501989723     -1.14148282147557     -0.19501013362291
  O   -2.43762703431947     -1.22793823453625     -0.77965841121624
  O   -0.75499687707035     -2.04595341854276      0.37667992485782
  C   0.99694186147218      1.78132250318773      0.01660178621445
  N   1.37645884602834      2.89367464731447     -0.04441490961043
  C   1.49599899013213     -0.55750557353585      0.47513450808714
  N   2.36953592061354     -1.28380751051409      0.78340828952443
