10
Coordinates from ORCA-job run
  C   -0.78888815859309      0.21301317968667      0.01093543074647
  C   0.54703721036252      0.41284014671320     -0.01931119833374
  H   -1.50532869190635      1.02207402944040      0.08476518575414
  N   -1.39751499045867     -1.10914452070794      0.00878293258141
  O   -0.71267016207299     -2.06992917727534     -0.33078282597800
  O   -2.57753724799371     -1.13079124751565      0.36066589848155
  C   1.54662929927300     -0.61075966463224     -0.07570983105047
  N   2.44784778701829     -1.36738490919572     -0.10796666641553
  C   1.02459637239632      1.76509834827185      0.01881722891493
  N   1.41482858197468      2.87498381521478      0.04880384529925
