10
Coordinates from ORCA-job run
  C   -0.77430363410940      0.18376958754441     -0.18414504698533
  C   0.53016513735805      0.42969454148934      0.06758295793325
  H   -1.47266856244503      0.95402471838841     -0.48804541289984
  N   -1.35958018822021     -1.14793291607981     -0.13009722664287
  O   -2.45432156433255     -1.24975708931685     -0.68498459540912
  O   -0.73934074257408     -2.03861230547050      0.44383200130413
  C   0.99186175942423      1.78322152799707     -0.04663677094050
  N   1.36695564009411      2.89495062365919     -0.13841520111915
  C   1.51164257179101     -0.54615362759210      0.43411903448770
  N   2.39958958301387     -1.26220506061917      0.72479026027175
