10
Coordinates from ORCA-job run
  C   -0.77603750884739      0.18239114573512     -0.17849421745482
  C   0.52411997920416      0.43324466125441      0.09041121868642
  H   -1.48317987231421      0.95678122567580     -0.44991035959257
  N   -1.34377803305265     -1.15800915597052     -0.18933452821999
  O   -0.71521419958691     -2.06599562941838      0.34716032467273
  O   -2.43388659763170     -1.24835477603450     -0.75532125878094
  C   0.96874397152349      1.79629202269189      0.04038566330320
  N   1.33145230045255      2.91509469995144     -0.00017801375237
  C   1.51658985505720     -0.54584337670135      0.41645716306687
  N   2.41119010519545     -1.26460081718391      0.67882400807146
