10
Coordinates from ORCA-job run
  C   -0.78538303327451      0.22479107627847     -0.00013589771990
  C   0.55356339341771      0.40435388983107     -0.02531457051365
  H   -1.49068020359787      1.04566757388785      0.04578813359776
  N   -1.41338349529203     -1.08819335418751      0.02823323311793
  O   -2.59684457101554     -1.08305058666588      0.36916571721564
  O   -0.73975254529030     -2.06773666436431     -0.27849032472233
  C   1.53827787632562     -0.63477508022841     -0.04692977371509
  N   2.42823845700045     -1.40529676558271     -0.05182632201546
  C   1.05021141761905      1.75024866966306     -0.02137562160135
  N   1.45575270410742      2.85499124136838     -0.01911457364355
