10
Coordinates from ORCA-job run
  C   -0.37753114468723     -0.61351922462212     -0.38472141586165
  C   0.66656232885266      0.16087926277148     -0.01604099176375
  H   -0.28993994899217     -1.41912664155362     -1.10358350208708
  N   -1.73440542858652     -0.40720395771283      0.10030979493462
  O   -1.90243061930729      0.29655678052183      1.09218242597197
  O   -2.60609354890501     -0.97718354250898     -0.55699811882321
  C   0.61186236402198      1.26255341931678      0.89675704441194
  N   0.67859205363591      2.19075552762986      1.61774908551080
  C   1.95033337351019     -0.12742266922285     -0.58777362032470
  N   3.00305057045748     -0.36528895461954     -1.05688070196893
