10
Coordinates from ORCA-job run
  C   -0.76162700214453      0.18693596831833     -0.22861692797522
  C   0.53019835671392      0.42627571418717      0.08652548608978
  H   -1.43473286756028      0.95687161121474     -0.58540798686458
  N   -1.36303002488839     -1.13772505175531     -0.17755548553254
  O   -0.78361293877907     -2.02171817693497      0.44716978209105
  O   -2.42758198045431     -1.24117988354166     -0.78806506022658
  C   1.01167707412046      1.77238543054171     -0.03311898048827
  N   1.40462531555830      2.87741203066040     -0.13052071284341
  C   1.48045176615289     -0.54981723252114      0.52731964323430
  N   2.34263230128101     -1.26844041016927      0.88227024251547
