10
Coordinates from ORCA-job run
  C   -0.41934729012076     -0.57346900573750     -0.40340306388557
  C   0.66169562258743      0.16605154447924     -0.07190689331325
  H   -0.37689257551875     -1.40333479146153     -1.09834043014140
  N   -1.73450066648639     -0.37100361093197      0.18688602381576
  O   -1.96049453557392      0.68634447326156      0.76869870135017
  O   -2.51308599190349     -1.31354523338078      0.03863571153069
  C   0.68114904057967      1.24615304500288      0.86769397066665
  N   0.81425863924821      2.13631188975244      1.62647515654162
  C   1.91139962627128     -0.15372203256049     -0.69944339163440
  N   2.93481813091670     -0.41878627842385     -1.21629578493026
