10
Coordinates from ORCA-job run
  C   -0.78386149457215      0.22667448023613     -0.02449290998821
  C   0.55574187365009      0.40273401682588     -0.00636452234776
  H   -1.48793408604467      1.04930090509303      0.00303444651501
  N   -1.41650349274731     -1.08442935697767     -0.02420865686621
  O   -0.73360132338374     -2.06590357908945     -0.30280282352941
  O   -2.61298720252684     -1.07590881843980      0.26746484826194
  C   1.53784167200756     -0.63906850779603     -0.00239886591928
  N   2.42434984823717     -1.41321454318549      0.01695399874846
  C   1.05493991552330      1.74743434822469      0.02292105207305
  N   1.46201428985658      2.85138105510870      0.04889343305241
