10
Coordinates from ORCA-job run
  C   -0.78076016894092      0.23966200281479     -0.02334688323739
  C   0.56056547589699      0.39389655317916      0.02627020614876
  H   -1.47318061730366      1.07047529771970      0.03797217888692
  N   -1.43134144184310     -1.05989540926874     -0.10596029700160
  O   -2.63029841725190     -1.05165659478810      0.17538038949599
  O   -0.75949831592695     -2.03270051825473     -0.43711063658998
  C   1.52752149120382     -0.66132667153418     -0.01226599279629
  N   2.40366950896099     -1.44749074109719     -0.02285472748351
  C   1.07926728014094      1.72688449417277      0.13689740745394
  N   1.50305520506380      2.82115158705653      0.22601835512317
