10
Coordinates from ORCA-job run
  C   -0.76759720664444      0.19168793501510     -0.20164641137469
  C   0.53080249971572      0.42667860749733      0.09001383402902
  H   -1.45385256173992      0.97078249591184     -0.50961139818389
  N   -1.36167577175717     -1.13718005807562     -0.18395656225981
  O   -2.44030929760796     -1.22316995864242     -0.77197816628435
  O   -0.76487139965986     -2.04015566619961      0.39540262911551
  C   1.49612197567597     -0.56268744688390      0.46311965970545
  N   2.36960451871932     -1.29087017444082      0.76739532942368
  C   1.00390875451997      1.77821037889597      0.00846364917231
  N   1.38786848877836      2.88870388692212     -0.05720256334323
