10
Coordinates from ORCA-job run
  C   -0.77811765248295      0.23296562959991     -0.08506287976886
  C   0.55614747835921      0.39871009008389      0.04839285048164
  H   -1.47690843351317      1.06045775600454     -0.10257177492383
  N   -1.41621057319688     -1.07327779677401     -0.15938307408316
  O   -2.63181757136354     -1.06193186141672      0.03770622225687
  O   -0.71897288593189     -2.05400325752480     -0.40289529445773
  C   1.05975819838387      1.73892463581413      0.14002666304489
  N   1.47105223299931      2.83911578369756      0.21319945912357
  C   1.52830925341648     -0.65018462218784      0.11664822723400
  N   2.40675995332957     -1.42977635729666      0.19593960109263
