10
Coordinates from ORCA-job run
  C   -0.52812514687607     -0.43459420284980     -0.45901095129978
  C   0.65019066051356      0.14327717604717     -0.13945546815861
  H   -0.70934784882440     -0.92629230684574     -1.40697524923549
  N   -1.69164663492753     -0.39937061120179      0.41515416864223
  O   -1.52540405577701     -0.13152379099920      1.60159126203744
  O   -2.76031426436821     -0.64578949260041     -0.14446147495723
  C   1.71944201944060      0.07330867111395     -1.09350411654390
  N   2.60891951586192      0.02022029188981     -1.86176988179697
  C   0.94027081229454      0.84379561164255      1.07526018557234
  N   1.29601494266260      1.45896865380346      2.01417152573998
