10
Coordinates from ORCA-job run
  C   -0.38926444300968     -0.48855396406605     -0.52816929430250
  C   0.66053743423762      0.19522627511150     -0.02142525226571
  H   -0.31558893106307     -1.16580525286199     -1.37088165668360
  N   -1.72668279996386     -0.42151145450788      0.04092998139374
  O   -2.01258269214338      0.52294115092138      0.77204729044754
  O   -2.45970992572572     -1.36104033630934     -0.27126216658915
  C   0.61286422401411      1.05407427102820      1.12135167205955
  N   0.69914871726235      1.74749444333574      2.06877405806355
  C   1.93661312701488      0.03308351137251     -0.65814192354708
  N   2.99366528937676     -0.11790864402408     -1.15222270857634
