10
Coordinates from ORCA-job run
  C   -0.78405910767389      0.22842650021781     -0.01210350706607
  C   0.55584365773912      0.40177343167235     -0.00486129794068
  H   -1.48634499712676      1.05169041478188      0.03658193218133
  N   -1.41874759453617     -1.08157457029548     -0.02513998718141
  O   -2.60987234568773     -1.07724779459003      0.28778077197651
  O   -0.74276201497552     -2.05815716943218     -0.33599347490857
  C   1.05862738947341      1.74464203067799      0.03841733904782
  N   1.46956600251229      2.84687511560332      0.07291554320866
  C   1.53613730949478     -0.64143257223833     -0.02709763992727
  N   2.42261170078049     -1.41599538639733     -0.02949967939033
