10
Coordinates from ORCA-job run
  C   -0.50517975617178     -0.35784372829223     -0.53211289227493
  C   0.66325970325565      0.15190928836682     -0.08459608734306
  H   -0.63987367421039     -0.72947156154567     -1.54053893002964
  N   -1.71526486107588     -0.40985818289676      0.27569955563896
  O   -2.74817758383452     -0.61961575787364     -0.36142711207853
  O   -1.61913397320925     -0.24602916983399      1.48863168817287
  C   1.77705390879790      0.17072594519870     -0.98872909140520
  N   2.69030927790963      0.18390681495874     -1.73086993692317
  C   0.89879360122575      0.69041417733618      1.22098291162213
  N   1.19821335731289      1.16686217458185      2.25495989462058
