10
Coordinates from ORCA-job run
  C   -0.78167203356769      0.22201197664108      0.08266086061597
  C   0.55762700843731      0.39650754182204      0.04550163921391
  H   -1.48076685589547      1.04126041388506      0.19860422259694
  N   -1.42213668341470     -1.07392242690673     -0.08838172993852
  O   -0.73829457689557     -2.08670923269776      0.03007627342190
  O   -2.62579351537581     -1.02128261540091     -0.34364706521432
  C   1.53231637568020     -0.63504138517294     -0.14382568180091
  N   2.41384127951996     -1.39824384171974     -0.30572606486088
  C   1.06519691758068      1.72965014592251      0.19843877186506
  N   1.47968208393109      2.82376942362739      0.32529877410085
