10
Coordinates from ORCA-job run
  C   -0.78932099469392      0.17560668381477     -0.12007734144199
  C   0.52250473721170      0.44000280740660      0.06553851904974
  H   -1.52389862173784      0.94471946642187     -0.32485223800571
  N   -1.33666875440689     -1.17327730792730     -0.12644585493090
  O   -0.66873190555957     -2.07973337967461      0.36317613933371
  O   -2.45187773185600     -1.27155192821406     -0.63950856922048
  C   0.94538065450826      1.80996940004514      0.01739135737521
  N   1.29032048922494      2.93444775026714     -0.02152328663245
  C   1.54718206243176     -0.53253944201758      0.29865710198350
  N   2.46411006487756     -1.24664405012197      0.48564417248939
