10
Coordinates from ORCA-job run
  C   -0.77215877243706      0.17205337681551     -0.20380590893029
  C   0.52039422962590      0.43833290043168      0.08629776618787
  H   -1.47404751135534      0.93239846459689     -0.52430424338981
  N   -1.33607264889782     -1.16959117437644     -0.17418545236871
  O   -2.41244237280058     -1.28641584996099     -0.76112823784012
  O   -0.71756939109295     -2.05322206671648      0.41219857087199
  C   1.50754314041315     -0.52320109305653      0.47455609434504
  N   2.39803984567314     -1.22670567805976      0.78728024094424
  C   0.96253508313559      1.79982317160161     -0.00921209646961
  N   1.32277839773599      2.91752794872451     -0.08669673335061
