10
Coordinates from ORCA-job run
  C   -0.77636701134219      0.19626178360693     -0.15757976656958
  C   0.53821863603666      0.42184006410118      0.05813262645529
  H   -1.47260933309989      0.98067394020210     -0.42829537906960
  N   -1.37820878588814     -1.12800467780349     -0.10655809894011
  O   -2.49288879883701     -1.20484844016569     -0.62467646276649
  O   -0.75149172854104     -2.03736406724906      0.42984740559169
  C   1.01406144462806      1.77070286232280     -0.05345801783173
  N   1.40356033318518      2.87732153693333     -0.14717723697316
  C   1.51675689067575     -0.57121884018508      0.38392074604724
  N   2.39996835318263     -1.30436416176303      0.64484418405645
