10
Coordinates from ORCA-job run
  C   -0.51976231712411     -0.35274789540623     -0.52349259517280
  C   0.67363040688430      0.09740894319323     -0.07758538075016
  H   -0.66073031970535     -0.77225423550641     -1.51213859019428
  N   -1.74523787595382     -0.27305287629409      0.25830798143177
  O   -2.77880765801943     -0.44977796942873     -0.38764781362462
  O   -1.65957082704691     -0.04221573531925      1.46125120646727
  C   0.92074100710267      0.69467978941970      1.20010544121298
  N   1.23582623146258      1.20767919352459      2.21173455107730
  C   1.80339223876388     -0.01229368744272     -0.95495495472726
  N   2.73051911363620     -0.09942552674008     -1.67457984572020
