10
Coordinates from ORCA-job run
  C   -0.76304931231303      0.19895435874755     -0.23088759558937
  C   0.52889570896087      0.42510349099474      0.09155398384129
  H   -1.43414173597611      0.97103171114718     -0.58632868509034
  N   -1.36305693790474     -1.12854818322113     -0.19493779011756
  O   -0.82696963949222     -2.00019798942234      0.48212245202742
  O   -2.38413594933443     -1.24339710550970     -0.87386394874855
  C   1.46816921666791     -0.56560841083008      0.52173125829089
  N   2.32361950769202     -1.29893929474047      0.86250725139613
  C   1.02357254227891      1.76878581705215      0.00147716000607
  N   1.42909659942082      2.87081560578212     -0.07337408601599
