10
Coordinates from ORCA-job run
  C   -0.44314229165705     -0.43284783254034     -0.51390599914624
  C   0.67759313845255      0.21381206953199     -0.11879325423913
  H   -0.47398104667372     -1.05817156409245     -1.39855242704357
  N   -1.69976005066451     -0.34353755085239      0.21359787589211
  O   -2.32239711704486     -1.39894058088244      0.30029456387055
  O   -2.01986643982470      0.75376067310916      0.66390222129906
  C   1.87044918025332      0.01688667468736     -0.89373131330010
  N   2.85043899220857     -0.18322001808445     -1.51348808315707
  C   0.76127515475753      0.95973097940105      1.10078430985097
  N   0.80039048019287      1.47252714972252      2.16089210597343
