10
Coordinates from ORCA-job run
  C   -0.73536895744493      0.27662848161896     -0.17100871659866
  C   0.59433858947481      0.40431054419315      0.04144759947534
  H   -1.39454819856887      1.13130255181545     -0.26378287583823
  N   -1.39347028089432     -1.01448792938955     -0.28860699939250
  O   -2.48843104037279     -1.08574107974279      0.26441563993331
  O   -0.80954100667787     -1.89581155660183     -0.91305051113255
  C   1.46096860385863     -0.71320603205157      0.26606067412843
  N   2.10724474226097     -1.65911238870807      0.54133000120234
  C   1.12212797403466      1.73281169191566      0.18517994788766
  N   1.53667957432970      2.82330571695060      0.33901524033487
