10
Coordinates from ORCA-job run
  C   -0.77313240005018      0.25902078182312     -0.04581878408276
  C   0.56986942727175      0.38043357129361      0.03911523977302
  H   -1.44594707055382      1.10708489260653     -0.01004458926633
  N   -1.45381127346576     -1.02457194548583     -0.13462699903318
  O   -0.79850155509035     -2.01628837945570     -0.44212575603169
  O   -2.65881269794656     -0.98422693748053      0.11624375629140
  C   1.51028891408195     -0.69921302476313      0.03673465900690
  N   2.36480117296269     -1.50877523077444      0.05541118998050
  C   1.11911972790664      1.70105738105369      0.14971881451141
  N   1.56812575488365      2.78547889118268      0.23439246885074
