10
Coordinates from ORCA-job run
  C   -0.78236835575725      0.23816158444694     -0.01200142398649
  C   0.55941344759097      0.39600691649598      0.00581929509156
  H   -1.47510399393753      1.06824580553710      0.05313670102015
  N   -1.43025469274701     -1.06461762659446     -0.05685157854941
  O   -0.76667952383745     -2.03791614358194     -0.40283674097211
  O   -2.61782353343522     -1.05814432563727      0.26882516637863
  C   1.52786319232484     -0.65787920734432     -0.03506118551345
  N   2.40539642002976     -1.44238241284339     -0.04899183324680
  C   1.07804808519799      1.73128726572722      0.08311441264372
  N   1.50250895457091      2.82723814379415      0.14484718713420
