10
Coordinates from ORCA-job run
  C   -0.78337011662167      0.22877398329175      0.03363260490496
  C   0.55610017281778      0.40162270782024     -0.00783580392027
  H   -1.48099007318807      1.04879580840261      0.15292163063922
  N   -1.42086960934016     -1.07877138712700     -0.01899195681926
  O   -2.59817030472994     -1.09016519165192      0.34249227177926
  O   -0.76014133156056     -2.03872751920513     -0.40553881649914
  C   1.06271702825218      1.74089195015788      0.08117076296538
  N   1.47633176194860      2.84034600891515      0.15289742264886
  C   1.53225265088757     -0.63924254371824     -0.12490684744877
  N   2.41613982153428     -1.41252381688533     -0.20584126825025
