10
Coordinates from ORCA-job run
  C   -0.44028485300916     -0.52983223998362     -0.43963087221696
  C   0.66302943245535      0.15823378313186     -0.07248451474391
  H   -0.43117906393948     -1.29383062813710     -1.20742667623763
  N   -1.73754337052697     -0.35546531385969      0.19725258086915
  O   -2.54431779976222     -1.25843419355461     -0.02719658793285
  O   -1.92311709482832      0.64302649103910      0.88710290916797
  C   1.89066048126584     -0.12635878324785     -0.75823458678878
  N   2.89663769608914     -0.35964590161337     -1.32269295968981
  C   0.72826163842949      1.15123244976844      0.95690034527457
  N   0.89785293382633      1.96907433645684      1.78641036229824
