10
Coordinates from ORCA-job run
  C   -0.75309323206681      0.18916348336651     -0.25374340402375
  C   0.52698248557875      0.42419434472783      0.10887057123840
  H   -1.41448119731740      0.96485075363863     -0.62038855296916
  N   -1.35560713822249     -1.13591489739488     -0.24126433109730
  O   -2.40667914757935     -1.22744768250403     -0.87658840378199
  O   -0.79012581905286     -2.03180027610252      0.37915823550776
  C   1.01037704354391      1.77272841879801      0.02973916045070
  N   1.40464142282249      2.87992460327675     -0.02956621322593
  C   1.46320091162392     -0.55819393466718      0.56557918351476
  N   2.31478467066983     -1.27950481313913      0.94020375438651
