15
Coordinates from ORCA-job run
  C   0.57380553585493     -0.34764976263694     -0.50019635765472
  C   -0.93735671816075     -0.18255536626397     -0.17941023942663
  Cl  0.81632482516447     -1.99806646775516     -1.15586626640158
  H   -1.49191358080046     -0.50603010357158     -1.07195122321705
  C   0.88900242782509      0.61559973539739     -1.55601467690211
  N   1.09650352375113      1.41792879604836     -2.38924366814640
  C   1.46091353319705     -0.13629691646261      0.71598923962369
  H   1.25003495716861     -0.90572016467676      1.46036002562151
  H   2.51070128261961     -0.20196310539845      0.42837845041851
  H   1.25357948194950      0.84803325066344      1.13695314501049
  N   -1.18076852372604      1.20021591326808      0.21188082882433
  H   -2.01379250358898      1.27474697090592      0.78160916039070
  H   -1.30369549958177      1.77541406428652     -0.61309887383595
  C   -1.30573617342162     -1.07987177052815      0.91908085299859
  N   -1.61860256825078     -1.77278507327608      1.81352960269663
