15
Coordinates from ORCA-job run
  C   0.59098175089012      0.24775056775683     -0.33967584156432
  C   -0.77534856665978      0.08733011371502      0.36892745251392
  Cl  0.32352765734136      0.17886218345820     -2.11490293980057
  H   -0.56371546405324      0.14423751454747      1.44324130344399
  C   1.14202484570792      1.56260049176456     -0.01164324772629
  N   1.60036783738543      2.59830949868206      0.30190927759321
  C   1.55838100714032     -0.85555665469121      0.06630643439459
  H   2.50582726439851     -0.72980530015126     -0.45832095963590
  H   1.74009055712272     -0.80236105738756      1.14308023404467
  H   1.12168780833533     -1.82211331316773     -0.17678184931066
  N   -1.33554069815917     -1.22125151709551      0.09222283894385
  H   -2.09192431711937     -1.41454795335842      0.73713850784530
  H   -1.71234019082813     -1.24572477527078     -0.84825496401667
  C   -1.66879117611136      1.21324561905202      0.03246866261135
  N   -2.43722831539067      2.06102458214629     -0.23471490933647
