15
Coordinates from ORCA-job run
  C   0.56857099887575     -0.36636059162834     -0.51849626274086
  C   -0.94028821349714     -0.17588025322311     -0.22045608248840
  Cl  0.82541333840309     -2.07763537190578     -0.99025851169138
  H   -1.48302596839418     -0.45953445371872     -1.12724471837337
  C   0.90965333966726      0.47976918783351     -1.66234701863597
  N   1.20118212624308      1.15513176181766     -2.57795949407986
  C   1.44368018792437     -0.03152591943614      0.67988533929799
  H   1.30747671599287      1.01803344769893      0.94822038135190
  H   2.49265930141125     -0.19296243121180      0.43030438731944
  H   1.18063919834576     -0.67268832356573      1.52346728646769
  N   -1.19296284038469      1.22449658936349      0.06854281222511
  H   -2.11051338118532      1.50042136450275     -0.25382013757552
  H   -1.13239139475109      1.41510500301837      1.06037258271464
  C   -1.35860815412501     -1.08265172050005      0.86335370915343
  N   -1.71048525452601     -1.73171828904507      1.77743572705515
