15
Coordinates from ORCA-job run
  C   0.63883209976818     -0.36829264753988     -0.42554117363940
  C   -0.90108041694489     -0.27297843629470     -0.28071531709758
  Cl  1.06210527235524     -2.09207012823609     -0.68606706905407
  H   -1.33412412656846     -0.68868871204653     -1.19557853559381
  C   1.02442637278627      0.38164764603285     -1.62097374661220
  N   1.35221932265182      0.97953271007514     -2.57750582666434
  C   1.37116381356943      0.15561749753091      0.80051524275482
  H   1.13666149439406      1.21267200651307      0.94109794493129
  H   2.44774505578906      0.05415462530491      0.66121471624210
  H   1.07559807019008     -0.41583954937939      1.68255689539002
  N   -1.28034539557025      1.12399420910863     -0.16556155659400
  H   -2.18292267114582      1.29003331182163     -0.58954069871265
  H   -1.32276232204640      1.41763991381883      0.80175020890278
  C   -1.35222560024599     -1.09830032810154      0.85384550244566
  N   -1.73529096898233     -1.67912211860784      1.80050341330137
