15
Coordinates from ORCA-job run
  C   0.60013079129217     -0.16710842700306     -0.37862266504972
  C   -0.86244869339468     -0.27028110734122      0.11190704146614
  Cl  0.82587555272891     -1.46684670639497     -1.60457205288064
  H   -0.96412714580507     -1.27860765246008      0.54456172595389
  C   0.81916092676583      1.12307630736294     -1.03009545986270
  N   1.05098101927061      2.17285900409298     -1.50355261749839
  C   1.60206541064540     -0.38577721756432      0.74721178770124
  H   1.51794203196254      0.41605903387828      1.48351320632799
  H   2.61537435744142     -0.39082865790797      0.34513600792091
  H   1.41108860957716     -1.34622855616464      1.23054409718108
  N   -1.78301636047795      0.02058548013262     -0.97284337513582
  H   -1.80486804014655     -0.75573579277809     -1.62237694058946
  H   -2.71836873014541      0.16904087859331     -0.61563716563123
  C   -1.06871838569731      0.69892428826978      1.19425458550223
  N   -1.24107134401708      1.45986912528445      2.07157182459448
