15
Coordinates from ORCA-job run
  C   0.59429304595170      0.20236132014978     -0.36237864083244
  C   -0.76929037537459      0.13924557339852      0.36676844582919
  Cl  0.30862994523640     -0.00042418280256     -2.12466405952066
  H   -0.54542263850597      0.27814783901656      1.43108190265937
  C   1.18588708604102      1.52260439035933     -0.14529100499079
  N   1.67773320491169      2.56575056128626      0.08062645825790
  C   1.53362377445357     -0.89281591012264      0.12321553254539
  H   1.06911560748921     -1.86262271819656     -0.04280050120211
  H   2.48065992438631     -0.83440825369923     -0.41378742052030
  H   1.72378600578569     -0.76257542432744      1.19183720896086
  N   -1.36814890473147     -1.17057777696002      0.20099158332791
  H   -1.75341111142511     -1.26015746809129     -0.73186719490463
  H   -2.12385524589653     -1.29016403857988      0.86440066529178
  C   -1.63364766253206      1.25959610738254     -0.05450091186975
  N   -2.37995265578986      2.10503998118662     -0.38463206303171
