15
Coordinates from ORCA-job run
  C   0.58086220103025      0.22416632290079     -0.37188512138245
  C   -0.75264996457158      0.11642451542948      0.40595823507365
  Cl  0.22266066382163      0.14129056133478     -2.13037354675480
  H   -0.48596767658118      0.17910758808388      1.46763812996452
  C   1.18864913596493      1.52473279100551     -0.09069429859007
  N   1.69521938933323      2.54905081502761      0.18380974328950
  C   1.53233386503213     -0.90431527700462      0.00111921765959
  H   1.05247131206318     -1.85928531198309     -0.20318223694243
  H   1.77240286242723     -0.84143900601214      1.06575962700931
  H   2.45417551600089     -0.81752640525079     -0.57430570483862
  N   -1.36745862641228     -1.17653638173578      0.17490462682409
  H   -2.09363900848563     -1.33927020849378      0.86155434162377
  H   -1.79477709872393     -1.19851843675015     -0.74365836815721
  C   -1.62546557023868      1.26636449877406      0.09843306732300
  N   -2.37781700066020      2.13575393467424     -0.14407771210186
