15
Coordinates from ORCA-job run
  C   0.62532292588655      0.19978819811160     -0.31067948848700
  C   -0.80001252934421      0.13933567514422      0.28900872603484
  Cl  0.50728979286029     -0.04820274851721     -2.08609915570798
  H   -0.67878633723132      0.30398054914159      1.36619263400276
  C   1.18190404749504      1.53137389280767     -0.07164384582195
  N   1.62773023387777      2.59067854744802      0.17357920856884
  C   1.52395772103930     -0.87334384180459      0.28832113492609
  H   1.08302702997045     -1.85154236686956      0.10757854328962
  H   1.61489435983963     -0.71218768889305      1.36583567670004
  H   2.51567255629485     -0.82037309736797     -0.16154041154210
  N   -1.37026737137485     -1.18033339590735      0.09954684867036
  H   -1.66940756586394     -1.29472378933510     -0.86190376579406
  H   -2.18146913213385     -1.29291282620793      0.69500757102321
  C   -1.63068120207304      1.24048985779259     -0.23704153560926
  N   -2.35017452924269      2.06997303445707     -0.65516214025341
