15
Coordinates from ORCA-job run
  C   0.59964279359420      0.23919684270682     -0.32955651352383
  C   -0.78484755649078      0.09494482806255      0.34684338505909
  Cl  0.37884170775300      0.12498263658153     -2.10904100834943
  H   -0.60103836430485      0.17812323842150      1.42454444280272
  C   1.14033174620645      1.56310982931685     -0.02157531149499
  N   1.58692214821490      2.60913679689240      0.27447853536473
  C   1.55673895375474     -0.85224946406007      0.12918502715593
  H   1.71119973999557     -0.77112253373276      1.20841964460358
  H   1.12646920274415     -1.82509781303577     -0.09987753098950
  H   2.51710057029508     -0.73933605046475     -0.37440377853680
  N   -1.33743085819577     -1.22059558274040      0.08760556197580
  H   -2.11034908800320     -1.39885499746012      0.71701436234775
  H   -1.68958394860741     -1.26803462980228     -0.86153491135511
  C   -1.66894245926436      1.21145875422824     -0.04111280068301
  N   -2.42705458769170      2.05433814508627     -0.34998910437692
