15
Coordinates from ORCA-job run
  C   0.59106438933485     -0.15890868739342     -0.39740482537480
  C   -0.85920930759845     -0.27128360627420      0.12645967128225
  Cl  0.78451413928032     -1.42931756013833     -1.65838913827627
  H   -0.95215260266101     -1.28900758382596      0.53869388907678
  C   0.79636337240463      1.14599965446951     -1.02328607679053
  N   1.01722646090408      2.20583971631919     -1.47909181572140
  C   1.61943394935603     -0.40509735253936      0.69854014497938
  H   2.62283134167605     -0.40226761074456      0.27223409092198
  H   1.55457854799006      0.37959810510679      1.45502038912912
  H   1.43829098324506     -1.37624802664038      1.16395518280871
  N   -1.80573690936386      0.04542096296079     -0.92838158961829
  H   -1.84461150316813     -0.71567351729634     -1.59491746868079
  H   -2.73184171860910      0.18601514797559     -0.54472155074873
  C   -1.03795874939682      0.67319835530951      1.23537492869506
  N   -1.19279239339371      1.41173200271119      2.13491416831752
