15
Coordinates from ORCA-job run
  C   0.53916558903185     -0.37261644470760     -0.46123157354253
  C   -1.00307838921611     -0.22656663344341     -0.24432938955637
  Cl  0.86246443202068     -2.05152214489612     -0.99735387187281
  H   -1.48233581030908     -0.59841350385274     -1.15639576143684
  C   0.90356035262149      0.53914942853857     -1.54579531518221
  N   1.14672811002965      1.31572230615076     -2.39373020628557
  C   1.35434297929775     -0.07682716642635      0.78953093802400
  H   1.17923142376687      0.94907251704272      1.12155026305880
  H   1.07637726238765     -0.77119741728464      1.58374691902818
  H   2.41735319119588     -0.19098853641466      0.57665321655221
  N   -1.48007847082257      1.11437595914918      0.00176896497324
  H   -1.10738691628096      1.50567747626693      0.85634156221024
  H   -1.28055245180597      1.72761255807872     -0.77840023145248
  C   -1.41027878445458     -1.09736040434196      0.86589800637288
  N   -1.71551251746256     -1.76511799385938      1.78174647910927
