15
Coordinates from ORCA-job run
  C   0.62859028623041     -0.20949090781658     -0.40972801321274
  C   -0.82505632200043     -0.40202490972160      0.09007453567813
  Cl  0.96652249065426     -1.49905066143390     -1.60289919146421
  H   -0.89104668889254     -1.43766530576727      0.43952458418541
  C   0.72089037582895      1.08535782922491     -1.08533598433964
  N   0.76013713024058      2.14483825450589     -1.59230140794870
  C   1.64591380217847     -0.30736050823456      0.72093604149561
  H   1.53383894221186     -1.26798703493171      1.22857029531404
  H   2.65554426632979     -0.24393589646071      0.31472588139649
  H   1.50022686343589      0.50162113824688      1.43900047794371
  N   -1.77135797527961     -0.22132234056387     -0.98954203428228
  H   -1.89527959009931      0.76301878909012     -1.19814069293727
  H   -2.67192088633309     -0.60942516494017     -0.73997698919514
  C   -1.06040470775544      0.48799314687900      1.24615952283996
  N   -1.29559798674977      1.21543357192358      2.13893297452664
