15
Coordinates from ORCA-job run
  C   0.61530957137654      0.22529563726651     -0.31133901203135
  C   -0.78933504682431      0.11549777980953      0.32872742882581
  Cl  0.43453315072812      0.15334586932219     -2.09696695853655
  H   -0.63034084902115      0.17304676526419      1.41206607326390
  C   1.19323392979433      1.52311682124631      0.03727372683250
  N   1.67000621184472      2.54538209266444      0.36698763567887
  C   1.52355347627257     -0.90674073251661      0.14853832748690
  H   1.65452269478703     -0.85082861128106      1.23253831265336
  H   2.49903300923616     -0.81700269340469     -0.33005096709679
  H   1.06621884379134     -1.85985036563763     -0.10909621888210
  N   -1.37860047401358     -1.17584592945149      0.03179493192293
  H   -2.17044973855048     -1.34029185023259      0.64117161464598
  H   -1.71077847353979     -1.19437347104228     -0.92537695611365
  C   -1.62670742411381      1.26799738943997     -0.05857813680855
  N   -2.35119888176769      2.14025129855319     -0.36668980184125
