15
Coordinates from ORCA-job run
  C   0.59315590419128     -0.16389289996552     -0.39082020269831
  C   -0.85774715461995     -0.27598079515030      0.13128207628260
  Cl  0.80219563400547     -1.46613246614848     -1.61714349939374
  H   -0.94279180713097     -1.28346641485057      0.56944113479153
  C   0.78849774563777      1.12565826750360     -1.05106856038724
  N   1.00167112712789      2.17570320644032     -1.53258560715518
  C   1.62053413238062     -0.37150804613230      0.71394852094217
  H   1.44735080881732     -1.33201915758827      1.20378698638717
  H   2.62505216921794     -0.36987688000084      0.29038186871699
  H   1.54591364364534      0.43174974862099      1.44971318291043
  N   -1.80345792257080      0.00443314035980     -0.93446892054670
  H   -1.83327998488435     -0.77430295481709     -1.58082039227117
  H   -2.73211504250944      0.14692399031620     -0.55767702086612
  C   -1.04805822770189      0.69550275873747      1.21460955110594
  N   -1.20892102560623      1.45720850267497      2.09342088218163
