15
Coordinates from ORCA-job run
  C   0.67013517761702     -0.30300176407481     -0.42895881980940
  C   -0.86875572201367     -0.37567406611812     -0.26106002836667
  Cl  1.27804254510476     -1.97402011548277     -0.66632542570524
  H   -1.26565082467582     -0.85229391014619     -1.16248698508366
  C   0.95293642017663      0.46195384215120     -1.64363902255608
  N   1.19631018866905      1.07233228147787     -2.61734063909785
  C   1.35694023656572      0.32219063821696      0.77569957789841
  H   1.00822047660953      1.34915686595184      0.90158747846746
  H   1.13943651827830     -0.26160945860042      1.67224144788321
  H   2.43599408884878      0.33839372879426      0.62072851970617
  N   -1.39883070983882      0.97212756165947     -0.16183120385249
  H   -1.46004071465720      1.27639516771587      0.80132425375267
  H   -2.31988348865813      1.03064126336214     -0.57483556371011
  C   -1.21012068020672     -1.22684248125751      0.89273430566914
  N   -1.51573351181943     -1.83074955364979      1.85316210480443
