15
Coordinates from ORCA-job run
  C   0.62962128570691     -0.21100622193264     -0.40737600952735
  C   -0.82279304042757     -0.40608179351547      0.09491785977624
  Cl  0.97486911720022     -1.51343884471258     -1.58440184091831
  H   -0.88278336765976     -1.43787729239131      0.45660961267815
  C   0.71399198236001      1.07593667501221     -1.09897060576404
  N   0.74713453288724      2.13043859043669     -1.61659260956162
  C   1.64780078992674     -0.28855368698859      0.72406926704345
  H   1.49757318456627      0.52868921445021      1.43174772923416
  H   2.65691488273151     -0.22448178169490      0.31669459387619
  H   1.54135667208058     -1.24328912998352      1.24388796894630
  N   -1.77018584551030     -0.24366476031325     -0.98671227686078
  H   -1.90090397583518      0.73747037655800     -1.20593244879442
  H   -2.66805005788298     -0.63541360218875     -0.73320116449126
  C   -1.06338600646611      0.49599936025687      1.24051482854563
  N   -1.30016015367757      1.23327289700703      2.12474509581767
