15
Coordinates from ORCA-job run
  C   0.57635877352623     -0.16026547869597     -0.41739993228346
  C   -0.84604430854593     -0.28641701538700      0.17515842889806
  Cl  0.74491157273093     -1.47411741036660     -1.63758071165675
  H   -0.89528832515969     -1.29014202717685      0.62726533470952
  C   0.72122915804113      1.12390497773431     -1.10073475744401
  N   0.89520063743228      2.17125892993901     -1.60336823363476
  C   1.65847669678523     -0.34007081235505      0.63888929927730
  H   1.52203673481229     -1.29578193172572      1.14918834586158
  H   2.64124430094142     -0.33152338553127      0.16713402193894
  H   1.60869561280939      0.47217599659978      1.36675358458907
  N   -1.84595558894955     -0.03133424582204     -0.84656804551341
  H   -2.75715040762389      0.10285716325949     -0.42696089157213
  H   -1.89587834567700     -0.81781044244413     -1.48205528645891
  C   -0.99814353135963      0.69411461226113      1.25631961268440
  N   -1.12769297976322      1.46315106971091      2.13395923060457
