15
Coordinates from ORCA-job run
  C   0.57866580243686     -0.15934486354469     -0.41397576430251
  C   -0.85190419843175     -0.27860552702671      0.16024775043733
  Cl  0.74408617873616     -1.44960322265961     -1.65948701543715
  H   -0.91897823332581     -1.28986254612480      0.59281258637797
  C   0.74782264666532      1.13677488476550     -1.06851651852546
  N   0.93992049110215      2.19203906012786     -1.54752931144888
  C   1.64637427700158     -0.37584161734257      0.65007104448384
  H   2.63454403556393     -0.36744378938641      0.18982991363918
  H   1.59743858257393      0.41957537740957      1.39644866877018
  H   1.49332232477045     -1.34170407713987      1.13600014908544
  N   -1.83676610878123      0.00913442419987     -0.86719384411026
  H   -1.88828110431485     -0.76292190494076     -1.52016498060829
  H   -2.75126870113743      0.14593802387452     -0.45547355614530
  C   -1.00354519050197      0.68382003472633      1.25773270015583
  N   -1.13343080235734      1.43904574306176      2.14719817762806
