15
Coordinates from ORCA-job run
  C   0.58172541175743     -0.15327471208124     -0.41259082648433
  C   -0.85344021175572     -0.27982515468177      0.14872751769264
  Cl  0.75501326932444     -1.42318109764319     -1.67734240941256
  H   -0.92529888610026     -1.29829220235080      0.56332408047815
  C   0.75744959442359      1.15317677185245     -1.04449049848233
  N   0.95548141917264      2.21548184339664     -1.50511832391463
  C   1.64064651162303     -0.38792157062159      0.65649808267162
  H   2.63246586308736     -0.37608519413568      0.20421268915067
  H   1.58794162051468      0.39717939001225      1.41339979841957
  H   1.48127522189678     -1.36004002003510      1.12775173861823
  N   -1.83000353977505      0.02668346431685     -0.88140989036069
  H   -1.87838157459437     -0.73577426948210     -1.54587708601888
  H   -2.74733417960569      0.15772828112589     -0.47394797540454
  C   -1.01197635653388      0.66295234274168      1.26192722188086
  N   -1.14656416343498      1.40119212758572      2.16493588116621
