15
Coordinates from ORCA-job run
  C   0.69240534024141     -0.31790104454469     -0.34619401894765
  C   -0.84636599457206     -0.44470156232556     -0.17437856079903
  Cl  1.36477547363782     -1.97304629256922     -0.48901443974227
  H   -1.20351338528792     -1.11542090605926     -0.96887332224281
  C   0.92057266558797      0.38078901119441     -1.61189827478292
  N   1.05472648258678      0.96381070254451     -2.62339855679658
  C   1.35614337599181      0.41472627935147      0.80859153777945
  H   0.89323391445346      1.39611822938396      0.91651508898830
  H   1.22375105852567     -0.15655811406254      1.72873772381339
  H   2.42309087679863      0.52832038371678      0.61434564173143
  N   -1.42918791891172      0.89097327445384     -0.20696202755074
  H   -2.32290060086261      0.90781571432944      0.26752886096816
  H   -1.57049832743782      1.18161512632217     -1.16715578065070
  C   -1.14538682790682     -1.08361411017955      1.11012340783385
  N   -1.41284613284459     -1.57292669155576      2.14303272039811
