15
Coordinates from ORCA-job run
  C   0.52544967194502      0.29390247865230     -0.30843330867868
  C   -0.85390187454476      0.11883789346485      0.40583265585003
  Cl  0.24483901102824      0.40684321450368     -2.07589313833661
  H   -0.62997407524900      0.09687392457956      1.47994169951083
  C   1.14067022588142      1.53871440697999      0.14751607569505
  N   1.64411128963367      2.51346588935538      0.56978879808886
  C   1.44961927681742     -0.88356059488738     -0.02727387252237
  H   1.60799124370029     -0.98332958380949      1.05010354733857
  H   2.41394921388581     -0.72690889774170     -0.51080474077210
  H   1.01345092824293     -1.80168045531602     -0.42162690183236
  N   -1.60181651949656     -1.07050783089422      0.08281142351567
  H   -1.76715581035956     -1.14396230251602     -0.91306611979738
  H   -1.14044233231581     -1.90430748685134      0.41885679759348
  C   -1.68819512670222      1.30296606202677      0.15681711529518
  N   -2.35959512246689      2.24265328245365     -0.05257003094819
