15
Coordinates from ORCA-job run
  C   0.49037898306813     -0.30278327803180     -0.55620436981481
  C   -1.01875110312341     -0.24331413192608     -0.14826772737554
  Cl  0.79729935146538     -1.90588975742241     -1.29565819013148
  H   -1.59204328759876     -0.54561027220583     -1.03130396625553
  C   0.69644535576897      0.72507807559985     -1.57656648735027
  N   0.81761105261377      1.58877661575960     -2.36450888113566
  C   1.43987091146579     -0.09782569798366      0.61541040922207
  H   1.27050921520982      0.88012216442765      1.07192434702967
  H   1.28341339532682     -0.88103262380527      1.35859733616951
  H   2.47302226174906     -0.14025119298465      0.26971874978236
  N   -1.50350543453847      1.04612261396850      0.28510165259392
  H   -1.04461185662327      1.36864062714803      1.12625565970437
  H   -1.41780104863601      1.73980411629116     -0.44687227858111
  C   -1.26217922885792     -1.23337072845287      0.90856656632368
  N   -1.42965856728992     -1.99846653038220      1.78280717981883
