15
Coordinates from ORCA-job run
  C   0.60667655813026     -0.35036098998929     -0.48374004963802
  C   -0.91556734636135     -0.29015006836086     -0.19843591739110
  Cl  1.04280882212232     -2.06272668633543     -0.79337620763991
  H   -1.42103111278297     -0.70644733154588     -1.07504693751849
  C   0.86285121232262      0.41323172279940     -1.70522094003957
  N   1.08280341799947      1.01928538086605     -2.68709647827256
  C   1.43575560164566      0.18466096427035      0.67386096767447
  H   1.23433823548704     -0.39734402916472      1.57544375199431
  H   1.19151109449621      1.23548989813486      0.84175572900902
  H   2.49720060491119      0.10794009313110      0.43699703027516
  N   -1.31161149481449      1.09710957524305     -0.03394867471729
  H   -1.27624223672059      1.37990239948114      0.93677326680864
  H   -2.25081073173231      1.24854477993315     -0.37608455571221
  C   -1.24566264496500     -1.13668104795352      0.96150319176431
  N   -1.53301997973807     -1.74045466050937      1.92761582340323
