15
Coordinates from ORCA-job run
  C   0.61154056004486      0.25770345964323     -0.29304308462700
  C   -0.79646244277856      0.07752233118425      0.32312556765941
  Cl  0.45423748903442      0.26061092949341     -2.08258271466080
  H   -0.65166612117818      0.09161565807606      1.40985163352923
  C   1.14671788031840      1.55469789833518      0.12116146079308
  N   1.59092743605793      2.57242624695289      0.50564667032664
  C   1.54825643262172     -0.86646282210069      0.12776855421369
  H   2.52629585754500     -0.72623371723781     -0.33308119864783
  H   1.66439290592772     -0.85570832464302      1.21476973992304
  H   1.12368807665631     -1.82030364135810     -0.17856559659408
  N   -1.34255000021141     -1.21627927680478     -0.03850399424034
  H   -1.66094799610455     -1.20211646823133     -1.00048960671087
  H   -2.13761282991724     -1.43042480709241      0.55081025661601
  C   -1.66383348185493      1.22057146040948     -0.02377238074289
  N   -2.41098376616149      2.08338107337364     -0.30309530683730
