15
Coordinates from ORCA-job run
  C   0.58489651784311     -0.40352350303540     -0.36930294927936
  C   -0.96138406340109     -0.42124947207883     -0.13288576044563
  Cl  1.14726527296351     -2.10253423462524     -0.45797002399681
  H   -1.38487296206615     -1.08752816425936     -0.89219911766983
  C   0.80997337768072      0.22740498430095     -1.66981714518806
  N   0.94011242469000      0.77528459734003     -2.70150067580296
  C   1.35325833346185      0.32563469457103      0.72353007399697
  H   1.02694890812000      1.36643682782330      0.78413873955828
  H   1.18713715042190     -0.16673872345671      1.68278255986258
  H   2.42037980753303      0.31361094616699      0.50043333050524
  N   -1.62804856006562      0.85605658384652     -0.23068035507401
  H   -1.31423306339640      1.51046176149756      0.47318464029751
  H   -1.52319857289969      1.25940454045937     -1.15302241474592
  C   -1.23136716177426     -1.01011518410484      1.18492956841276
  N   -1.42686740911092     -1.44260565444539      2.25837952956925
