15
Coordinates from ORCA-job run
  C   0.62488979228773     -0.38088022976734     -0.43705365721564
  C   -0.89670561914089     -0.37526735953307     -0.14137479667335
  Cl  1.16664903328944     -2.08975169380676     -0.50206349960300
  H   -1.37785063075830     -0.95111240815724     -0.93765702514635
  C   0.82550059511651      0.21291658118487     -1.75902614845138
  N   1.00299354161159      0.68872139619187     -2.81813510198103
  C   1.42466214977115      0.36671332699712      0.61885862937354
  H   1.26683841267660     -0.09056616833199      1.59754182046716
  H   1.11392207964474      1.41319416806522      0.63827955072150
  H   2.48735198254916      0.32427643241940      0.37919137811509
  N   -1.38175508484643      0.99273622204199     -0.18145726127324
  H   -1.35871951386881      1.42091539035593      0.73494301129513
  H   -2.33082522563336      1.03035630197213     -0.52770700517928
  C   -1.16360107148182     -1.05340122410048      1.13939725017503
  N   -1.40335044121729     -1.50985073553167      2.19526285537584
