15
Coordinates from ORCA-job run
  C   0.61760472618541      0.26255425001806     -0.27507129744605
  C   -0.80535875071384      0.07412987505545      0.30315236524070
  Cl  0.50721504195438      0.27362141768052     -2.06814244052602
  H   -0.69000097117716      0.08752347485265      1.39333432109727
  C   1.13716271746920      1.55924902007222      0.15963050245447
  N   1.56943854724521      2.57503184172800      0.56233064529725
  C   1.54755437940988     -0.86023158187225      0.16429809247893
  H   1.63225924988596     -0.85722197930883      1.25432641522112
  H   1.13683304055702     -1.81383539439260     -0.16115019885987
  H   2.53768836485185     -0.71160616615374     -0.26726041490181
  N   -1.33490197830489     -1.22160380255602     -0.07496885465616
  H   -1.63040486691844     -1.20693845415238     -1.04414649929685
  H   -2.14202168149759     -1.44284085922307      0.49499499203679
  C   -1.66890552301910      1.21272067285639     -0.06678558450021
  N   -2.41316229592789      2.06844768539560     -0.37454204363955
