15
Coordinates from ORCA-job run
  C   0.53807959522512     -0.20121921983441     -0.38715986524311
  C   -0.88119252664483     -0.34930324877758      0.24895256804255
  Cl  0.70650985008682     -1.53266462922542     -1.58335561787320
  H   -0.90634332867930     -1.35387969773903      0.68774455280370
  C   0.59777486418290      1.06849312738996     -1.10798872141319
  N   0.60015642039025      2.10663941822897     -1.65920155895988
  C   1.65591855159019     -0.31855067891457      0.63874463297141
  H   1.55752936485329     -1.26389543648665      1.17709480912223
  H   1.60351479076654      0.50895478335405      1.34871489791307
  H   2.62588603851016     -0.29886267770008      0.14096946505597
  N   -2.01330373444226     -0.21124169599139     -0.63364936905823
  H   -1.98204385181450     -0.91110779344887     -1.36386971696537
  H   -2.03836748819292      0.71036634786884     -1.05480300824366
  C   -0.99787487712379      0.62629750206997      1.34172197904800
  N   -1.06524366870767      1.41897389920620      2.20508495279972
