15

C	-0.324008	0.036518	-1.515549
C	0.0	0.0	0.0
Br	0.100708	-1.7969	-2.268463
H	1.095656	0.0	0.0
C	-1.752405	0.204953	-1.786564
N	-2.904863	0.344969	-1.971964
N	0.448686	1.068822	-2.083285
H	0.363161	1.113703	-3.089979
H	1.426028	0.963342	-1.806458
N	-0.532798	-1.151847	0.694101
H	0.217151	-1.603343	1.199358
H	-1.266273	-0.893789	1.338808
C	-0.458102	1.263862	0.588724
N	-0.892756	2.218812	1.119069
Cl	3.264562	0.0	0.0
