15

C	-0.465179	0.006287	-1.457505
C	0.0	0.0	0.0
Br	-2.619822	0.010003	-1.352867
H	1.096203	0.0	0.0
C	-0.224059	1.254364	-2.167519
N	-0.047692	2.260662	-2.748613
N	0.013692	-1.098667	-2.113252
H	-0.03411	-1.922962	-1.525978
H	-0.293066	-1.226093	-3.065848
N	-0.365547	-1.279783	0.59429
H	-1.281746	-1.237016	1.02485
H	0.333376	-1.516008	1.289665
C	-0.480422	1.172611	0.733967
N	-0.838852	2.093001	1.370712
Cl	3.221732	0.0	0.0
