15

C	-0.552189	-0.019539	-1.433358
C	0.0	0.0	0.0
Br	0.016062	1.587374	-2.394362
H	1.098323	0.0	0.0
C	0.02352	-1.170517	-2.151586
N	0.365972	-2.134012	-2.73331
N	-1.99298	-0.054623	-1.384674
H	-2.373372	-0.224636	-2.308448
H	-2.228565	-0.833221	-0.773726
N	-0.477088	-1.24284	0.647484
H	0.320833	-1.869731	0.685835
H	-0.745192	-1.049861	1.604723
C	-0.497066	1.171662	0.716904
N	-0.896352	2.06864	1.362085
Cl	3.255788	0.0	0.0
