15

C	-0.332445	0.035845	-1.506951
C	0.0	0.0	0.0
Br	0.062289	-1.840801	-2.23961
H	1.102526	0.0	0.0
C	-1.752281	0.216908	-1.79185
N	-2.889522	0.381673	-2.034643
N	0.461654	1.025815	-2.093885
H	0.37059	1.068085	-3.098774
H	1.434704	0.925937	-1.806798
N	-0.623286	-1.123799	0.688324
H	-0.009775	-1.9233	0.576569
H	-0.652169	-0.91262	1.678414
C	-0.467172	1.256714	0.589618
N	-0.831358	2.243605	1.112576
Cl	3.286622	0.0	0.0
