14
Coordinates from ORCA-job run
  C   1.02801142216387     -0.05163601977741      0.12297579302302
  C   -0.30167708006392     -0.02275642960017     -0.63359936770010
  H   1.65703550878557     -0.77873340788026     -0.40647686903057
  H   -0.15678605629962      0.17184072194168     -1.69634763798377
  C   0.87333076278569     -0.51877977495150      1.50440688868430
  N   0.75846806917475     -0.96356395474511      2.58476439665196
  C   1.67373725051409      1.26134843027414      0.04831595999648
  N   2.19577277454651      2.30705623307987     -0.06284550593342
  N   -1.25919036410337      1.00415784394802     -0.11790155513609
  O   -1.07037596928944      1.43904657934778      1.01260004696921
  O   -2.16165746229074      1.29463773195036     -0.89459741313664
  N   -0.94464352442057     -1.38580682148709     -0.51465173555254
  O   -0.29151773053452     -2.28074831984598     -1.03644486164774
  O   -2.00250760096830     -1.47606281225437      0.08880186079589
