14
Coordinates from ORCA-job run
  C   0.95808473733410     -0.00836064579750      0.39086380185604
  C   -0.57069757938184      0.04720475032629      0.40829494224765
  H   1.24439358707351     -0.61891003580546      1.25689389229202
  H   -0.95152027771889      0.39437180710350      1.36888424093795
  C   1.50863654607079      1.33750742525600      0.56914469493380
  N   1.92915369552659      2.41694822184140      0.76036856147588
  C   1.48030315182473     -0.66825039347206     -0.81020880345355
  N   1.91247990254443     -1.25935770324874     -1.72780923343099
  N   -1.09845611530171     -1.35452508101577      0.20069983887873
  O   -1.73692238073854     -1.58837583165369     -0.81374705291351
  O   -0.79035193285953     -2.12990238412756      1.09715667249252
  N   -1.14688733105301      0.93549349325276     -0.64836011314116
  O   -0.43272885808390      1.21600241536004     -1.60449695645294
  O   -2.30548714523672      1.28115396198077     -0.44768448572245
