14
Coordinates from ORCA-job run
  C   0.95649498043258      0.32262082235627      0.22701941865689
  C   -0.46991901427648     -0.15878622902594      0.49870875648453
  H   1.16460243924800      1.08424343968718      0.98955682279746
  H   -0.59609840248432     -0.48665673226177      1.53063153428357
  C   1.09137823375440      0.96070474489114     -1.08660351512736
  N   1.20042937342511      1.54063670715168     -2.10144977768994
  C   1.89970933360231     -0.78385842705998      0.40629581441673
  N   2.64285222775105     -1.67173856923460      0.60151682775147
  N   -0.89620693729419     -1.28839101746065     -0.38436059966156
  O   -1.86072630858005     -1.92209872076573      0.02812512426529
  O   -0.26966593754737     -1.46314954834717     -1.42350169741320
  N   -1.41204328261069      1.00417714185335      0.28296712696054
  O   -2.22149807059306      0.93170946480501     -0.62858629954258
  O   -1.22930863482730      1.93158692341122      1.06168046381818
