14
Coordinates from ORCA-job run
  C   0.95359626398169     -0.01595765070814      0.40096626004334
  C   -0.57521197749103      0.04814062283428      0.40393607886049
  H   1.22821606725310     -0.63275823212843      1.26631245374566
  H   -0.96360901750846      0.38938719761364      1.36352645867343
  C   1.51207295564372      1.32489196930295      0.59316290603462
  N   1.94898440594971      2.39566960145071      0.79628526634365
  C   1.48216107650968     -0.67082590358462     -0.80001889949327
  N   1.91107356670562     -1.25623471401415     -1.72266775602605
  N   -1.10720063403838     -1.34928303372108      0.18009301717084
  O   -1.72316675152254     -1.57586006182473     -0.84967776361592
  O   -0.82283556273560     -2.12967427210914      1.08012199932057
  N   -1.13649330453793      0.94640704321677     -0.65174948671622
  O   -0.41538048118535      1.22103069433313     -1.60450945391415
  O   -2.29220660702421      1.30406673933881     -0.45578108042699
