14
Coordinates from ORCA-job run
  C   0.99748482359319     -0.22853336902309      0.15277904832214
  C   -0.45038168081849     -0.45911341037334     -0.28549994854935
  H   1.33350830574018     -1.17946221431965      0.58585849118557
  H   -0.54062053550156     -1.32814307926654     -0.93728567421595
  C   1.11047459123293      0.80064348780055      1.19119623908695
  N   1.20532794337658      1.57126616438775      2.07166620051707
  C   1.83153285118923      0.06682493179540     -1.01524047844612
  N   2.49763187976299      0.25106292662091     -1.96439781922121
  N   -1.04819684443732      0.70669699665260     -1.00617759152060
  O   -2.04112214069521      0.43945652774351     -1.67291953030897
  O   -0.51646651689541      1.80088063065089     -0.85326185861812
  N   -1.27931178129114     -0.73931732632016      0.94706474451007
  O   -0.96151197155699     -1.77067431246732      1.52590862161168
  O   -2.13834892369896      0.06941204611849      1.26230955564684
