15
Coordinates from ORCA-job run
  C   -0.76657721134301      0.30479181968486      0.41845103719868
  C   0.67513753635636     -0.05689960263568      0.77333228552198
  Br  -1.76802600344360      0.56284993579737      2.08196301628027
  H   1.09673474875385      0.80667711915207      1.29704666952216
  H   0.66163612594175     -0.89119702076224      1.47722412101609
  N   -1.34393514367535     -0.92992478752779     -0.28651202845975
  O   -1.59382558762877     -0.81957066429390     -1.48336697161004
  O   -1.41539468085850     -1.95732591550148      0.37202282699875
  N   -0.99371856596976      1.42670043425997     -0.42059534149075
  H   -0.47656484560566      2.23129071186435     -0.09350131090396
  H   -0.78624236477671      1.21605032507958     -1.38722376547226
  C   1.50911606907557     -0.40470696817810     -0.45619212022200
  H   1.14791072732358     -1.31198507492359     -0.94512569126436
  H   1.50921157701108      0.40479376805693     -1.18886204992000
  H   2.54453761883920     -0.58254408007236     -0.15966067719481
