15
Coordinates from ORCA-job run
  C   -0.58462951865329      0.21507364498887      0.25936704390483
  C   0.58624945141808     -0.70280070408221     -0.04242224368238
  Br  -0.64281968083391      0.72706255403400      2.14460009955049
  H   0.51521541104664     -1.57185058536968      0.61124539407534
  H   0.43659424015051     -1.06761104343234     -1.06820796755925
  N   -1.89319172178273     -0.62992370056459      0.07387137485363
  O   -1.91352732716649     -1.75327795399274      0.55753280194505
  O   -2.79887337422551     -0.09640595904811     -0.55890030239349
  N   -0.58202491761313      1.37736969098253     -0.52863933274848
  H   -0.50940563522810      1.13966552095938     -1.51139974882729
  H   -1.41323309470421      1.93499577765987     -0.38039048300791
  C   1.94062925642664     -0.01797395639921      0.08481772755697
  H   2.73496440242368     -0.72409019598223     -0.16642546172903
  H   2.01704101748934      0.84237465593239     -0.57972758751146
  H   2.10601149125249      0.32839225431406      1.10567868557298
