15
Coordinates from ORCA-job run
  C   -0.58453463138848      0.21905892665689      0.25518074693044
  C   0.58548020364388     -0.70389010917694     -0.03418033465570
  Br  -0.64456265147686      0.75224189582415      2.13416952475617
  H   0.43836514339649     -1.07789255805987     -1.05703971373417
  H   0.51077636827886     -1.56666761715994      0.62735770943618
  N   -1.89383511991510     -0.62516915735226      0.07658878074165
  O   -2.79795596493573     -0.09635988980112     -0.56259235981960
  O   -1.91761711250050     -1.74329629973265      0.57223076051659
  N   -0.57836267706994      1.37279352413899     -0.54618714473578
  H   -0.50669940468627      1.12209526935262     -1.52588872601218
  H   -1.40998373139478      1.93193016305463     -0.40545363745181
  C   1.94107617065579     -0.02093039456357      0.09049600917116
  H   2.73401286363527     -0.72935701832456     -0.15862198042179
  H   2.10745089086424      0.32852993747174      1.11012487424495
  H   2.01838965289313      0.83691332767188     -0.57718450896612
