15
Coordinates from ORCA-job run
  C   -0.70058618178971      0.16293553285543      0.29066730784972
  C   0.54366768448641     -0.67328216686815     -0.01789669181990
  Br  -0.74050288816935      0.64392865643755      2.17400750028291
  H   0.40773922966351     -1.04334032358969     -1.04265046545788
  H   0.55136433606388     -1.54118455584023      0.64641463988747
  N   -1.87862528013915     -0.78303789976209      0.00098879296981
  O   -2.13843935315156     -1.64996696754413      0.82237867139336
  O   -2.38752136974925     -0.65557596008131     -1.10845331330710
  N   -0.92304456978415      1.34983090613674     -0.46724099738525
  H   -0.90418387456978      1.15172566978792     -1.45996193036545
  H   -0.24344457436438      2.05852820296316     -0.22915135155796
  C   1.84882547590492      0.10302110682315      0.08252572543898
  H   1.87173357797570      0.93877677663917     -0.61976575497409
  H   2.68796669895533     -0.55168530344764     -0.16044690680506
  H   2.00505108866759      0.48932632549012      1.09058477385044
