12

C	-0.360343	-0.062344	-1.458254
C	0.0	0.0	0.0
Br	-2.326186	-0.242261	-1.791554
H	1.094632	0.0	0.0
H	0.064428	-0.968212	-1.888092
H	-0.392438	0.9218	0.448236
C	0.07669	1.107624	-2.212143
N	0.406055	2.052255	-2.828089
N	-0.414554	-1.232818	0.665367
H	-1.242482	-1.095382	1.228337
H	0.348607	-1.502863	1.272514
F	2.621079	0.0	0.0
