12

C	-0.376267	-0.095613	-1.451242
C	0.0	0.0	0.0
Br	-2.33213	-0.448836	-1.747695
H	1.101555	0.0	0.0
H	0.118583	-0.952043	-1.91194
H	-0.338821	-0.917875	0.4992
C	-0.062573	1.110346	-2.207664
N	0.180002	2.076047	-2.82943
N	-0.493932	1.228959	0.60547
H	-1.273858	1.059069	1.225844
H	0.266701	1.627216	1.140709
F	2.62592	0.0	0.0
