12

C	-0.37938	-0.057861	-1.453584
C	0.0	0.0	0.0
Br	-2.3504	-0.25364	-1.756514
H	1.09469	0.0	0.0
H	0.045347	-0.959243	-1.894738
H	-0.390099	0.919313	0.455434
C	0.036608	1.119209	-2.206559
N	0.352847	2.070581	-2.818877
N	-0.406931	-1.235181	0.667262
H	0.369348	-1.509676	1.256821
H	-1.222363	-1.095046	1.248625
F	2.623443	0.0	0.0
