12

C	-0.468693	-0.066811	-1.448738
C	0.0	0.0	0.0
Br	-0.045597	-1.800974	-2.262796
H	1.098361	0.0	0.0
H	0.090527	0.67485	-2.020306
H	-0.41328	-0.847946	0.560217
C	-1.90346	0.159992	-1.60139
N	-3.064473	0.331078	-1.678987
N	-0.412565	1.3142	0.505248
H	-1.1848	1.252968	1.152916
H	0.390341	1.71188	0.977521
F	2.661154	0.0	0.0
