19

C	0.0	0.0	0.0
C	-0.566868	0.043973	-1.416922
Br	1.943493	0.0	0.0
H	-1.62757	0.279233	-1.186923
N	-0.379925	1.310633	0.71695
O	-0.150495	1.360293	1.922682
O	-0.858942	2.225193	0.060775
C	-0.522648	-1.138323	0.845591
H	-1.6214	-1.040647	0.751808
H	-0.188724	-1.018438	1.875413
H	-0.148799	-2.087636	0.458772
C	-0.534816	-1.329683	-2.073758
H	-1.189729	-2.021801	-1.546088
H	0.480718	-1.741788	-2.118668
H	-0.910924	-1.232283	-3.096991
N	0.102704	1.065815	-2.222562
H	0.617883	0.639976	-2.978824
H	-0.590179	1.691905	-2.60831
F	-2.907323	0.0	0.0
