19

C	0.0	0.0	0.0
C	-0.558109	0.082896	-1.443007
Br	1.940147	0.0	0.0
H	-1.606175	0.359227	-1.225041
N	-0.368047	1.287367	0.759822
O	-0.394039	1.23702	1.983456
O	-0.556175	2.309968	0.107781
C	-0.521505	-1.167943	0.800063
H	-0.178781	-1.10695	1.831754
H	-1.62045	-1.044638	0.716013
H	-0.167379	-2.09982	0.358133
C	-0.581819	-1.295667	-2.087169
H	-0.875948	-1.162546	-3.130283
H	0.397254	-1.791346	-2.066976
H	-1.323881	-1.921203	-1.592634
N	0.072637	1.027487	-2.35508
H	0.004495	1.950404	-1.948292
H	1.058777	0.805209	-2.446215
F	-2.867546	0.0	0.0
