19

C	0.0	0.0	0.0
C	-0.345882	0.062772	-1.559946
Br	1.962182	0.0	0.0
H	0.445597	-0.577298	-1.966742
N	-0.418676	1.176468	0.872275
O	-0.480914	0.964161	2.079539
O	-0.610146	2.265659	0.348249
C	-0.546429	-1.257989	0.620433
H	-1.639297	-1.106131	0.602269
H	-0.175152	-1.397496	1.634182
H	-0.256552	-2.113244	0.004924
C	-0.189522	1.432921	-2.214195
H	0.707061	1.968204	-1.896474
H	-0.148847	1.261564	-3.292208
H	-1.061587	2.045854	-1.996537
N	-1.602831	-0.505484	-1.979567
H	-2.35125	-0.194691	-1.296056
H	-1.553587	-1.511091	-1.856841
F	-3.068336	0.0	0.0
