19

C	0.0	0.0	0.0
C	-0.534636	-0.144052	-1.474053
Br	1.949867	0.0	0.0
H	0.348257	-0.311924	-2.098636
N	-0.312466	1.39388	0.593987
O	-0.941369	1.439927	1.643719
O	0.126157	2.375759	0.000663
C	-0.508592	-1.041138	0.963577
H	-0.062195	-0.898838	1.94828
H	-0.270692	-2.026286	0.568445
H	-1.59566	-0.893538	0.992244
C	-1.29178	1.077243	-2.010749
H	-1.641008	0.812985	-3.016217
H	-2.163283	1.212022	-1.364852
H	-0.68054	1.975917	-2.084433
N	-1.365172	-1.35005	-1.527701
H	-2.220362	-1.052051	-1.0052
H	-1.632457	-1.465908	-2.500607
F	-3.038277	0.0	0.0
