19

C	0.0	0.0	0.0
C	-0.413059	-0.025021	-1.552991
Br	1.943301	0.0	0.0
H	0.445523	-0.530499	-2.009205
N	-0.394249	1.255884	0.780865
O	-0.997455	1.101047	1.835015
O	-0.043164	2.3443	0.333003
C	-0.536936	-1.20283	0.72994
H	-1.630065	-1.071403	0.702965
H	-0.228775	-2.107232	0.200522
H	-0.167377	-1.243947	1.754521
C	-0.526425	1.358529	-2.180158
H	-1.397584	1.868151	-1.7662
H	-0.689863	1.205581	-3.248716
H	0.358755	1.97346	-2.02233
N	-1.591362	-0.778965	-1.893791
H	-1.429638	-1.757118	-1.681947
H	-2.36636	-0.455131	-1.245017
F	-3.06948	0.0	0.0
