19

C	0.0	0.0	0.0
C	-0.575989	0.060769	-1.41515
Br	1.950941	0.0	0.0
H	-1.621289	0.353838	-1.185713
N	-0.356851	1.301886	0.7435
O	-0.46681	1.255474	1.961193
O	-0.456448	2.330552	0.082703
C	-0.534164	-1.151999	0.814015
H	-1.632618	-1.022966	0.735463
H	-0.185396	-1.080509	1.843394
H	-0.189287	-2.093334	0.383281
C	-0.624962	-1.324148	-2.045324
H	-0.909038	-1.218862	-3.097618
H	0.347333	-1.825023	-2.015059
H	-1.389746	-1.92241	-1.551611
N	0.179897	0.947038	-2.315333
H	-0.398607	1.066751	-3.141247
H	0.231464	1.85643	-1.876703
F	-2.921928	0.0	0.0
