19

C	0.0	0.0	0.0
C	-0.531689	-0.060274	-1.481449
Br	1.958724	0.0	0.0
H	0.352243	-0.200417	-2.110714
N	-0.317004	1.353513	0.676227
O	0.166442	2.366285	0.177704
O	-1.003939	1.336982	1.689018
C	-0.507169	-1.097001	0.898255
H	-1.594108	-0.953783	0.930453
H	-0.265408	-2.056933	0.449021
H	-0.06589	-1.009702	1.891309
C	-1.274877	1.199099	-1.935684
H	-1.600581	1.047337	-2.971065
H	-0.667528	2.10376	-1.903655
H	-2.161352	1.274687	-1.296806
N	-1.374548	-1.251871	-1.606866
H	-2.223564	-0.976981	-1.05976
H	-1.646476	-1.309099	-2.584228
F	-3.050565	0.0	0.0
