19

C	0.0	0.0	0.0
C	-0.257773	-0.049423	-1.548729
Br	1.963862	0.0	0.0
H	0.295372	0.807308	-1.946972
N	-0.376206	1.360396	0.56215
O	-0.494511	1.444446	1.779426
O	-0.490816	2.298079	-0.222818
C	-0.671658	-1.077767	0.782785
H	-0.431198	-2.033788	0.31849
H	-0.36178	-1.066019	1.82785
H	-1.760938	-0.837342	0.671186
C	-1.69016	0.053186	-2.039426
H	-2.308585	0.729526	-1.455151
H	-2.205963	-0.896807	-1.912855
H	-1.638017	0.315952	-3.105626
N	0.30891	-1.318643	-2.042045
H	1.23695	-1.179532	-2.415057
H	-0.286464	-1.657799	-2.784968
F	-3.228208	0.0	0.0
