15

C	-0.25294	0.028637	0.096931
C	-0.639291	-0.266359	-1.352501
F	0.58875	-0.941441	0.54759
H	-1.079237	-1.26199	-1.33056
H	-1.171613	0.056682	0.686834
N	0.447277	1.35159	0.266181
O	1.612068	1.359899	0.639653
O	-0.241518	2.3413	0.025318
N	0.631033	-0.375782	-2.158344
O	0.9168	-1.462816	-2.652592
O	1.285114	0.65943	-2.28072
N	-1.525842	0.63144	-2.011818
H	-1.315396	1.586178	-1.74955
H	-2.455205	0.396245	-1.662319
Cl	-3.480655	-0.841211	0.140652
