15

C	-0.381615	-0.010112	0.040358
C	-0.588991	0.225654	-1.454866
F	0.868345	-0.487304	0.288686
H	0.211496	-0.320292	-1.970649
H	-1.14832	-0.693165	0.430243
N	-0.565471	1.260706	0.828749
O	0.177654	1.455764	1.78027
O	-1.499394	1.968578	0.469885
N	-0.203338	1.679193	-1.817576
O	0.871259	2.074136	-1.374123
O	-0.929279	2.296181	-2.588134
N	-1.87619	-0.153842	-1.882684
H	-2.200563	0.424861	-2.64331
H	-2.555826	-0.196796	-1.123054
Cl	-3.403508	-1.147975	0.86241
