14

C	0.0	0.0	0.0
C	-0.482925	-0.098687	-1.445307
Br	1.953769	0.0	0.0
H	-1.566088	-0.270983	-1.324861
H	-0.005885	-0.957286	-1.928433
N	-0.613583	1.142905	0.596867
H	-1.652125	0.915251	0.476973
H	-0.415985	1.156675	1.592831
C	-0.309851	-1.274594	0.691016
N	-0.491845	-2.292512	1.25213
N	-0.161304	1.136577	-2.169594
H	-0.845464	1.227518	-2.91436
H	-0.355159	1.892842	-1.519494
H	-3.01518	0.0	0.0
