14

C	0.0	0.0	0.0
C	-0.522143	-0.056288	-1.474563
Br	1.957512	0.0	0.0
H	0.307261	-0.232608	-2.162289
H	-1.22017	-0.901426	-1.514714
N	-0.509816	1.076201	0.795293
H	-0.460515	1.89614	0.192941
H	-1.524843	0.844256	0.840892
C	-0.313345	-1.281785	0.662466
N	-0.452785	-2.341626	1.150746
N	-1.18374	1.204567	-1.784402
H	-1.350948	1.23127	-2.786032
H	-2.100262	1.097255	-1.316529
H	-2.982876	0.0	0.0
