15
Coordinates from ORCA-job run
  C   0.66304114361049      0.07608290834364      0.09648599714592
  C   -0.77784391601635      0.16833794877250     -0.41687003412807
  Br  1.78837273192498     -0.81216920804128     -1.25898015586526
  H   -1.32619125397821      0.76702971047258      0.32114589835843
  H   -0.75304280575174      0.74577024942175     -1.34652258828013
  C   1.25737517525312      1.45490487720408      0.36781483389506
  H   2.29060965718447      1.37638010802725      0.70711494187922
  H   0.66767554475389      1.95550250199791      1.14100086789168
  H   1.22916751230493      2.05124911721153     -0.54595086830867
  C   0.72271798320343     -0.74718702397667      1.30280694643593
  N   0.73574413851433     -1.37242569130660      2.29817086946918
  C   -1.48384376266095     -1.16433447757232     -0.62576005358938
  H   -2.50690118317877     -0.99240708114652     -0.96713385461080
  H   -1.53212040069093     -1.73621742146416      0.30348018364552
  H   -0.97476056447269     -1.76951651794370     -1.37680298393861
