15
Coordinates from ORCA-job run
  C   0.86536284223244     -0.07310826825488     -0.01323649940520
  C   -0.30414177198175     -0.52013553681756     -0.89912937796133
  Br  2.52806634220990     -0.30152483182837     -1.04984089306741
  H   -0.11116725858740     -1.54498274032767     -1.22742748591980
  H   -0.29364437106044      0.11043543260441     -1.79371477012214
  C   0.77422783615426      1.38667456488860      0.41983763276495
  H   -0.09692916166713      1.53047876917333      1.06275183928499
  H   0.68038677779080      2.02393074631726     -0.46185302076429
  H   1.66568521362568      1.68054108453061      0.97442261942959
  C   0.97484065201440     -0.94276744122450      1.15666484457497
  N   1.00750632661337     -1.62796331992769      2.11138406760103
  C   -1.65778768155879     -0.43983254381416     -0.19697786642578
  H   -1.93829261397058      0.58862817850904      0.03648343334540
  H   -1.66253882811511     -1.01991523598032      0.72884826987506
  H   -2.43157430369965     -0.85045885784811     -0.84921279321004
