15
Coordinates from ORCA-job run
  C   0.79206153110363     -0.09147283394814      0.12863173666441
  C   -0.52168983066512     -0.87193184273047     -0.02390808310591
  Br  1.79799769387709     -0.15323522500027     -1.56982112658133
  H   -0.27663422858148     -1.88875617446020     -0.34230589454907
  H   -0.95164048391512     -0.94981308396941      0.98229496177629
  C   0.59267333088438      1.37003714081134      0.51556983331987
  H   0.00396701610219      1.42022648237083      1.43673721329412
  H   1.55334164659597      1.85739350083318      0.68441164410769
  H   0.06619375709908      1.90389235858384     -0.27531603016986
  C   1.62891718413553     -0.76210470927558      1.12234846582315
  N   2.25932928981571     -1.29620963811515      1.95845011563352
  C   -1.53524628199709     -0.24542241843954     -0.97337575326282
  H   -1.10849137705075     -0.09064440629386     -1.96551304379116
  H   -1.90598435714722      0.71073370852466     -0.60026409661522
  H   -2.39479489025680     -0.91069285889122     -1.07893994254368
