15
Coordinates from ORCA-job run
  C   0.86500100822780     -0.06956674675795      0.00212168640211
  C   -0.28747353896076     -0.54006307289700     -0.89376379859242
  Br  2.54593665504736     -0.31231198597882     -1.00129364060717
  H   -0.08435497068518     -1.56985841505831     -1.19962716986584
  H   -0.26629295448072      0.07359459752246     -1.79986178578079
  C   0.76049792645317      1.39857161108147      0.40243354954067
  H   -0.12244607667872      1.55280150965940      1.02658011213998
  H   0.67977658198473      2.01617575878010     -0.49446500144580
  H   1.64065616432822      1.70847981084927      0.96625206493125
  C   0.95889365619344     -0.91290950345712      1.19231238195603
  N   0.98826211632964     -1.56528335248321      2.16981520036794
  C   -1.65276722089580     -0.45472945472076     -0.21493360803820
  H   -2.41402657531196     -0.87907829141059     -0.87308525062098
  H   -1.94173774514193      0.57575305335158     -0.00195964830248
  H   -1.66992502640928     -1.02057551848053      0.71947490791571
