18
Coordinates from ORCA-job run
  C   0.56495476125772     -0.69975849574764     -0.01596634080500
  C   -0.83452924233064     -0.14794287950255      0.29586211866925
  Cl  0.45662106222585     -2.45053449331730     -0.29108104660038
  H   -1.26561063602414     -0.77261052419469      1.07700263344828
  C   1.32201493268254     -0.05351409227804     -1.14896015314394
  H   0.79465719035357     -0.23196749579595     -2.08376139301339
  H   2.31896996472858     -0.48763646291791     -1.21002019105499
  H   1.42093864882494      1.01953558430183     -0.99272400667498
  N   1.32941727355093     -0.51045085900741      1.30539089681300
  O   2.35288965935543      0.16380244740274      1.27318106940706
  O   0.82807508156870     -1.01775029691880      2.30117367438901
  N   -1.72613882850239     -0.34896894841391     -0.89417375310322
  O   -1.54656939996136      0.38745699143015     -1.86299299056462
  O   -2.58606668808522     -1.22131487780938     -0.80315699149515
  C   -0.84418268030080      1.31932572460148      0.68344845923461
  H   -0.45379969566321      1.94605888208341     -0.11653727762987
  H   -1.87060529178762      1.62817880985228      0.89110435898344
  H   -0.26003611189289      1.47809098623167      1.59121093314088
