18
Coordinates from ORCA-job run
  C   0.71884890923542     -0.19245513527659      0.19395374952213
  C   -0.64650141481069      0.45282046222949     -0.06366256154854
  Cl  0.84967031280824     -0.70777275742673      1.87382451423350
  H   -0.56047287012946      1.00809076242110     -1.00097127583023
  C   0.99868275052355     -1.36472445108349     -0.73058755806328
  H   0.86136474251226     -1.06276862372323     -1.76992640203501
  H   2.02950546322894     -1.69356842531792     -0.58613899632853
  H   0.33794592437230     -2.19719299815247     -0.49416463640777
  N   1.81917539452204      0.84353217192427     -0.12148154067809
  O   1.73916108295206      1.30972439565905     -1.25270263443439
  O   2.68906675530279      1.06698962922632      0.70090098986404
  N   -0.87267224023788      1.51782309997791      0.98414673673558
  O   -0.01818627412636      2.39832840152361      1.03647598184480
  O   -1.86590535886217      1.43545378567599      1.69819515037739
  C   -1.79870131049152     -0.52589474016879     -0.10357395320979
  H   -1.69674008950271     -1.18035867596817     -0.96984634210120
  H   -2.73828630608213      0.01693137180278     -0.19741993005397
  H   -1.84395547121469     -1.12595827332312      0.80497870811334
