18
Coordinates from ORCA-job run
  C   0.56927860912657     -0.65933046901243     -0.05998019096036
  C   -0.85310094724442     -0.06771679572111     -0.14298105405035
  Cl  0.39050916149465     -2.39429107316706      0.26013415903002
  H   -1.39296785909599     -0.68790517235536     -0.85982383522363
  C   1.39449093043912     -0.46031085091025     -1.31218320707191
  H   2.35986462983895     -0.95364633998851     -1.19386135728578
  H   1.56402146137027      0.59700141312651     -1.50406263277118
  H   0.87014128056096     -0.90122163595598     -2.16042119725094
  N   1.29106549239468     -0.02412172943420      1.13688333506232
  O   1.10059797570502     -0.50197439853295      2.24658939457630
  O   1.96072622919876      0.97155089099358      0.87859089785292
  N   -0.77834123726676      1.28065736620610     -0.80513345753994
  O   -0.49461566201536      2.24472423550476     -0.09840421029135
  O   -0.98482244774354      1.30925323935824     -2.01737220641044
  C   -1.60296942514815      0.04247717596771      1.16828104135757
  H   -1.64453814780614     -0.92974533238376      1.65830371615501
  H   -1.12603078154104      0.75704443225607      1.83622274570432
  H   -2.62230926226757      0.37955504404865      0.97021805911742
