18
Coordinates from ORCA-job run
  C   0.60270447660487     -0.62060561278809     -0.03696193851477
  C   -0.83806468937258     -0.09097626664090     -0.14438640088909
  Cl  0.49944199953905     -2.35103495769924      0.35454176896765
  H   -1.31997009074716     -0.69299945717689     -0.91677695987489
  C   1.38891383803716     -0.44133756809374     -1.31614572817752
  H   0.85200319146130     -0.92520073352410     -2.13340393747609
  H   2.37172925344859     -0.90041626800749     -1.21465004244252
  H   1.52560556267019      0.61429451979343     -1.54527183037203
  N   1.33509384586676      0.05915753727846      1.12637885727152
  O   2.24300325239863      0.82835381522954      0.83161366961542
  O   0.94406635072888     -0.20191914404697      2.25633549325388
  N   -0.76712036410181      1.28931415682091     -0.73201234745716
  O   -0.30737743811573      2.17043254362530     -0.00840636178700
  O   -1.15383108400611      1.43106206506411     -1.88992255645640
  C   -1.68108664721698     -0.04888107680224      1.11497323468174
  H   -1.28618270844352      0.66879953206912      1.82997880482110
  H   -2.69800006531570      0.24215197503255      0.84196728398947
  H   -1.71192868343583     -1.03219506013374      1.58214899084670
