18
Coordinates from ORCA-job run
  C   0.58135656583689     -0.64191820802024     -0.02740016928845
  C   -0.84039977922756     -0.06470071457774     -0.14304953312476
  Cl  0.41894502723958     -2.36163839595708      0.38821323295665
  H   -1.34356849325179     -0.66145429059658     -0.90583265254186
  C   1.37266158450065     -0.50752621702473     -1.30910659475661
  H   2.33855709469718     -1.00006719174874     -1.20198614637355
  H   1.54662237601262      0.53940922323879     -1.55235437482923
  H   0.81804415634689     -0.98184829057335     -2.12013159637703
  N   1.33590760533751      0.02991422734953      1.12646117236517
  O   2.26643323761905      0.76742483209363      0.82148477371358
  O   0.93681857662698     -0.20347966815979      2.25970946759223
  N   -0.72349908118700      1.30300172726050     -0.75311056151066
  O   -0.23420210065851      2.18016010480716     -0.04441564835672
  O   -1.10795631804535      1.43823153195072     -1.91259368231216
  C   -1.67947332767691      0.02597773768426      1.11640988733418
  H   -2.68790807411217      0.34152583851827      0.83928875733348
  H   -1.73838533730287     -0.94732013752098      1.60157989972110
  H   -1.26195371275515      0.74430789127639      1.81783376845462
