18
Coordinates from ORCA-job run
  C   0.72329560182000     -0.51286101483105      0.14803255996121
  C   -0.73557197940956     -0.17030597157462      0.48547168828624
  Cl  1.04787397161180     -2.19955175790048      0.59840667111196
  H   -0.91274042018772     -0.47384493909067      1.51631429864003
  C   1.17775237975995     -0.26881835960947     -1.26901197628788
  H   1.00968553879912      0.76649596209459     -1.56159510414605
  H   0.62921520988684     -0.92439662573262     -1.94215587167507
  H   2.24286875973773     -0.48192740536615     -1.34773625548175
  N   1.53312385436910      0.36350301945317      1.11956483247966
  O   1.27573541005455      0.23657388515731      2.31032438936326
  O   2.34000679539754      1.14766692628032      0.63259455540656
  N   -1.65270886939120     -1.03179685004214     -0.33203127865065
  O   -1.75848742888710     -0.76545885544406     -1.52829198065753
  O   -2.24884759996476     -1.92734882298033      0.26074982807509
  C   -1.09185167710703      1.28782282777466      0.26141374139161
  H   -2.13671301823668      1.44731604860602      0.53511655474298
  H   -0.48089954365365      1.93253132417994      0.89513669788898
  H   -0.96373698459895      1.57340060902556     -0.78130335044869
