18
Coordinates from ORCA-job run
  C   0.70574052632948     -0.19974419763703      0.23037477400446
  C   -0.62835951615903      0.46714976195174     -0.11873215061108
  Cl  0.76936986303304     -0.58832870271185      1.94790597176810
  H   -0.49637990194198      0.94592582845886     -1.09217239397000
  C   0.97179901216217     -1.44799328224095     -0.59331279400881
  H   0.87266293614113     -1.22335735739546     -1.65634044514924
  H   1.98690629441057     -1.79647922299587     -0.39405809444346
  H   0.27778738612228     -2.23885771381971     -0.31330347987476
  N   1.85024364649911      0.77237691512840     -0.12768949335084
  O   2.70347632492385      1.02906672157351      0.70230234560155
  O   1.81892624006518      1.15339336260269     -1.29260196290549
  N   -0.84903094095596      1.61652316286003      0.83748888006992
  O   0.03445645795809      2.46934241930338      0.85238434565686
  O   -1.86703269409632      1.62317052811796      1.52054509145305
  C   -1.81166125969540     -0.47452565384912     -0.12025499172887
  H   -1.90534031630306     -0.99850856055527      0.83064816450942
  H   -2.72868929551807      0.08880121109303     -0.28774023787884
  H   -1.70587476297511     -1.19895521988437     -0.92844352914203
