18
Coordinates from ORCA-job run
  C   0.58367893290265     -0.65973480400639     -0.18251556272251
  C   -0.87351084158295     -0.20451459707631     -0.01067636286668
  Cl  0.62747819180604     -2.10415217412645     -1.21410908456344
  H   -1.45458917483423     -1.07513652098759      0.29024061192755
  C   1.56802305517750      0.36121631489222     -0.69530346428350
  H   2.56806695184292     -0.07007662964381     -0.69460909133306
  H   1.29866279836425      0.64343908142393     -1.71096895760368
  H   1.57402096749418      1.24988052526469     -0.06611848323668
  N   0.98603675237457     -1.11712398687979      1.23034036781969
  O   0.27965971437345     -1.97417200893525      1.74678197407589
  O   1.95011283592473     -0.56442043497799      1.74837672787338
  N   -1.43431007550605      0.18918456296073     -1.34565752863753
  O   -2.25540190472096     -0.57282569640072     -1.84977301765851
  O   -1.04984767915676      1.25406258302399     -1.82663514791034
  C   -1.04712899561968      0.94835447530985      0.96104802135473
  H   -2.10706983009998      1.20064534865447      1.03108448979529
  H   -0.50534898383419      1.83297615158005      0.63074271736400
  H   -0.70753271490552      0.66239780992437      1.95775179060545
