18
Coordinates from ORCA-job run
  C   0.61731578992872     -0.40740305061294     -0.51116286376011
  C   -0.85184930322688     -0.02227941134974     -0.28082024713400
  Cl  0.88460322229597     -0.68895823340952     -2.24388499504580
  H   -1.46786035177262     -0.76816643697273     -0.78109575342192
  C   1.66667355981050      0.53737265512506      0.01833517114829
  H   2.65431557321932      0.11019388386945     -0.14941894974827
  H   1.59274391663508      1.48872517730921     -0.50440367727897
  H   1.53943597586846      0.70464334283796      1.08680594724635
  N   0.74427432180404     -1.77664862143865      0.17894546993381
  O   -0.04329796354948     -2.64274813449952     -0.18145790186593
  O   1.58942184739935     -1.88784877443463      1.06016810363632
  N   -1.14951508258189      1.26310287298247     -0.99615242825946
  O   -1.84893032498904      1.18879894606143     -2.00315837631547
  O   -0.69860565118804      2.29793111327574     -0.50737818120431
  C   -1.22522858185170      0.12503568979315      1.18269121002136
  H   -2.28501847367222      0.37632556846903      1.25862491954012
  H   -0.65055380069282      0.91621816842834      1.66128188895003
  H   -1.06792467343675     -0.81429475543408      1.71508066355795
