14
Coordinates from ORCA-job run
  C   0.70944863734069     -0.69334317514739      0.28006239847870
  C   -0.16500800859597      0.54545094132645      0.24717898703582
  F   -0.01036778556171     -1.81198942603763      0.46302329206328
  H   0.42356376854327      1.45785919881351      0.29899697816913
  H   1.45162813273841     -0.59599282606707      1.07541569817940
  N   1.48545283585913     -0.77725471955292     -1.01661197547659
  O   1.59955787098888     -1.86907415438414     -1.54186268058484
  O   1.97133373192610      0.29118126070569     -1.37488149916036
  N   -1.04494764547071      0.50004964425042      1.47264523922441
  O   -2.24319176666668      0.32407346716533      1.32156704191630
  O   -0.42572119200703      0.62364873128102      2.52216263630114
  N   -1.03502298328938      0.63924099279654     -0.96301203230451
  O   -1.54578331755037      1.73816940219208     -1.14240819616575
  O   -1.17094227825463     -0.37201933734189     -1.64327588767614
