14
Coordinates from ORCA-job run
  C   0.91048286214938     -0.29528441048075      0.28832939696391
  C   -0.57996886039842     -0.09856989251939      0.13489617093265
  F   1.11614219788229     -1.17057659210052      1.30896987955477
  H   -1.10524705857018     -1.02041706283988     -0.10024687180181
  H   1.45126416147962      0.63063105112327      0.46632422385411
  N   1.47750419423105     -0.92530042898662     -0.95531644707045
  O   0.71876936962732     -1.62519582502248     -1.62110413847448
  O   2.66881136532959     -0.72382131024713     -1.15436628247242
  N   -0.89019382525520      0.90963278948563     -0.92872478590567
  O   0.06290279238821      1.42545831431112     -1.50477872761296
  O   -2.08003794804252      1.12740594074636     -1.11321919766861
  N   -1.12277886475925      0.45193765042245      1.41943483326639
  O   -2.00164143284312     -0.19646659832384      1.97215413520867
  O   -0.62300895321877      1.51056637443179      1.78864781122588
