14
Coordinates from ORCA-job run
  C   0.65418630196803     -0.91709245692293      0.13196024584887
  C   -0.65350974213726     -0.18080596912404      0.35470949701451
  F   0.38658676203922     -2.07879133779146     -0.50006678212517
  H   -1.33327637322681     -0.82485714287392      0.91299955687352
  H   1.14010717309768     -1.10675614579579      1.09025576483298
  N   1.64364379280398     -0.11190971475542     -0.68193031745627
  O   1.83097331851240      1.01736817252519     -0.24643809622220
  O   2.18551977048750     -0.65814197892766     -1.62423845693174
  N   -1.35204270864968      0.18304768024184     -0.91460939185459
  O   -0.65451932970012      0.40855368880892     -1.89708866063871
  O   -2.57380267472773      0.24167619784877     -0.83561122703475
  N   -0.46606034784900      1.06075481650889      1.19156456304006
  O   0.00722264410221      0.83636831377229      2.29687083991412
  O   -0.81402858672042      2.13058587648530      0.72162246473937
