14
Coordinates from ORCA-job run
  C   0.95723190941812     -0.24933514580306      0.14797049632366
  C   -0.53899500609819     -0.07240196438188      0.26423906178830
  F   1.38577940023604     -0.94266958230930      1.23662196315773
  H   -1.07525754027912     -1.01673365661597      0.30106001261243
  H   1.49611815580326      0.69043919099786      0.05927493969527
  N   1.28424241202844     -1.08018481195725     -1.06355864028674
  O   2.41873363541715     -0.94600342590851     -1.50439770016997
  O   0.41590379966337     -1.85143983920290     -1.46372508084387
  N   -1.08158051631253      0.73840712667950     -0.87202039492705
  O   -0.27193663416947      1.17266473581325     -1.68572430841678
  O   -2.29456026195484      0.90043984735256     -0.86751657853628
  N   -0.83175209443558      0.69689521988354      1.51778171953290
  O   -0.29653756674446      1.79888989965287      1.59463536569496
  O   -1.56738969257218      0.16103240579930      2.33635914437546
