17
Coordinates from ORCA-job run
  C   -0.45910925371040      0.13311765264471     -0.29021740569633
  C   0.90977568706692     -0.23444639223268      0.31282903445485
  Cl  -0.27866320248109      0.13997980427674     -2.08713221272319
  H   0.76251602411413     -0.24903603018525      1.40011574781563
  C   -1.49474807948938     -0.91452850917745      0.08110892478062
  H   -1.17819045709852     -1.90407384336171     -0.24212038713707
  H   -1.62538267303187     -0.92694580818410      1.16786703746556
  H   -2.45300280711840     -0.66926162500469     -0.38023225555286
  C   -0.88700758666110      1.52600771866447      0.14063744867738
  H   -0.17570199908294      2.28499777943448     -0.18758760536769
  H   -1.86342257696097      1.76226080350684     -0.28580735928348
  H   -0.96778821187023      1.56577766351482      1.23167580462701
  C   1.90921116638905      0.81715860173329      0.03114736156678
  N   2.73379983159803      1.63145943717013     -0.16237525442736
  N   1.33401752277323     -1.56640167129900     -0.08698964386583
  H   2.16367879228873     -1.83191667904509      0.42997415012458
  H   1.57001782327480     -1.56414890245549     -1.07289338545860
