17
Coordinates from ORCA-job run
  C   -0.57628930402993     -0.11842715099692     -0.35011618113799
  C   0.86750633530093     -0.61828877126011     -0.11917698015234
  Cl  -1.07376298176141     -0.73671919739663     -1.96407214054189
  H   0.85887338204304     -1.70081492691177     -0.28166290266202
  C   -1.52382364552150     -0.70880474491210      0.68284662597840
  H   -1.44612975434967     -1.79857296260631      0.70735639657187
  H   -1.29930549076434     -0.31693658556049      1.67792019962843
  H   -2.55316660925739     -0.44814512396282      0.43115410286532
  C   -0.64073391905717      1.39827871362029     -0.37788429561086
  H   -0.02958895524944      1.79481466669115     -1.18911199917792
  H   -0.29430285169263      1.80657135446769      0.57711763659348
  H   -1.66980339411873      1.72486984957469     -0.53732670292197
  C   1.24546211963709     -0.37869196165767      1.28938977858255
  N   1.58343822247181     -0.13669898527832      2.38880340491946
  N   1.80871303201662     -0.02786743296595     -1.05753304330405
  H   2.11499963280883      0.88065635069486     -0.73202667026416
  H   2.62791418152389     -0.61522309153959     -1.14567722936630
