17
Coordinates from ORCA-job run
  C   -0.55303079053386     -0.03351413511803      0.33166101398463
  C   0.89674975963262     -0.58252596191458      0.42585681744699
  Cl  -1.29762502449850     -0.31710301230822      1.94821912935661
  H   0.82197691397545     -1.61162228787655      0.79526970010179
  C   -0.59515602061599      1.45718815100386      0.04490591829114
  H   -1.63047555836086      1.80037436373540      0.00463872427073
  H   -0.07486186099680      2.02411568783646      0.81824467871042
  H   -0.13270689236702      1.66961830527625     -0.92365822198907
  C   -1.35264855759222     -0.82662032332355     -0.69007454092339
  H   -1.29243087714730     -1.89923672634680     -0.48902820134231
  H   -2.40262261998593     -0.53243942421314     -0.65083566386426
  H   -0.98614004632171     -0.62885886191745     -1.70039988234065
  C   1.66510267907192      0.18354119328946      1.41876968312200
  N   2.28103742695673      0.83375171199884      2.17717854205715
  N   1.65883926241545     -0.61430069545486     -0.81076130569096
  H   1.76250345070270      0.30873362259304     -1.21162291320806
  H   1.23048875566532     -1.23210160726013     -1.48636347798276
