17
Coordinates from ORCA-job run
  C   -0.47415257085687      0.14758079446118     -0.25788636126119
  C   0.92498374558255     -0.23761619568777      0.25815430809853
  Cl  -0.36475846913849      0.32187673398231     -2.05227442743933
  H   0.81938742340692     -0.35736346310420      1.34377752473565
  C   -1.47078938202653     -0.95574823942691      0.05399323286268
  H   -2.45145960762686     -0.69510348676865     -0.34793968727553
  H   -1.55906619730811     -1.06928274693879      1.13918078993040
  H   -1.14441390102389     -1.90356056640179     -0.36916515526101
  C   -0.91542662619862      1.48440677219205      0.31386954458928
  H   -0.95392606346969      1.42353433464153      1.40627101038512
  H   -1.91283413949533      1.73344237878904     -0.05248345636406
  H   -0.23440081229795      2.28773420575825      0.02973947041401
  C   1.88924852412937      0.86077661080717      0.03867319996804
  N   2.69836771731974      1.69450100337790     -0.13680694124070
  N   1.36519468916180     -1.51440541029862     -0.27985017827018
  H   2.21890384391980     -1.80529949191150      0.18128661398958
  H   1.56514182592217     -1.41347323347120     -1.26853948786130
