17
Coordinates from ORCA-job run
  C   -0.57441732616635     -0.11044564729652     -0.35557840300521
  C   0.85696505090744     -0.63525726298023     -0.10404725676144
  Cl  -1.06469686862291     -0.73107611084220     -1.97074797998623
  H   0.82986778711528     -1.71902690032099     -0.25601779616367
  C   -1.54467846293972     -0.67592628008148      0.67017558806739
  H   -1.48953735955455     -1.76686304960193      0.70069495204773
  H   -1.32290391582865     -0.28367086328268      1.66561618985729
  H   -2.56569712683987     -0.39577365439082      0.40612669808548
  C   -0.61036795937065      1.40694842780810     -0.39456161214766
  H   -0.26955598733425      1.81554888394543      0.56230902428248
  H   -1.63098872469375      1.75114464639605     -0.57039879997657
  H   0.01884336916201      1.78665124737983     -1.20001337049513
  C   1.22420278811557     -0.38837589965964      1.30614755097219
  N   1.55592788566164     -0.13953949716304      2.40593860687919
  N   1.81945356860465     -0.07188421166826     -1.03772295978062
  H   2.13900827325296      0.83396338414213     -0.71724232974035
  H   2.62857500853114     -0.67541721238374     -1.10967810213486
