17
Coordinates from ORCA-job run
  C   -0.41442448334966      0.35286751318799      0.12937791671474
  C   0.85237794437419     -0.49163703190209     -0.10402410078336
  Cl  0.07135366319302      1.81503184430802      1.07179394591447
  H   0.52866725500977     -1.35782188301105     -0.69478976295920
  C   -0.99164092301925      0.81192886490558     -1.19867416126352
  H   -0.25098803810146      1.36560535476743     -1.77206637602369
  H   -1.30312953090036     -0.06140765055624     -1.78054594858117
  H   -1.86547495507661      1.44256908708544     -1.02579664154548
  C   -1.43514946515360     -0.41444507321563      0.95292850844021
  H   -2.32944660515601      0.19444329990843      1.09624289512149
  H   -1.72152328755390     -1.32986353586753      0.42519307824482
  H   -1.04082840193645     -0.68235161927111      1.93402153971083
  C   1.37944635247924     -1.01572664914348      1.17360305898475
  N   1.84797454949756     -1.43494141877245      2.16621192586974
  N   1.84141879364220      0.22683534930979     -0.89079440158457
  H   2.23558127544814      0.97726092464765     -0.33477144363821
  H   2.59578585660308     -0.39834737638079     -1.14791003262187
