17
Coordinates from ORCA-job run
  C   -0.39425471658862      0.17908833556591     -0.26677729372898
  C   0.99752674839644     -0.22620660283587      0.28628756679891
  Cl  -0.24715008498436      0.34379580015817     -2.05555714676469
  H   0.86838123988450     -0.32079444543841      1.37294286824061
  C   -1.41495752867179     -0.90959380494540      0.02226259653099
  H   -2.39252113884108     -0.61841199867486     -0.36522026812008
  H   -1.50266928095231     -1.05983725048507      1.10323183287063
  H   -1.13809599657820     -1.85379394605746     -0.44779259456915
  C   -0.83755300705704      1.51793775872313      0.29919973251755
  H   -0.89667714477157      1.45643121407984      1.39078481585887
  H   -0.14160978412180      2.31332965796421      0.03052046884681
  H   -1.82502623328791      1.77987059182906     -0.08516755867462
  C   1.96489174363887      0.86138425795874      0.07133291940154
  N   2.72713467248347      1.73716187554679     -0.10040587226787
  N   1.57967974234205     -1.46662818636095     -0.18711633378621
  H   1.61364494877074     -1.47472804721541     -1.19950317585472
  H   1.03825582033862     -2.25900520981246      0.13097744270039
