17
Coordinates from ORCA-job run
  C   -0.49420489728427     -0.11875102033711     -0.32330404714235
  C   0.92643776695355     -0.65062683323366      0.01662177776340
  Cl  -0.85687553353627     -0.72716772280881     -1.98552285103040
  H   0.87168958000760     -1.74442912043887     -0.03550230903835
  C   -1.52992635527055     -0.70886777424819      0.61931671439524
  H   -2.53437972299006     -0.42677694566322      0.29872447207729
  H   -1.37164274736103     -0.33615668170052      1.63429645993789
  H   -1.46963565432400     -1.79968488542257      0.63148994497781
  C   -0.55080460754287      1.39736293150983     -0.35034699971520
  H   0.14368872107895      1.80991086363967     -1.08351978050665
  H   -0.30686800691344      1.79672236337210      0.63843833733330
  H   -1.55488738123125      1.72964492100636     -0.61934884560481
  C   1.23394109260241     -0.29090219011545      1.40885782975628
  N   1.43986232097792      0.01167856952214      2.52437465497943
  N   2.03224700762736     -0.23201086392864     -0.82392010013158
  H   1.84146608598805     -0.47764087382683     -1.78739450569191
  H   2.17789233121790      0.76769526267378     -0.76326075235937
