17
Coordinates from ORCA-job run
  C   -0.49682042483714     -0.12794685488015     -0.31758905806338
  C   0.92590190284730     -0.65296707658612      0.02513804578245
  Cl  -0.86685062923256     -0.76770089963142     -1.96671968906785
  H   0.87121252928239     -1.74751486069276     -0.00846374914569
  C   -1.52727172166525     -0.70115993312490      0.64082211436385
  H   -1.46648568769208     -1.79154145185840      0.67276413074173
  H   -2.53342089390569     -0.42535620242279      0.32004344112665
  H   -1.36402487627417     -0.30949777616742      1.64789118638781
  C   -0.55445803358823      1.38728569321548     -0.37307520267171
  H   0.13632930512696      1.78622240746913     -1.11719771916533
  H   -0.30603628026323      1.80541140170133      0.60672885783517
  H   -1.56002749101764      1.71358413337763     -0.64385708362477
  C   1.23961154626915     -0.26517751407383      1.40822898554085
  N   1.46562339505055      0.10080605050601      2.50065796973293
  N   2.02819123286661     -0.24866094575502     -0.82670688123594
  H   1.83283327047128     -0.50960516750597     -1.78526318561728
  H   2.17469285656167      0.75181899642920     -0.78240216291952
