18

C	-0.405303	0.004481	-1.469138
C	0.0	0.0	0.0
Br	-2.368148	-0.076092	-1.670495
H	1.096334	0.0	0.0
N	0.111954	1.327703	-2.069041
O	1.33599	1.410684	-2.092664
O	-0.667519	2.171534	-2.502095
C	0.215124	-1.133774	-2.261958
H	1.297707	-1.099725	-2.11946
H	-0.170623	-2.083784	-1.888985
H	-0.03783	-1.041952	-3.321378
C	-0.441088	-1.236507	0.611224
N	-0.779608	-2.236507	1.131403
C	-0.48765	1.212238	0.784659
H	-0.110922	1.15059	1.808201
H	-0.087632	2.129595	0.345082
H	-1.579563	1.274125	0.809786
Cl	2.859026	0.0	0.0
