18

C	-0.404487	0.004964	-1.472681
C	0.0	0.0	0.0
Br	-2.345876	-0.032992	-1.725106
H	1.096348	0.0	0.0
N	0.127304	1.31724	-2.080474
O	-0.64262	2.155028	-2.533896
O	1.348377	1.418761	-2.041495
C	0.207631	-1.137186	-2.268847
H	1.291726	-1.114065	-2.144167
H	-0.177738	-2.086964	-1.895697
H	-0.045663	-1.048501	-3.328544
C	-0.440791	-1.237315	0.612899
N	-0.781476	-2.239271	1.13275
C	-0.493748	1.21215	0.783144
H	-0.096649	2.132299	0.346757
H	-0.12375	1.148785	1.809016
H	-1.584828	1.271728	0.806958
Cl	2.691967	0.0	0.0
