18

C	-0.558277	-0.011931	-1.426929
C	0.0	0.0	0.0
Br	0.298059	1.390225	-2.479399
H	1.092865	0.0	0.0
N	-0.175128	-1.322063	-2.129481
O	0.678458	-2.021613	-1.6018
O	-0.758199	-1.566673	-3.183614
C	-2.062365	0.139617	-1.517981
H	-2.382359	0.084197	-2.556048
H	-2.360529	1.101822	-1.102818
H	-2.541414	-0.663514	-0.949722
C	-0.515769	-1.170636	0.708874
N	-1.017234	-2.06857	1.277877
C	-0.403192	1.259097	0.783879
H	-0.086666	2.151152	0.242702
H	-1.475526	1.308583	0.986787
H	0.132483	1.242896	1.734463
Cl	3.308632	0.0	0.0
