18

C	-0.53378	0.009109	-1.434538
C	0.0	0.0	0.0
Br	0.291334	1.520245	-2.353717
H	1.106109	0.0	0.0
N	-0.184423	-1.267666	-2.209575
O	-0.373444	-2.30386	-1.602327
O	0.187676	-1.184056	-3.366759
C	-2.046628	0.126699	-1.585959
H	-2.406588	1.085157	-1.223748
H	-2.513355	-0.690141	-1.032236
H	-2.292661	0.040146	-2.645218
C	-0.22881	-1.135556	0.876539
N	-0.073115	-1.758911	1.861007
C	-0.464386	1.237909	0.784496
H	-0.1678	2.153683	0.277994
H	-1.546458	1.23988	0.94531
H	0.025979	1.212769	1.75698
Cl	3.030861	0.0	0.0
