18

C	-0.377771	-0.005078	-1.491028
C	0.0	0.0	0.0
Br	-2.307762	-0.250239	-1.759092
H	1.094	0.0	0.0
N	-0.034811	1.373975	-2.062054
O	1.028639	1.46044	-2.668674
O	-0.804481	2.301346	-1.835607
C	0.382613	-1.07394	-2.242788
H	1.448048	-0.94659	-2.035485
H	0.060463	-2.052717	-1.885158
H	0.193832	-1.003939	-3.315126
C	-0.441816	-1.259937	0.589342
N	-0.826818	-2.246699	1.097619
C	-0.496418	1.179793	0.834881
H	-0.220686	1.002057	1.87618
H	-1.579209	1.300852	0.762642
H	-0.007985	2.099135	0.51391
Cl	3.283112	0.0	0.0
