18

C	-0.400906	0.007424	-1.493244
C	0.0	0.0	0.0
Br	0.102012	-1.696807	-2.315742
H	1.106189	0.0	0.0
N	-1.906295	0.140988	-1.548638
O	-2.595031	-0.832667	-1.017357
O	-2.351557	1.359016	-1.398462
C	0.278128	1.105363	-2.308781
H	-0.000961	2.102118	-1.954272
H	1.362306	0.977927	-2.20984
H	0.004073	1.022003	-3.368008
C	-0.363788	-1.240535	0.807691
N	0.112722	-1.57029	1.854166
C	-0.463403	1.225594	0.787964
H	-0.210218	2.157195	0.265667
H	-1.545542	1.199052	0.984489
H	0.056831	1.242461	1.757126
Cl	2.63646	0.0	0.0
