18

C	-0.337246	-0.025391	-1.495637
C	0.0	0.0	0.0
Br	0.346151	-1.706794	-2.260528
H	1.112804	0.0	0.0
N	-1.843998	-0.090879	-1.822363
O	-2.556392	-0.771395	-1.115195
O	-2.232257	0.613511	-2.759815
C	0.263132	1.143598	-2.230105
H	1.325453	1.178122	-1.97896
H	-0.22335	2.066125	-1.902006
H	0.119208	1.04496	-3.301733
C	-0.663663	-1.014259	0.794929
N	-1.479744	-1.505801	1.513095
C	-0.408048	1.331004	0.680601
H	-1.490231	1.485245	0.645559
H	-0.121405	1.242034	1.729194
H	0.121935	2.184922	0.263835
Cl	3.07265	0.0	0.0
