13

C	-0.55337	0.008708	-1.402
C	0.0	0.0	0.0
Cl	0.219837	1.32265	-2.341762
H	1.091342	0.0	0.0
H	-0.285269	0.947737	0.469582
N	-0.228314	-1.306963	-2.127081
O	0.645471	-2.006946	-1.638573
O	-0.847688	-1.505606	-3.167948
C	-2.00122	0.189833	-1.481371
N	-3.163337	0.372499	-1.48563
C	-0.539497	-1.10119	0.77389
N	-0.943992	-1.994794	1.423101
H	2.607489	0.0	0.0
