15

C	0.0	0.0	0.0
C	-0.459777	-0.141647	-1.444506
F	1.419965	0.0	0.0
H	-0.062572	-1.106276	-1.801336
N	-0.405609	1.228362	0.579541
H	-0.234411	1.953893	-0.108305
H	0.153281	1.397779	1.41942
C	-0.398322	-1.146654	0.837506
N	-0.491842	-2.097204	1.518425
N	0.117184	0.996436	-2.185498
H	1.08867	0.798173	-2.40175
H	-0.402763	1.069368	-3.051372
C	-1.939621	-0.14008	-1.693937
N	-2.649607	-0.244651	-2.653668
F	-2.588596	0.0	0.0
