15

C	0.0	0.0	0.0
C	-0.250607	-0.144014	-1.577627
F	1.397794	0.0	0.0
H	0.124961	0.839972	-1.896723
N	-0.573757	1.189628	0.453701
H	-0.228614	1.498045	1.364215
H	-1.610106	0.988072	0.375783
C	-0.386769	-1.250619	0.709876
N	-0.672042	-2.267872	1.221104
N	-1.562835	-0.429413	-2.127569
H	-1.65477	-1.429582	-2.259969
H	-2.266912	-0.184642	-1.398432
C	0.706223	-1.154287	-2.083016
N	1.459656	-1.961653	-2.498655
F	-2.850959	0.0	0.0
