15

C	-0.485538	0.01445	-1.434777
C	0.0	0.0	0.0
Br	0.339348	1.47277	-2.423403
H	1.092083	0.0	0.0
H	-0.348757	0.940311	0.4423
N	-0.098122	-1.315211	-2.099043
O	1.036974	-1.443414	-2.520101
O	-0.972024	-2.181819	-2.072029
C	-1.933503	0.163244	-1.572914
N	-3.097623	0.328742	-1.610244
C	-0.520113	-1.199533	0.783288
H	-0.2251	-1.068413	1.827351
H	-0.042707	-2.118356	0.435941
H	-1.607277	-1.332389	0.742002
F	2.599352	0.0	0.0
