15

C	-0.430618	0.018858	-1.443623
C	0.0	0.0	0.0
Br	0.394911	-1.407254	-2.479313
H	1.092932	0.0	0.0
H	-0.347658	0.944533	0.43692
N	-1.964544	-0.142152	-1.51536
O	-2.441746	-1.261112	-1.641377
O	-2.598129	0.888918	-1.300597
C	-0.107173	1.27976	-2.103059
N	0.144707	2.295501	-2.637654
C	-0.513826	-1.193994	0.78678
H	-1.598691	-1.195096	0.945442
H	-0.237379	-2.128991	0.295216
H	-0.020936	-1.184636	1.761723
F	2.583054	0.0	0.0
