15

C	-0.426134	0.040823	-1.443436
C	0.0	0.0	0.0
Br	0.388149	-1.382397	-2.495383
H	1.092923	0.0	0.0
H	-0.343272	0.938444	0.454519
N	-1.96475	-0.092496	-1.5242
O	-2.578756	0.942953	-1.271202
O	-2.464898	-1.195082	-1.693254
C	-0.083783	1.304967	-2.087321
N	0.191448	2.323591	-2.604243
C	-0.513268	-1.208246	0.765822
H	-0.233439	-2.136435	0.261186
H	-1.599133	-1.209569	0.916236
H	-0.028691	-1.213548	1.74529
F	2.589376	0.0	0.0
