15

C	-0.244877	-0.009509	-1.457942
C	0.0	0.0	0.0
Br	-2.188059	0.171422	-2.012996
H	1.096661	0.0	0.0
H	-0.372115	0.939935	0.411032
N	0.423038	1.203024	-2.114994
O	1.045169	1.00909	-3.151727
O	0.254508	2.276878	-1.559363
C	0.226637	-1.221327	-2.114898
N	0.545766	-2.246242	-2.593736
C	-0.519423	-1.225986	0.724781
H	-0.290161	-1.128296	1.788524
H	-1.600395	-1.372435	0.615537
H	-0.00436	-2.121681	0.369459
F	2.544846	0.0	0.0
