15

C	-0.252252	-0.028231	-1.456031
C	0.0	0.0	0.0
Br	-2.198618	0.142949	-2.001383
H	1.096776	0.0	0.0
H	-0.369839	0.945472	0.400645
N	0.408782	1.178688	-2.13062
O	0.24327	2.258659	-1.585335
O	1.022681	0.974381	-3.170538
C	0.217803	-1.246959	-2.101603
N	0.53756	-2.277981	-2.566746
C	-0.517999	-1.215605	0.743132
H	-0.011168	-2.117758	0.393308
H	-1.600192	-1.357915	0.645964
H	-0.278129	-1.106896	1.803109
F	2.546079	0.0	0.0
