15

C	-0.484508	0.031265	-1.433743
C	0.0	0.0	0.0
Br	0.374772	1.47317	-2.418978
H	1.092048	0.0	0.0
H	-0.344672	0.937115	0.451989
N	-0.125225	-1.303656	-2.099634
O	1.019325	-1.465888	-2.48252
O	-1.025869	-2.142704	-2.103059
C	-1.927662	0.215919	-1.574374
N	-3.086671	0.415178	-1.601165
C	-0.522789	-1.205192	0.77336
H	-0.044406	-2.120918	0.419025
H	-1.610047	-1.337938	0.732124
H	-0.227612	-1.083429	1.818386
F	2.598284	0.0	0.0
