15

C	-0.42663	0.005566	-1.43892
C	0.0	0.0	0.0
Br	0.16855	-1.607212	-2.357654
H	1.093155	0.0	0.0
H	-0.370281	-0.928228	0.445961
N	-1.966489	0.027248	-1.528273
O	-2.556062	-0.951425	-1.090167
O	-2.494937	1.062828	-1.928264
C	0.078909	1.155289	-2.183069
N	0.485172	2.082753	-2.77961
C	-0.503689	1.227457	0.748457
H	-0.13779	2.143972	0.278042
H	-0.083479	1.199922	1.756763
H	-1.595667	1.289564	0.832881
F	2.586231	0.0	0.0
