15

C	-0.424922	0.018302	-1.446534
C	0.0	0.0	0.0
Br	0.373612	-1.432136	-2.46824
H	1.092999	0.0	0.0
H	-0.344739	0.948822	0.429888
N	-1.961487	-0.111004	-1.522296
O	-2.460685	-1.220219	-1.655262
O	-2.573884	0.93327	-1.304047
C	-0.074185	1.268889	-2.111508
N	0.198907	2.27638	-2.652334
C	-0.527635	-1.185715	0.789873
H	-0.250685	-2.125492	0.307823
H	-0.046155	-1.172554	1.770628
H	-1.614368	-1.180128	0.93687
F	2.586318	0.0	0.0
