15

C	-0.413394	-0.010054	-1.443189
C	0.0	0.0	0.0
Br	0.174651	-1.642129	-2.332578
H	1.093165	0.0	0.0
H	-0.375157	-0.921538	0.455816
N	-1.951543	0.032405	-1.546774
O	-2.560554	-0.948356	-1.142478
O	-2.458343	1.089583	-1.916488
C	0.114812	1.121695	-2.198249
N	0.537378	2.035608	-2.804015
C	-0.500498	1.241068	0.729211
H	-0.091214	1.221354	1.741889
H	-0.120642	2.147409	0.250623
H	-1.592664	1.314508	0.800374
F	2.584472	0.0	0.0
