14

C	-0.541867	0.002427	-1.419893
C	0.0	0.0	0.0
Br	-0.145289	1.731811	-2.249827
H	1.087954	0.0	0.0
H	-1.628203	-0.094382	-1.441269
C	0.072987	-1.031445	-2.242739
N	0.500739	-1.856496	-2.960588
N	-0.504406	-1.186637	0.728889
O	-0.94762	-2.12888	0.067031
O	-0.410342	-1.163578	1.953274
N	-0.571189	1.161435	0.744507
O	-1.790881	1.330214	0.642058
O	0.186683	1.853578	1.411505
F	2.448093	0.0	0.0
