14

C	-0.551766	-0.026726	-1.412795
C	0.0	0.0	0.0
Br	-0.02679	1.624641	-2.325818
H	1.087968	0.0	0.0
H	-1.641148	-0.044454	-1.432251
C	-0.013315	-1.143211	-2.179078
N	0.371066	-2.038046	-2.834706
N	-0.504213	-1.170249	0.763435
O	-0.243533	-1.202186	1.961754
O	-1.130229	-2.039259	0.150062
N	-0.548852	1.179082	0.73812
O	-1.706536	1.517541	0.469331
O	0.164295	1.708728	1.580108
F	2.44779	0.0	0.0
