14

C	-0.521937	-0.088025	-1.422369
C	0.0	0.0	0.0
Br	0.557512	-1.256666	-2.556519
H	1.089885	0.0	0.0
H	-0.398095	0.899024	-1.864611
C	-1.924533	-0.472089	-1.539268
N	-3.053808	-0.778313	-1.646297
N	-0.478339	-1.12433	0.839125
O	-0.560116	-2.20941	0.265263
O	-0.707266	-0.9351	2.029726
N	-0.446992	1.277686	0.616413
O	-1.33404	1.923269	0.041108
O	0.117076	1.625555	1.647854
F	2.436279	0.0	0.0
