14

C	-0.565007	-0.05206	-1.409816
C	0.0	0.0	0.0
Br	-0.225557	1.658224	-2.300711
H	1.096715	0.0	0.0
H	-1.648786	-0.17527	-1.404426
C	0.048714	-1.100115	-2.214864
N	0.468861	-1.923707	-2.94011
N	-0.484623	-1.165551	0.771443
O	-0.935517	-2.130551	0.147443
O	-0.355867	-1.1087	1.992134
N	-0.581244	1.181594	0.707825
O	-1.81339	1.271346	0.6903
O	0.179851	1.965639	1.258341
F	2.447772	0.0	0.0
