14

C	-0.53128	-0.018627	-1.427064
C	0.0	0.0	0.0
Br	-0.286145	1.745497	-2.240992
H	1.095164	0.0	0.0
H	-1.606192	-0.209993	-1.455791
C	0.176502	-0.98606	-2.256142
N	0.699314	-1.739672	-2.990915
N	-0.479285	-1.20313	0.715167
O	-0.821214	-2.175554	0.038691
O	-0.451048	-1.168534	1.941698
N	-0.607937	1.14863	0.729684
O	0.135525	1.962362	1.261183
O	-1.841945	1.196375	0.734012
F	2.447724	0.0	0.0
