14

C	-0.58431	-0.085333	-1.400709
C	0.0	0.0	0.0
Br	0.405461	1.062349	-2.637412
H	1.108664	0.0	0.0
H	-1.616507	0.264923	-1.429573
C	-0.513999	-1.447295	-1.916082
N	-0.477035	-2.537287	-2.353544
N	-0.54699	-1.13821	0.804772
O	0.221625	-1.789894	1.4996
O	-1.766045	-1.331596	0.710042
N	-0.493815	1.207133	0.699906
O	-0.296695	1.24829	1.912988
O	-1.029538	2.09843	0.038092
F	2.447321	0.0	0.0
