14

C	-0.588495	-0.125784	-1.395371
C	0.0	0.0	0.0
Br	-0.266498	1.534304	-2.384256
H	1.108932	0.0	0.0
H	-1.673397	-0.243401	-1.361567
C	0.007106	-1.215675	-2.156486
N	0.426977	-2.073438	-2.840509
N	-0.479951	-1.118666	0.839884
O	-0.919444	-2.123612	0.274082
O	-0.361323	-0.986809	2.05538
N	-0.569595	1.223355	0.644331
O	-1.802417	1.296523	0.678501
O	0.203781	2.064413	1.084578
F	2.445667	0.0	0.0
