12

C	0.0	0.0	0.0
C	-0.459718	-0.023529	-1.46734
F	1.382872	0.0	0.0
H	0.453036	-0.118592	-2.069963
H	-0.365164	0.900413	0.485975
H	-1.093913	-0.899743	-1.622677
C	-0.426913	-1.185506	0.759964
N	-0.538207	-2.168682	1.391499
N	-1.15946	1.227985	-1.765643
H	-1.461539	1.183981	-2.73476
H	-1.994135	1.064319	-1.168224
F	-2.560771	0.0	0.0
