12

C	0.0	0.0	0.0
C	-0.45687	-0.027952	-1.46838
F	1.383323	0.0	0.0
H	0.458407	-0.111595	-2.065046
H	-0.366651	0.900625	0.484949
H	-1.078626	-0.912501	-1.630019
C	-0.423104	-1.183311	0.76685
N	-0.567215	-2.134167	1.439793
N	-1.164739	1.216439	-1.769104
H	-1.460826	1.178482	-2.740956
H	-2.000999	1.049287	-1.174394
F	-2.563631	0.0	0.0
