12

C	0.0	0.0	0.0
C	-0.451754	0.042758	-1.479597
F	1.388236	0.0	0.0
H	0.454749	-0.097402	-2.082626
H	-0.368069	0.86695	0.540995
H	-1.147474	-0.7712	-1.65936
C	-0.426417	-1.224219	0.696492
N	-0.546447	-2.248405	1.259178
N	-1.147273	1.265543	-1.859881
H	-0.568588	2.056082	-1.58585
H	-1.950892	1.197181	-1.21854
F	-2.492303	0.0	0.0
