12

C	0.0	0.0	0.0
C	-0.298023	0.536712	-1.453972
F	1.383797	0.0	0.0
H	-0.328826	1.629568	-1.357551
H	-0.397224	0.636497	0.783495
H	0.622081	0.286619	-1.997388
C	-0.446616	-1.386937	0.185391
N	-0.58303	-2.547943	0.304718
N	-1.442578	0.094981	-2.216619
H	-2.195913	0.100374	-1.487124
H	-1.299348	-0.884694	-2.443091
F	-2.571825	0.0	0.0
