12

C	0.0	0.0	0.0
C	-0.4528	-0.499898	-1.381378
F	1.383657	0.0	0.0
H	0.470197	-0.744079	-1.92364
H	-0.366467	1.00919	0.1649
H	-1.055887	-1.403696	-1.256611
C	-0.429098	-0.881558	1.09823
N	-0.535794	-1.643685	1.985146
N	-1.171838	0.575935	-2.061854
H	-2.008562	0.605113	-1.443909
H	-1.468396	0.223216	-2.967471
F	-2.56755	0.0	0.0
