12

C	0.0	0.0	0.0
C	-0.409427	-0.151759	-1.462376
F	1.388813	0.0	0.0
H	-1.482777	0.03693	-1.463423
H	-0.372463	0.936078	0.410773
H	0.14822	0.612569	-2.019131
C	-0.456133	-1.097621	0.869474
N	-0.590986	-2.008921	1.60077
N	-0.102037	-1.461126	-2.033319
H	-0.749467	-2.125829	-1.620425
H	0.830194	-1.736711	-1.744541
F	-2.525333	0.0	0.0
