18

C	-0.264666	0.041177	-1.510765
C	0.0	0.0	0.0
Br	-2.215337	0.283146	-1.877598
H	1.100806	0.0	0.0
N	0.412484	1.209687	-2.020486
H	1.391855	1.142959	-1.730975
H	0.373904	1.203018	-3.034459
C	0.149209	-1.262883	-2.179012
H	1.2086	-1.419302	-1.952635
H	0.018668	-1.184524	-3.2607
H	-0.428635	-2.113489	-1.816778
C	-0.489192	-1.228592	0.609114
N	-0.912048	-2.19637	1.124521
C	-0.477843	1.226239	0.774304
H	-1.564795	1.231915	0.877205
H	-0.162628	2.123538	0.243405
H	-0.022392	1.2237	1.767035
Br	3.471861	0.0	0.0
