18

C	-0.374771	-0.04312	-1.508521
C	0.0	0.0	0.0
Br	0.009602	1.747235	-2.272226
H	1.096801	0.0	0.0
N	0.453886	-0.975454	-2.237039
H	0.205583	-1.915752	-1.941973
H	1.428342	-0.821618	-1.973796
C	-1.840297	-0.334493	-1.779671
H	-2.093222	-1.328592	-1.397645
H	-2.015419	-0.314268	-2.855904
H	-2.487046	0.400314	-1.297217
C	-0.422507	-1.283634	0.564791
N	-0.800734	-2.310951	0.994285
C	-0.535687	1.147889	0.851383
H	-0.099841	2.087731	0.514092
H	-0.240415	0.991113	1.892051
H	-1.627113	1.218366	0.805709
Br	3.490709	0.0	0.0
