18

C	-0.34396	0.001888	-1.490588
C	0.0	0.0	0.0
Br	-2.424281	-0.345292	-1.658477
H	1.098435	0.0	0.0
N	-0.021593	1.228102	-2.077885
H	-0.50463	2.013577	-1.666788
H	-0.149302	1.219662	-3.079958
C	0.314314	-1.150447	-2.215775
H	1.394461	-1.044903	-2.066989
H	0.073252	-1.12436	-3.282052
H	-0.016522	-2.104546	-1.80761
C	-0.443764	-1.230816	0.646995
N	-0.776816	-2.214718	1.196062
C	-0.474087	1.227597	0.774817
H	-1.551588	1.378138	0.668516
H	-0.238436	1.101127	1.832156
H	0.070167	2.108485	0.429766
Br	3.494595	0.0	0.0
