18

C	-0.462053	0.162233	-1.455969
C	0.0	0.0	0.0
Br	0.193419	-1.489574	-2.454769
H	1.105173	0.0	0.0
N	-1.879354	0.269181	-1.543896
H	-2.322232	-0.55044	-1.141173
H	-2.16687	0.341663	-2.512666
C	0.231852	1.332316	-2.128144
H	0.022077	1.333438	-3.200698
H	1.310036	1.257017	-1.970599
H	-0.142343	2.266109	-1.700345
C	-0.540451	-1.225077	0.580159
N	-1.05941	-2.159608	1.069398
C	-0.422291	1.194109	0.872622
H	0.083301	2.096765	0.528028
H	-0.095871	1.010873	1.898481
H	-1.502077	1.348863	0.853402
Br	3.509835	0.0	0.0
