18

C	-0.23175	0.157687	-1.519132
C	0.0	0.0	0.0
Br	-2.175627	0.428514	-1.882179
H	1.10595	0.0	0.0
N	0.465747	1.297505	-2.072383
H	1.459483	1.153927	-1.874884
H	0.183219	2.145315	-1.593883
C	0.223406	-1.085707	-2.259537
H	1.279572	-1.24776	-2.015267
H	-0.349704	-1.963916	-1.961955
H	0.118484	-0.921011	-3.332283
C	-0.513086	-1.263551	0.510624
N	-0.95937	-2.262831	0.939281
C	-0.468027	1.156559	0.87876
H	-1.556371	1.243575	0.884995
H	-0.031286	2.094794	0.531901
H	-0.114678	0.99485	1.899101
Br	3.471688	0.0	0.0
