18

C	-0.3434	0.008173	-1.490785
C	0.0	0.0	0.0
Br	-2.427378	-0.322407	-1.659973
H	1.101105	0.0	0.0
N	-0.012284	1.23453	-2.073629
H	-0.14227	1.23251	-3.075464
H	-0.485216	2.022355	-1.656208
C	0.306972	-1.146642	-2.219915
H	-0.031828	-2.100424	-1.816759
H	0.06737	-1.114429	-3.286262
H	1.388181	-1.049546	-2.070392
C	-0.448359	-1.230607	0.643252
N	-0.80405	-2.208476	1.190267
C	-0.470776	1.225947	0.780115
H	0.073482	2.107604	0.436928
H	-0.231198	1.095227	1.836189
H	-1.548373	1.377609	0.677678
Br	3.493208	0.0	0.0
