17

C	0.0	0.0	0.0
C	-0.350529	0.112364	-1.554001
Br	1.944362	0.0	0.0
H	0.479488	0.639135	-2.017079
N	-0.294562	1.427637	0.608931
O	-0.139991	2.409368	-0.109881
O	-0.617634	1.454008	1.788663
N	-0.639118	-1.014996	0.668782
H	-0.449982	-0.949082	1.662354
H	-1.676086	-0.813886	0.482197
N	-1.576171	0.658354	-2.002426
H	-1.479387	1.664155	-1.975285
H	-2.329993	0.380451	-1.327968
N	-0.242614	-1.303323	-2.092542
O	0.831772	-1.633184	-2.601819
O	-1.23627	-2.013578	-2.016244
F	-2.934632	0.0	0.0
