17

C	0.0	0.0	0.0
C	-0.359248	-0.024861	-1.497991
Br	2.013693	0.0	0.0
H	0.188459	-0.866133	-1.956998
N	-0.337069	1.566834	0.661816
O	-1.447743	2.005154	0.962787
O	0.692525	2.164347	1.010996
N	-0.247364	-1.111874	0.78529
H	-0.830373	-1.838542	0.3667
H	0.225682	-1.248956	1.660193
N	-0.080539	1.271574	-2.05372
H	0.919487	1.398001	-2.141392
H	-0.539477	1.359642	-2.950353
N	-1.81806	-0.393218	-1.824719
O	-2.499184	0.435007	-2.440154
O	-2.053555	-1.61544	-1.851273
F	-2.191415	0.0	0.0
