17

C	0.0	0.0	0.0
C	-0.54709	0.095386	-1.446479
Br	1.928951	0.0	0.0
H	-1.617716	0.287042	-1.285625
N	-0.361382	1.303101	0.768669
O	-0.609425	1.175705	1.960669
O	-0.322674	2.358027	0.149523
N	-0.572271	-1.129745	0.584639
H	-0.304831	-1.174335	1.561304
H	-1.619638	-0.885654	0.482413
N	-0.239923	-1.120928	-2.161074
H	-0.006519	-1.831056	-1.475856
H	-1.083769	-1.428305	-2.630622
N	-0.032441	1.247697	-2.291126
O	1.146326	1.273435	-2.627934
O	-0.885701	2.051252	-2.669918
F	-2.782761	0.0	0.0
