14
Coordinates from ORCA-job run
  C   -0.49932717526962      0.22770269273928     -0.35416764900250
  C   0.87977789785675     -0.48020148507929     -0.29920121837076
  H   -0.57591700961976      0.68415142964032     -1.35172789584406
  H   0.87094572881706     -1.34670986433386     -0.97234147569393
  N   -0.50043598567492      1.29333074952893      0.60995860492675
  H   -0.66755713054665      0.92295597884432      1.53907846307500
  H   -1.19894385618547      1.99192297611238      0.39638966908125
  N   -1.50857382964604     -0.78779908157203     -0.08044052959824
  H   -1.56844914459703     -1.46277977941451     -0.83551583591402
  H   -2.41512909725752     -0.34490696685234      0.01064718217611
  C   1.14030093303622     -0.95921714169528      1.06164777920385
  N   1.33721172332551     -1.32699814919500      2.15847481283261
  C   1.93762340865356      0.43210974903979     -0.74228396286906
  N   2.76947353710791      1.15743889223729     -1.14051794400300
