14
Coordinates from ORCA-job run
  C   -0.54490926127245      0.15563560587355     -0.37253960108594
  C   0.89039429693110     -0.43111984610744     -0.39699749214194
  H   -0.71490367899952      0.58341308236834     -1.37212756237678
  H   0.93774535887755     -1.13003109387038     -1.23858592371106
  N   -0.62468906272590      1.11805775199308      0.71442431240920
  H   -1.57242611098201      1.46837765370802      0.78717760539843
  H   -0.01178954117839      1.91129329786382      0.55619615152237
  N   -1.45728880841473     -0.94905668270466     -0.21231208171974
  H   -1.49739065432832     -1.20969726309602      0.76792391742916
  H   -2.38833324497671     -0.69541830183716     -0.51684375516454
  C   1.15321375480389     -1.17458789374742      0.83861980595057
  N   1.32770789319210     -1.80014581133521      1.81593120577218
  C   1.88206812050924      0.62980628864466     -0.59425517826734
  N   2.62160093856414      1.52347321224682     -0.77561140401458
