14
Coordinates from ORCA-job run
  C   -0.42162481401050      0.49499720053362     -0.19255574517486
  C   1.06295935266023      0.07645243045809     -0.03316926727357
  H   -0.44350382473336      1.23417870794060     -1.00766674793602
  H   1.64069008018568      0.99229582588017      0.12969990257955
  N   -0.80862194480010      1.17320780802889      1.01933922142121
  H   -1.02776885064348      0.48484479312110      1.73250266382428
  H   -1.62575951575567      1.74963176787997      0.86568246072698
  N   -1.20619586322390     -0.70265001117598     -0.44725211793229
  H   -2.18906573991292     -0.46095779680777     -0.48846418634506
  H   -0.95474008387680     -1.13199338313516     -1.33173634018013
  C   1.54792760409857     -0.59031737550414     -1.24479026891290
  N   1.87844790549901     -1.09464877970161     -2.25219797154678
  C   1.21973406219199     -0.78597254464232      1.14175312085351
  N   1.32852163232124     -1.44006864287546      2.10985527589608
