14
Coordinates from ORCA-job run
  C   -0.41452122930383      0.48119981274984     -0.14374951137429
  C   1.05662798025567     -0.01994448059634     -0.03336054344681
  H   -0.41890322226361      1.20511335426798     -0.97883756621363
  H   1.70089733039092      0.83771575651882      0.19668947178781
  N   -0.75883952501481      1.07383997198684      1.13195405046527
  H   -1.72612996592238      0.92792406520185      1.36179484219250
  H   -0.57743656031456      2.06666550446252      1.13335260236860
  N   -1.24287323153741     -0.68016231400099     -0.38420779732519
  H   -1.11880322589400     -1.02954444237301     -1.32695731609509
  H   -2.22451903711053     -0.46714452268114     -0.26052757749573
  C   1.47788084979099     -0.59184755945168     -1.31676498467904
  N   1.74632382812361     -1.04585311206604     -2.36624170533216
  C   1.18231728854753     -0.99667761091977      1.05294180717618
  N   1.31697872025241     -1.76028442309888      1.93391422797160
