14
Coordinates from ORCA-job run
  C   -0.46743638017205      0.42773726838270     -0.20605759769943
  C   1.03099898755009      0.07314086388746     -0.01018018373699
  H   -0.52436779229247      1.00398549676589     -1.14589469068276
  H   1.57061823048337      1.01663560542582      0.12462813186601
  N   -0.88052455977922      1.21942475114159      0.93453819505528
  H   -0.92688751877841      2.20490342068752      0.71554932430236
  H   -1.77082260769989      0.89817825796429      1.28635023856191
  N   -1.23744243512666     -0.79774278785571     -0.23827325480706
  H   -0.78041154508077     -1.51307776727023     -0.79106314193910
  H   -2.14601453659458     -0.62619604367520     -0.65250239062292
  C   1.56757881569675     -0.61135827060939     -1.19187110314163
  N   1.93184813206424     -1.15521334950282     -2.16678487456746
  C   1.22245770954164     -0.73961016530378      1.19535922463051
  N   1.41040550018797     -1.40080728003814      2.14620212278129
