14

C	0.0	0.0	0.0
C	-0.566646	0.083922	-1.417945
F	1.384644	0.0	0.0
H	-1.676875	0.042474	-1.200814
H	-0.304465	-0.984961	0.378001
N	-0.502969	1.107607	0.740598
H	-0.252447	0.968474	1.714129
H	-1.531815	0.95896	0.65032
C	-0.078119	-0.992002	-2.262464
N	0.264474	-1.897567	-2.926985
N	-0.202981	1.397335	-2.036074
O	0.93726	1.516108	-2.486013
O	-1.059009	2.275553	-2.037107
F	-2.777162	0.0	0.0
