14

C	0.0	0.0	0.0
C	-0.501876	0.065861	-1.452636
F	1.375863	0.0	0.0
H	0.385344	-0.017761	-2.095626
H	-0.308704	-0.963304	0.405524
N	-0.450899	1.140777	0.732957
H	-1.483995	0.980623	0.667817
H	-0.168614	1.003705	1.698383
C	-1.206366	1.289467	-1.819035
N	-1.625095	2.302395	-2.238326
N	-1.322154	-1.140088	-1.844259
O	-2.169405	-0.992836	-2.711664
O	-0.965903	-2.21552	-1.375534
F	-2.575319	0.0	0.0
