14

C	0.0	0.0	0.0
C	-0.424229	-0.108187	-1.476134
F	1.385757	0.0	0.0
H	-0.32472	0.887089	-1.911697
H	-0.308017	-0.902224	0.534117
N	-0.475137	1.232198	0.536346
H	-1.504138	1.071935	0.446943
H	-0.257201	1.233022	1.527361
C	-1.721353	-0.698752	-1.833667
N	-2.453005	-1.261209	-2.568328
N	0.614874	-0.958997	-2.17124
O	0.709256	-2.124117	-1.801994
O	1.295012	-0.42923	-3.046164
F	-2.627354	0.0	0.0
