14

C	0.0	0.0	0.0
C	-0.534073	-0.462064	-1.381744
F	1.377685	0.0	0.0
H	-1.446886	0.102958	-1.571672
H	-0.305062	-0.742269	0.739988
N	-0.481757	1.316425	0.246516
H	-0.197316	1.569772	1.187929
H	-1.513036	1.121709	0.254236
C	-0.83775	-1.886543	-1.397651
N	-1.057694	-3.038049	-1.386341
N	0.507858	-0.1632	-2.421957
O	0.513788	0.981454	-2.861236
O	1.3016	-1.050581	-2.729155
F	-2.66184	0.0	0.0
