14

C	0.0	0.0	0.0
C	-0.492407	-0.165427	-1.44651
F	1.392718	0.0	0.0
H	0.397537	-0.363487	-2.059659
H	-0.299981	-0.890913	0.550369
N	-0.4478	1.239318	0.545699
H	-1.481609	1.073722	0.497131
H	-0.176619	1.249553	1.523685
C	-1.174565	0.993782	-2.012181
N	-1.575894	1.948052	-2.56414
N	-1.329236	-1.405777	-1.644209
O	-0.986196	-2.399037	-1.012848
O	-2.174893	-1.384286	-2.525138
F	-2.570984	0.0	0.0
