14

C	0.0	0.0	0.0
C	-0.50124	-0.214006	-1.439447
F	1.375092	0.0	0.0
H	0.386676	-0.415361	-2.055185
H	-0.308924	-0.867384	0.582846
N	-0.45155	1.260397	0.498637
H	-0.168345	1.314105	1.471945
H	-1.484384	1.089196	0.466271
C	-1.212649	0.912355	-2.033661
N	-1.646911	1.813039	-2.649064
N	-1.316022	-1.476366	-1.591101
O	-0.945284	-2.441974	-0.932416
O	-2.172635	-1.501524	-2.461204
F	-2.575028	0.0	0.0
