18

C	0.0	0.0	0.0
C	-0.462803	0.184478	-1.448849
F	1.394355	0.0	0.0
H	-1.542859	0.361747	-1.399811
C	-0.430959	1.158926	0.874388
H	-1.52166	1.188914	0.909272
H	-0.042708	2.093952	0.471747
H	-0.037213	1.005536	1.884536
N	-0.4407	-1.294841	0.47856
H	-0.217488	-1.353941	1.466409
H	-1.462002	-1.283545	0.408612
N	-0.137622	-1.016725	-2.231331
H	-0.05332	-1.79159	-1.581389
H	-0.920336	-1.224481	-2.840544
N	0.172396	1.38197	-1.992819
H	-0.285068	1.595227	-2.872055
H	1.120782	1.106996	-2.221084
Cl	-3.773466	0.0	0.0
