18

C	0.0	0.0	0.0
C	-0.450548	-0.199442	-1.453309
F	1.40056	0.0	0.0
H	-1.519062	-0.434507	-1.39441
C	-0.446339	1.317498	0.593081
H	0.047193	2.139649	0.071715
H	-1.532679	1.412367	0.528282
H	-0.143269	1.335424	1.641717
N	-0.435476	-1.090242	0.832789
H	-1.438564	-0.964771	0.971699
H	-0.320618	-1.936275	0.28132
N	0.248601	-1.359258	-1.978929
H	-0.181481	-1.653377	-2.848467
H	1.205207	-1.079494	-2.167127
N	-0.191883	1.000983	-2.269662
H	-0.821747	1.7319	-1.948181
H	-0.497439	0.784752	-3.215059
Cl	-3.797196	0.0	0.0
