18

C	0.0	0.0	0.0
C	-0.370133	0.237627	-1.472938
F	1.434616	0.0	0.0
H	0.034846	1.228145	-1.739244
C	-0.477373	1.084258	0.929079
H	-0.10648	2.058308	0.602566
H	-0.107191	0.897	1.940838
H	-1.568267	1.07972	0.94145
N	-0.475844	-1.267654	0.391717
H	-0.214961	-1.503307	1.337967
H	-0.16544	-1.963905	-0.273951
N	-1.775698	0.22499	-1.783463
H	-2.230346	1.091354	-1.530181
H	-2.272555	-0.480393	-1.244227
N	0.257375	-0.841934	-2.245711
H	-0.165247	-0.814975	-3.164682
H	1.252784	-0.678628	-2.322058
Cl	-4.596558	0.0	0.0
