18

C	0.0	0.0	0.0
C	-0.451637	-0.004206	-1.489655
F	1.425936	0.0	0.0
H	0.459784	0.158598	-2.0724
C	-0.409467	1.229159	0.781367
H	-1.49542	1.251323	0.873602
H	0.042507	1.169536	1.77752
H	-0.06231	2.132764	0.283623
N	-0.459236	-1.163389	0.659805
H	-0.17834	-1.98932	0.150892
H	-0.133834	-1.185217	1.616128
N	-1.357498	1.106402	-1.762965
H	-1.579213	1.084096	-2.751402
H	-2.234382	0.917901	-1.271611
N	-0.946492	-1.343474	-1.832892
H	-1.852953	-1.447354	-1.37506
H	-1.112037	-1.371083	-2.835432
Cl	-4.035021	0.0	0.0
