18

C	0.0	0.0	0.0
C	-0.392766	-0.16457	-1.470289
F	1.419405	0.0	0.0
H	-1.48647	-0.144604	-1.482902
C	-0.443978	1.321926	0.580308
H	-0.005309	2.144754	0.018536
H	-1.532656	1.384322	0.530035
H	-0.11954	1.363512	1.622368
N	-0.450922	-1.079243	0.820888
H	-1.432084	-0.898317	1.029122
H	-0.429082	-1.919578	0.2518
N	0.041128	-1.497095	-1.909745
H	1.048118	-1.488833	-2.027222
H	-0.384511	-1.7151	-2.802065
N	0.110127	0.96411	-2.248985
H	1.124043	0.946382	-2.220235
H	-0.182854	0.863477	-3.213488
Cl	-3.787379	0.0	0.0
