18

C	0.0	0.0	0.0
C	-0.510759	-0.137523	-1.437777
F	1.423489	0.0	0.0
H	-1.511535	0.308938	-1.436221
C	-0.460063	1.300535	0.610114
H	-0.00186	1.429709	1.595605
H	-1.549426	1.277226	0.698432
H	-0.151565	2.124061	-0.034991
N	-0.436261	-1.115151	0.766141
H	-0.286319	-0.955115	1.752639
H	0.062092	-1.941154	0.461046
N	-0.584083	-1.565216	-1.798481
H	-1.391095	-1.929063	-1.294479
H	-0.82922	-1.609855	-2.783296
N	0.34449	0.627453	-2.322304
H	-0.069012	0.657122	-3.246295
H	1.238314	0.152733	-2.381772
Cl	-4.016681	0.0	0.0
