14

C	0.0	0.0	0.0
C	-0.568949	-0.155045	-1.407446
F	1.393765	0.0	0.0
H	-0.238824	0.633948	-2.082458
H	-0.353721	-0.850249	0.580554
H	-1.676801	-0.154226	-1.215102
C	-0.471674	1.308123	0.593634
H	-1.568236	1.257935	0.592554
H	-0.085753	1.434291	1.608234
H	-0.12186	2.142676	-0.020457
N	-0.189307	-1.432868	-2.046936
O	-0.297311	-2.464192	-1.381927
O	0.220326	-1.407332	-3.211421
F	-2.869109	0.0	0.0
