14

C	0.0	0.0	0.0
C	-0.278385	0.090648	-1.505204
F	1.39376	0.0	0.0
H	0.38677	-0.627912	-1.9881
H	-0.368209	-0.939959	0.405167
H	-0.031334	1.095724	-1.845678
C	-0.482401	1.181798	0.795095
H	-0.086838	2.105166	0.356093
H	-1.580865	1.109725	0.727251
H	-0.128417	1.103929	1.828406
N	-1.619396	-0.219815	-2.075546
O	-1.910147	-1.405968	-2.179214
O	-2.226433	0.708527	-2.60018
F	-2.700216	0.0	0.0
