14

C	0.0	0.0	0.0
C	-0.587073	-0.035157	-1.390868
F	1.389744	0.0	0.0
H	-1.690767	0.02042	-1.170613
H	-0.336155	-0.933184	0.46035
H	-0.277089	-0.93433	-1.923289
C	-0.481948	1.154827	0.848143
H	-1.575751	1.095188	0.81484
H	-0.119334	2.104542	0.452447
H	-0.105459	1.027687	1.867852
N	-0.125976	1.094749	-2.227142
O	-0.560797	2.222122	-1.978756
O	0.673637	0.854301	-3.140133
F	-2.899659	0.0	0.0
