14

C	0.0	0.0	0.0
C	-0.561142	-0.093159	-1.388499
F	1.393686	0.0	0.0
H	-0.24768	0.742428	-2.01682
H	-0.348618	-0.837259	0.59955
H	-1.676318	-0.113463	-1.193295
C	-0.426604	1.328198	0.603282
H	-0.021564	1.419733	1.61286
H	-0.02118	2.145891	-0.005768
H	-1.52023	1.325254	0.609544
N	-0.121051	-1.31611	-2.074086
O	0.216013	-1.223285	-3.256967
O	-0.122835	-2.377486	-1.44151
F	-2.849089	0.0	0.0
