14

C	0.0	0.0	0.0
C	-0.574102	0.060667	-1.397432
F	1.38972	0.0	0.0
H	-1.676046	0.050037	-1.203621
H	-0.348214	-0.949385	0.413394
H	-0.194575	-0.758397	-2.010907
C	-0.492447	1.134445	0.873188
H	-0.136734	0.985533	1.895264
H	-1.584333	1.076728	0.812019
H	-0.112729	2.089141	0.504785
N	-0.15892	1.308015	-2.085713
O	0.926979	1.304994	-2.67746
O	-0.899961	2.290652	-2.013759
F	-2.899168	0.0	0.0
