13

C	-0.448058	0.014933	-1.445609
C	0.0	0.0	0.0
F	-0.095278	-1.165994	-2.084883
H	1.093714	0.0	0.0
H	0.037244	0.83609	-1.983897
H	-0.358086	-0.92721	0.45703
C	-1.91505	0.164355	-1.580436
N	-3.079192	0.291076	-1.671326
C	-0.50001	1.223794	0.761321
H	-0.163589	2.14462	0.27613
H	-0.077504	1.222039	1.767415
H	-1.590533	1.254806	0.842847
Cl	3.531556	0.0	0.0
