15

C	0.0	0.0	0.0
C	-0.666953	-0.06783	-1.355912
Cl	1.7937	0.0	0.0
H	-1.761533	-0.125156	-1.025881
H	-0.284879	-0.908987	0.536284
C	-0.489751	1.211344	0.766152
H	-0.094795	1.202395	1.785257
H	-1.585534	1.142474	0.782648
H	-0.178712	2.124435	0.258637
C	-0.331439	-1.295575	-2.081673
N	-0.089684	-2.267959	-2.698895
N	-0.482034	1.140097	-2.14889
H	-1.309225	1.286815	-2.7138
H	0.320003	1.052296	-2.760042
H	-3.177757	0.0	0.0
