15

C	0.0	0.0	0.0
C	-0.700924	-0.001773	-1.340666
Cl	1.784015	0.0	0.0
H	-1.788339	-0.118902	-0.978285
H	-0.282585	-0.933614	0.495493
C	-0.488175	1.170701	0.828785
H	-0.08855	1.114014	1.844523
H	-0.176634	2.106424	0.36356
H	-1.58411	1.104172	0.848378
C	-0.346893	-1.155999	-2.160798
N	-0.082861	-2.07269	-2.850475
N	-0.598359	1.266117	-2.056672
H	0.014148	1.188813	-2.858552
H	-1.527195	1.528982	-2.372689
H	-3.171152	0.0	0.0
