15

C	0.0	0.0	0.0
C	-0.68305	0.004735	-1.351147
Cl	1.784715	0.0	0.0
H	-1.772976	-0.099949	-1.008278
H	-0.28526	-0.935529	0.488532
C	-0.493126	1.171971	0.833492
H	-1.591769	1.099679	0.843576
H	-0.176405	2.109469	0.369105
H	-0.094499	1.104182	1.852634
C	-0.326944	-1.1574	-2.162315
N	-0.067514	-2.082764	-2.84144
N	-0.551313	1.268279	-2.065562
H	-1.443506	1.491231	-2.490261
H	0.152293	1.208772	-2.789936
H	-3.177485	0.0	0.0
