15

C	0.0	0.0	0.0
C	-0.430509	-0.012112	-1.494594
Cl	1.790103	0.0	0.0
H	0.266875	-0.68966	-2.00272
H	-0.298188	-0.966559	0.412071
C	-0.588817	1.122263	0.817671
H	-0.263922	1.04975	1.858835
H	-1.681596	1.017514	0.771005
H	-0.287645	2.094035	0.420374
C	-0.171482	1.319551	-2.08187
N	0.032064	2.371833	-2.562085
N	-1.776303	-0.440772	-1.796019
H	-2.502773	-0.101708	-1.101848
H	-1.80827	-1.450944	-1.699835
H	-3.620999	0.0	0.0
