15

C	0.0	0.0	0.0
C	-0.420888	0.212781	-1.482765
Cl	1.78961	0.0	0.0
H	0.266991	-0.398315	-2.079794
H	-0.301828	-1.015934	0.263819
C	-0.587538	0.993481	0.970531
H	-0.262915	0.772149	1.990642
H	-0.284532	2.011735	0.716805
H	-1.68026	0.897861	0.909054
C	-0.12577	1.608925	-1.868422
N	0.130374	2.713624	-2.173516
N	-1.772575	-0.138099	-1.852329
H	-1.818144	-1.149138	-1.930981
H	-2.493856	0.084182	-1.109103
H	-3.610577	0.0	0.0
