15
Coordinates from ORCA-job run
  C   0.55689518832138     -0.32186550914263      0.34020397625981
  C   -0.76341006446687      0.47236544725692      0.17054203888314
  Cl  0.19308460996697     -2.01500651357539      0.77362223231133
  H   -0.50772275578563      1.51532933888460     -0.03556807310594
  C   1.42112994451399     -0.29163203134729     -0.91672065385460
  H   2.37679573958551     -0.76959583233112     -0.70035641100311
  H   1.59615056643877      0.73943676538081     -1.23100645918122
  H   0.93389485873251     -0.83389825076154     -1.72635509406599
  C   1.26701256265436      0.30373942760903      1.45755565173967
  N   1.85124053134455      0.83984496175987      2.32535083861983
  C   -1.62532591255839      0.38083041332406      1.33953073466159
  N   -2.30814451812936      0.34535157603284      2.29444269598088
  N   -1.49955194325406     -0.00647236399236     -1.06136723013233
  O   -2.31011103490682     -0.91301416464619     -0.92383055997918
  O   -1.18193777245692      0.55458673554838     -2.10604368713385
