15
Coordinates from ORCA-job run
  C   0.54658390250820     -0.59778363421914     -0.17841726222291
  C   -0.96904956513094     -0.27491868670433     -0.21142000963835
  Cl  0.83073282307041     -1.68982562894987     -1.57299005466951
  H   -1.53601570237195     -1.20748141315201     -0.19771368239341
  C   1.43985798845090      0.62813566813923     -0.30934123242157
  H   2.48197859053834      0.30783090816479     -0.32591928637548
  H   1.21450010193886      1.15384642431139     -1.23809545893104
  H   1.28510086664716      1.30280560295951      0.53324318833360
  C   0.84700076910950     -1.33423343947498      1.04920427219605
  N   1.11403118470711     -1.89777721866374      2.04567457391750
  C   -1.32119539734141      0.53343106784462     -1.37011964031702
  N   -1.60339352025208      1.17447220840208     -2.31282363352114
  N   -1.35753093695622      0.46352848321241      1.05498295201230
  O   -1.10989619554819      1.66352069057086      1.09788393073585
  O   -1.86070490936971     -0.22455103244081      1.93585134329514
