15
Coordinates from ORCA-job run
  C   0.63981231458428     -0.16682485085668      0.30473431983370
  C   -0.82754204284221      0.32509425695338      0.21333972900717
  Cl  0.68044130349896     -1.84307940639157      0.91736655158805
  H   -0.81455525864036      1.37197177897199     -0.10223108541350
  C   1.36180682130981     -0.09670903041568     -1.03733753471480
  H   0.92961494396851     -0.80908102061744     -1.73912429810572
  H   2.41221106108019     -0.34677817864161     -0.88769720789027
  H   1.28611422992136      0.90894178518019     -1.45586305241256
  C   1.29947869040625      0.70242147438553      1.28118166147299
  N   1.83233099697719      1.43352472838107      2.03168348114702
  C   -1.54543555221576      0.18198626656035      1.47110216516356
  N   -2.11923630429462      0.11067543220793      2.49335898676523
  N   -1.55096757615515     -0.41401297332654     -0.89057522795877
  O   -2.13035772414931     -1.45094632275870     -0.59591128284577
  O   -1.45471590344912      0.09381606036779     -2.00402720563633
