15
Coordinates from ORCA-job run
  C   0.59705593494241     -0.24908091820972      0.33303411431607
  C   -0.78445175428067      0.43543964228925      0.17328895702755
  Cl  0.38117209108506     -1.91075678857519      0.94872576339292
  H   -0.61691300857398      1.46749364177549     -0.14693136864092
  C   1.38405853510695     -0.28773155018175     -0.97339119423949
  H   0.89116863556276     -0.93709647991102     -1.69607572277349
  H   1.46870540287438      0.71635082408105     -1.39429789636163
  H   2.38156363061529     -0.67924153297321     -0.77303847781306
  C   1.32301283826204      0.53070509132969      1.33755121823004
  N   1.91521724357262      1.18952567062575      2.11021767866818
  C   -1.56940789758037      0.40432448942029      1.39843534567300
  N   -2.19313294817486      0.41918540463633      2.39346155846574
  N   -1.55350013977629     -0.21115779666842     -0.95777573911139
  O   -1.33639163597601      0.26258299831536     -2.06929421964308
  O   -2.28815692765932     -1.15054269595391     -0.68291001719044
