15
Coordinates from ORCA-job run
  C   0.59745006710649     -0.54815882101384     -0.18803661043390
  C   -0.90185155348271     -0.21745768895761     -0.35428715952938
  Cl  1.04423126937706     -1.37497116293305     -1.72340158310223
  H   -1.44698132827191     -1.12732047000828     -0.61907082658937
  C   1.50294363020103      0.66201457433980     -0.00750800468575
  H   1.38493109178272      1.33859708336662     -0.85527576760770
  H   2.54022614664254      0.32782695073717      0.03029027349339
  H   1.25795561692683      1.17847846289709      0.91918553948380
  C   0.75421035477130     -1.51662411547437      0.89675010170384
  N   0.88961655855980     -2.30524391650457      1.75744759342909
  C   -1.12664591164357      0.80447522905613     -1.36986905398684
  N   -1.29087129790864      1.63896730389235     -2.18012249785732
  N   -1.56689340306221      0.26648178166927      0.93182358746029
  O   -2.78807523570216      0.30154234633379      0.88633790122635
  O   -0.85024600529657      0.57339244259950      1.87573650699572
