15
Coordinates from ORCA-job run
  C   0.55359779927125     -0.50288405909594     -0.35990172998009
  C   -0.94118102207503     -0.09494822615191     -0.40440524878795
  Cl  0.98197251614199     -0.92407024451379     -2.05008583292563
  H   -1.52268114287174     -0.90674521541128     -0.84499853860824
  C   1.47805997888693      0.60160996979096      0.13358526157637
  H   1.23577787960974      0.86794084512849      1.16291688747239
  H   2.50885537152866      0.24923436269877      0.08716006089994
  H   1.37464709539544      1.48298553228178     -0.50068288500854
  C   0.69144658722468     -1.70527181753449      0.46161725093990
  N   0.82541544607945     -2.65137851504139      1.14623015980875
  C   -1.13833413413691      1.14651807446172     -1.13911203312122
  N   -1.29706493456502      2.14076242976448     -1.74376452594304
  N   -1.46486631321478      0.06768122185427      1.00953222392201
  O   -2.08210007989684     -0.89138997666903      1.45891997833852
  O   -1.20254504737781      1.11895561843736      1.58298897141684
