15
Coordinates from ORCA-job run
  C   0.59679576440901     -0.51581615426005     -0.25700364486273
  C   -0.89458128848320     -0.15876760786966     -0.48265019715416
  Cl  1.19879026782151     -1.07344711018316     -1.85225485205441
  H   -1.41213525995174     -1.02392860943549     -0.90095593766950
  C   1.44458409462585      0.65561066830833      0.21925528034152
  H   1.09572526442510      1.00679879689598      1.19084712978492
  H   1.38657637137304      1.47236000578886     -0.50131699429108
  H   2.48190876653519      0.33120818512816      0.30618021799919
  C   0.67836870202497     -1.63542495015667      0.68072131766459
  N   0.76436042898854     -2.51250374355637      1.45862346843305
  C   -1.04528661068554      1.00563912868320     -1.34370091569827
  N   -1.16693053103491      1.93667695385798     -2.04917384523388
  N   -1.55816548813000      0.11345560814040      0.85356068283529
  O   -1.37526687606491      1.21897231267129      1.35099056618596
  O   -2.19574360585291     -0.81983348401278      1.32787772371953
