15
Coordinates from ORCA-job run
  C   0.63263884823146     -0.23892438311569      0.26792783337971
  C   -0.81065721989885      0.32699015893134      0.26689359691889
  Cl  0.59577845911215     -1.98812613266560      0.62232039678637
  H   -0.75193027484740      1.40671668798512      0.10437793236279
  C   1.35399376926986     -0.00175083457743     -1.05528760725272
  H   0.88406487700934     -0.57534212112649     -1.85336305283462
  H   2.39045915538572     -0.32432170509657     -0.95491243125288
  H   1.32953376572598      1.05858884911445     -1.31504133242605
  C   1.33552743722786      0.44444953980754      1.35561125568334
  N   1.90409325015656      1.03461077562536      2.19844885434623
  C   -1.52635401870945      0.03583240155031      1.50019838157852
  N   -2.09728603521138     -0.15942667558808      2.50782543716526
  N   -1.57559944306899     -0.21249050743261     -0.92214135261335
  O   -1.45526868991923      0.44052294920791     -1.95456328766878
  O   -2.20899388046361     -1.24832900261957     -0.76929462417270
