15
Coordinates from ORCA-job run
  C   0.55505982077035     -0.34080182508028      0.32214434278328
  C   -0.73261951989589      0.51230840337074      0.19331033205343
  Cl  0.13127119178078     -2.00619994674013      0.80624340805510
  H   -0.43836190261328      1.53836045796260     -0.04412335140854
  C   1.36426251470706     -0.37662419286250     -0.97054658453723
  H   2.30373369191147     -0.89727793325697     -0.78434449611551
  H   0.81676252950274     -0.90894958575535     -1.74763900285355
  H   1.57594383570518      0.63824131365033     -1.31358562881084
  C   1.34241013486056      0.27085515127929      1.39474585371265
  N   1.99217868150828      0.79258188139048      2.22385565933610
  C   -1.54516778009789      0.48197792340881      1.40039301494458
  N   -2.18465914713558      0.49186631922546      2.38536986208753
  N   -1.54371663310513      0.04676037464087     -0.99595346382329
  O   -2.38998758200690     -0.81654244618386     -0.80543211460030
  O   -1.24510983589174      0.57244410495051     -2.06443783082342
