15
Coordinates from ORCA-job run
  C   0.58307834533826     -0.45481634663393     -0.19860332497399
  C   -0.83182739874684      0.15241815924997     -0.37543236916285
  Cl  0.83985960432995     -1.73244347598534     -1.42609358050576
  H   -1.03869751510466      0.23663323427491     -1.44754066455675
  C   1.65629250901506      0.61316181199787     -0.41286700861792
  H   1.59936360726011      1.37970101345333      0.36072290391466
  H   1.52829541501448      1.07364122967639     -1.39473485816426
  H   2.63732589172932      0.13948716254887     -0.37472349155946
  C   0.70505556885595     -1.03282973409634      1.13935888841392
  N   0.81676866091631     -1.44855723561687      2.23304227096666
  C   -0.94009498187752      1.45939756065230      0.26080095239280
  N   -0.97737677085580      2.53373669090964      0.73508531500709
  N   -1.92806606664409     -0.75749139336293      0.18006645247976
  O   -1.84538351887091     -1.93780178598351     -0.12449590876951
  O   -2.80459335035961     -0.22423689108438      0.84641442313559
