15
Coordinates from ORCA-job run
  C   0.59340821143684     -0.30569964670336      0.29074966233814
  C   -0.76711967333866      0.43490063631112      0.23772820430750
  Cl  0.33336495471082     -2.02135846529813      0.70885003516672
  H   -0.57005251744147      1.49195400636899      0.03895001203067
  C   1.35934793534483     -0.21172965896666     -1.02538366313274
  H   1.46514575437744      0.83189280583053     -1.32905381816148
  H   0.83665487769791     -0.76012421449761     -1.80838935947819
  H   2.34867744010164     -0.64953800516877     -0.89100390656403
  C   1.35827761264162      0.32674210210331      1.36765311188999
  N   1.98399031277534      0.86826874318253      2.20258029121885
  C   -1.53615280112978      0.28269724120433      1.46384762162040
  N   -2.14528384201938      0.20187010931222      2.46469531744455
  N   -1.57261758488308     -0.04786656638127     -0.94851383703999
  O   -1.35752491113872      0.54971128433992     -1.99909840667492
  O   -2.33211576913533     -0.99172037163716     -0.77461126496547
