15
Coordinates from ORCA-job run
  C   0.56331685226806     -0.44257592330378     -0.08538910617010
  C   -0.80921191375150      0.20459754599312     -0.35830457242122
  Cl  0.65506801575876     -1.93047077183898     -1.07592147806412
  H   -0.88375116450493      0.42506424354598     -1.42542534819771
  C   1.67424734527427      0.51419426531568     -0.51227922509041
  H   1.64623792631067      1.42034399807830      0.09664790803452
  H   1.55511549502566      0.77303618269573     -1.56622357100769
  H   2.64046246727676      0.02809667249639     -0.37582027275093
  C   0.72795703931212     -0.79868875318148      1.32322331904261
  N   0.95101884960646     -1.04554024607837      2.45045029973692
  C   -0.98826446885358      1.40927798361192      0.44129361335455
  N   -1.10266671083080      2.39764562394243      1.06617772762932
  N   -1.94208536741572     -0.75548421479522     -0.06218062685515
  O   -2.59795935615767     -1.12520914952546     -1.02837320928724
  O   -2.08948500931855     -1.07628745695625      1.11012454204665
