15
Coordinates from ORCA-job run
  C   0.60589123095845     -0.25202230563961      0.31352366390854
  C   -0.80479499568295      0.38085585097239      0.20544007264141
  Cl  0.46335366101341     -1.97389885342635      0.76346767042968
  H   -0.68391453314639      1.44531388098953     -0.01376869552006
  C   1.40255076668956     -0.12802147129875     -0.98176256432761
  H   0.94507760719821     -0.72611501559761     -1.76904542275181
  H   1.44328656275540      0.91489512033961     -1.30297708893332
  H   2.41569815703200     -0.49139863978555     -0.80876911797763
  C   1.28858576938414      0.45816953130680      1.39683418759522
  N   1.84439241563797      1.06460143183006      2.23655709926126
  C   -1.59488374742122      0.19670418358720      1.41365010694220
  N   -2.22500179426978      0.08767017714327      2.39873543170894
  N   -1.53614134037005     -0.18975170103236     -0.99025214609696
  O   -2.22916705065099     -1.18274370176654     -0.81301262491100
  O   -1.33393270912777      0.39674151237791     -2.04962057196886
