15
Coordinates from ORCA-job run
  C   0.58092015536618     -0.31883621947811      0.29785575097846
  C   -0.77208167806900      0.43424749242962      0.22601296114245
  Cl  0.29309800865305     -2.04611863860942      0.64578350362128
  H   -0.56220248973692      1.49588066467279      0.06905894136974
  C   1.39282336897629     -0.18614119243581     -0.98683544412488
  H   2.37022893804293     -0.64448471343032     -0.83524062485752
  H   1.52405207543086      0.86670110284051     -1.24502658095725
  H   0.89115672794296     -0.69540716553911     -1.80891667512800
  C   1.31287141129086      0.26792398861562      1.42231556321896
  N   1.91054444028409      0.77335362287615      2.29935981145978
  C   -1.57990657302406      0.24620938894058      1.42184249014968
  N   -2.21805713561573      0.12977414274244      2.40085030862491
  N   -1.54210798715391     -0.00326788746165     -1.00071889924819
  O   -1.28431462539982      0.62321030708562     -2.02448237813565
  O   -2.31702463698779     -0.94304489324890     -0.88185872811376
