15
Coordinates from ORCA-job run
  C   0.59477475439674     -0.50150672874278     -0.28872303076850
  C   -0.92827671543183     -0.22788460372351     -0.38020073197598
  Cl  1.06442749571541     -1.12206376951655     -1.90483801296618
  H   -1.43854162931718     -1.13924200387880     -0.69694121086121
  C   1.42342683700198      0.73373795839824      0.03622897504001
  H   1.15478170194570      1.12388260539791      1.01837407708062
  H   1.25157308048417      1.50392351115012     -0.71678970137985
  H   2.47974410597398      0.46348462662589      0.03351772330659
  C   0.82662332698598     -1.55969826658613      0.69419203152205
  N   1.03337352490544     -2.38531772270406      1.50499658317776
  C   -1.22398308613520      0.87636521080637     -1.28177942336142
  N   -1.46339089897512      1.75814578918839     -2.01966905124703
  N   -1.46979758329211      0.08980163348010      1.00045628180264
  O   -2.00840521686573     -0.84305203344234      1.58537787791596
  O   -1.29632969739224      1.22942379354716      1.41779761271453
