15
Coordinates from ORCA-job run
  C   0.46579757702137     -0.65446887945259     -0.20877144035925
  C   -1.00644694238877     -0.17943551373661     -0.11409064399051
  Cl  0.50782777789760     -1.80075567498182     -1.58798051830107
  H   -1.65938311345171     -1.04887925975942     -0.01865552120212
  C   1.46027198009371      0.47082022789700     -0.45913953179075
  H   1.20344193938554      0.99411514470316     -1.38107996595474
  H   2.45975159093320      0.04628546705701     -0.55774963550408
  H   1.45084266768264      1.17775079313755      0.37107701598368
  C   0.80531097638662     -1.38959521153489      1.00937967017312
  N   1.10743066175700     -1.95213491103020      1.99627577148001
  C   -1.38552033721252      0.63388610616730     -1.26068423677125
  N   -1.69851122946953      1.27830517806439     -2.19138382684881
  N   -1.19909022797961      0.62321268577624      1.15835854867550
  O   -1.68042536769178      0.00903649930005      2.10364566736023
  O   -0.83229795296376      1.79285734839283      1.13979864705004
