15
Coordinates from ORCA-job run
  C   0.57156539406036     -0.43086374929748     -0.08719542691620
  C   -0.81180977553990      0.19310837585136     -0.35867100154650
  Cl  0.69203569945600     -1.90914851724355     -1.08968173968405
  H   -0.88814857019006      0.41726543447510     -1.42486092120078
  C   1.66598426565714      0.54878286267148     -0.50421194743586
  H   1.61999652870940      1.44972440500062      0.11134354985848
  H   2.64055083567345      0.07921094133266     -0.36915064499819
  H   1.54476947502407      0.81361992842691     -1.55648418041156
  C   0.73957400175033     -0.79688815266756      1.31853166391705
  N   0.96378304521807     -1.05514476672905      2.44291593093665
  C   -1.01408780714737      1.39014671962704      0.44673363441629
  N   -1.15019608461235      2.37270253332160      1.07643835858404
  N   -1.92808033118609     -0.78849177569253     -0.06930973809917
  O   -2.07205501006268     -1.11711591338349      1.10123427993726
  O   -2.57488166681038     -1.16590832569311     -1.03863181735744
