15
Coordinates from ORCA-job run
  C   0.61886183784828     -0.27171556967300      0.26797713499848
  C   -0.80424533078389      0.34294978200544      0.26591110728912
  Cl  0.51588026343168     -2.03332179253363      0.53925269473196
  H   -0.70594085343980      1.42627091635654      0.15368569516308
  C   1.37495575837517      0.00098247015791     -1.02846407399616
  H   1.39303441220427      1.07237520202933     -1.23805526877205
  H   2.39741825763347     -0.36252029454261     -0.92471238713243
  H   0.90176369254751     -0.51761006561304     -1.86132709351493
  C   1.32092205919075      0.33447271459211      1.40090808282015
  N   1.89115228150599      0.86012272355175      2.28428773761397
  C   -1.55399789524770      0.02108138320570      1.47095724941194
  N   -2.15139163612637     -0.20293680102865      2.45703813627717
  N   -1.56330710949487     -0.11534606293083     -0.96053909632455
  O   -2.23586948936108     -1.13343635311119     -0.86640920599793
  O   -1.40123624828340      0.57963174753415     -1.95951071256782
