15
Coordinates from ORCA-job run
  C   0.62992538097881     -0.17642877325627      0.31800074446614
  C   -0.81009648280697      0.38105244325032      0.18315137306885
  Cl  0.58180664084646     -1.80451558606595      1.04888992229466
  H   -0.74476527621386      1.39948879156071     -0.20986254981180
  C   1.35963024653351     -0.24000030721644     -1.02029362591685
  H   1.34280440794191      0.73712617043864     -1.50767403378208
  H   0.89080569096881     -0.97354637761187     -1.67526184737360
  H   2.39374768320089     -0.53673926721537     -0.84426914099314
  C   1.33092445721223      0.72599719360564      1.23360755960231
  N   1.89900178630290      1.48102314155102      1.93289640069868
  C   -1.53493824078620      0.36969559220965      1.44516143587143
  N   -2.11383436200627      0.40221471288455      2.46650992332849
  N   -1.57072726327070     -0.40120072087932     -0.86477647206159
  O   -1.44286959439382      0.01172586446491     -2.01379945226189
  O   -2.21141507450769     -1.37589287772022     -0.49428023712959
