15
Coordinates from ORCA-job run
  C   0.57761099095709     -0.26963104342696      0.35077799730155
  C   -0.75018471631991      0.50180889714880      0.14069350515229
  Cl  0.24065979128592     -1.86794285346269      1.07134622710538
  H   -0.50819380397311      1.49587335590345     -0.24540974031788
  C   1.35980892352810     -0.45026826249734     -0.94654220125852
  H   0.81978483879101     -1.10661883718075     -1.62805842699943
  H   2.32520762059782     -0.90142599558863     -0.71670768346192
  H   1.51864321531858      0.51542837199113     -1.43093094070765
  C   1.35803326662537      0.51873120274679      1.30674359111658
  N   1.99575019785034      1.18093949520685      2.03922051483465
  C   -1.53504905102203      0.60790816427418      1.36170914598121
  N   -2.15589298833142      0.73221579773393      2.35092258892111
  N   -1.56544843413975     -0.15907461118426     -0.94933957335028
  O   -2.36779430712286     -1.02144455416632     -0.61693781465525
  O   -1.31393554404516      0.22350087250182     -2.08848718966183
