15
Coordinates from ORCA-job run
  C   0.60683330337003     -0.48148937894334     -0.29745146700206
  C   -0.89034661408134     -0.13410660362504     -0.49767620688805
  Cl  1.22214822252739     -0.89236878838160     -1.93166586730517
  H   -1.39106248515546     -0.97030970923235     -0.98897485196016
  C   1.43198661726867      0.66109236037828      0.27832357987397
  H   1.35957165754317      1.53464049109500     -0.37084440758688
  H   1.07544028470012      0.92236477238142      1.27517179504840
  H   2.47509259428489      0.34973151961697      0.34039347824410
  C   0.70729322134207     -1.67400352971910      0.54360842604614
  N   0.80720830070158     -2.61151924691667      1.24567494446983
  C   -1.06097672584664      1.09571265470235     -1.25819934575719
  N   -1.19889926920886      2.08034587985377     -1.88335329941247
  N   -1.56181135565757      0.01249540138315      0.85431437062439
  O   -2.18334560850385     -0.96876316899902      1.24582698708616
  O   -1.40013214328420      1.07517734640617      1.44385186451901
