15
Coordinates from ORCA-job run
  C   0.57281191306580     -0.42961548165915     -0.08908262347626
  C   -0.81490651918550      0.18677245817348     -0.35563238781984
  Cl  0.69491084726364     -1.91104556133900     -1.08656840214197
  H   -0.89870294676234      0.40480569473218     -1.42246121553817
  C   1.66028155667467      0.55401068906225     -0.51507803900530
  H   2.63770221146345      0.08887786695865     -0.38557628703182
  H   1.61447546584653      1.45572353334054      0.09933124897991
  H   1.53113182415749      0.81668876229770     -1.56698325674543
  C   0.75019148841586     -0.78905084260326      1.31722411331009
  N   0.98199299410295     -1.03901489046512      2.44200133190598
  C   -1.01699872335054      1.38735953106357      0.44458891213188
  N   -1.14948426646090      2.37391905224929      1.06878963826581
  N   -1.92545009383224     -0.79742668917856     -0.05403655130324
  O   -2.57716553671906     -1.18236381218520     -1.01693547840720
  O   -2.06179021467981     -1.11864031044738      1.11941899687558
