15
Coordinates from ORCA-job run
  C   0.60375317487765     -0.25509939408679      0.31594003493982
  C   -0.81866317516696      0.35154703826430      0.20449358705148
  Cl  0.49055097560166     -2.00093204263437      0.67145517814693
  H   -0.71648058584415      1.42872856606473      0.04684068498724
  C   1.42860366419013     -0.04534986131753     -0.95025348853248
  H   2.44579795950488     -0.39378153598302     -0.77057229410917
  H   1.45138887876024      1.01336695867200     -1.21701612622175
  H   1.00509561084958     -0.61262891851721     -1.77842233108883
  C   1.24179053346732      0.41229992968848      1.45241860609803
  N   1.76155624511281      0.98505749005423      2.33765890502056
  C   -1.63433769596116      0.08407307572870      1.37946454650369
  N   -2.28606016661570     -0.09235483134899      2.34043572657827
  N   -1.50511836206981     -0.16860311246022     -1.03909632089980
  O   -1.29048111757343      0.47968460446997     -2.05931792483337
  O   -2.17739593913306     -1.18600796659427     -0.93502878364062
