15
Coordinates from ORCA-job run
  C   0.53522792797601     -0.55803576394775     -0.30059201284496
  C   -0.95456188301126     -0.13485461337142     -0.35947332140922
  Cl  0.90535024065237     -1.22352889378242     -1.92497014567639
  H   -1.55987583923419     -0.99033780742103     -0.66453010841745
  C   1.48912102269141      0.58942466486092      0.00208549739068
  H   1.28056155123054      1.00710423841652      0.98763735304366
  H   1.37968287332632      1.37086458367960     -0.75105284312271
  H   2.51302424549085      0.21527279467033     -0.01993267008017
  C   0.68406208236399     -1.63298705067472      0.68024479411057
  N   0.82840902254976     -2.47325202222724      1.48946643689114
  C   -1.15857686241673      0.99413294267920     -1.25601907711926
  N   -1.32523137273556      1.89591014392796     -1.98973527887292
  N   -1.43221296054803      0.23358486578128      1.03193429384451
  O   -1.13841309851398      1.35018429044924      1.44408541053956
  O   -2.04656694982150     -0.64248237304045      1.62985167172298
