15
Coordinates from ORCA-job run
  C   0.57092262537497     -0.43246668151800     -0.08701734792587
  C   -0.81392174403155      0.19063474157250     -0.35249780923314
  Cl  0.67861063513586     -1.92415198935137     -1.07033013921166
  H   -0.89917057901483      0.40757916889729     -1.41956776164266
  C   1.66229803462866      0.53998866781195     -0.52887387969173
  H   2.63762692287064      0.07092951575182     -0.39761786313972
  H   1.62427879703660      1.44931483845182      0.07487342957051
  H   1.53023888154138      0.79023668057517     -1.58342035970770
  C   0.75262649826371     -0.77852403340361      1.32199929380518
  N   0.98554345434335     -1.02070957865767      2.44831128710695
  C   -1.00917560363102      1.39300881892640      0.44687086674023
  N   -1.14053320782038      2.37635804865867      1.07620790328768
  N   -1.92928494119552     -0.78754032042409     -0.04724807241788
  O   -2.05630487169029     -1.11724014870079      1.12484256090433
  O   -2.59375490181158     -1.15941772859008     -1.00653210844452
