16
Coordinates from ORCA-job run
  C   0.52352772837260      0.21849637299853     -0.32067152610595
  C   -0.81831731597576     -0.12569684327362      0.36140314871958
  F   0.24005422723249      0.09127117744923     -1.69535161529539
  H   -0.66365137590819     -0.04416995885457      1.44230532404421
  C   1.62821426020867     -0.75962624348551      0.00351126176896
  H   1.80991218502874     -0.80414099511610      1.08030927567281
  H   2.53962293251725     -0.43520461584537     -0.50131057230819
  H   1.36884913050368     -1.75600949577780     -0.35364574355438
  N   0.91532935410343      1.55887785831158     -0.07218885384537
  H   0.11137983832889      2.14681149011528      0.10665222441512
  H   1.60582440588683      1.63715501982883      0.65836412053965
  C   -1.22342215938175     -1.51208097317221      0.06200419075180
  N   -1.57919417211782     -2.60604329193885     -0.17590323622979
  N   -1.80104112032036      0.87448106502366     -0.03435630783865
  H   -2.67085631137416      0.73737858450848      0.46502221617716
  H   -1.98623160710454      0.77750084922844     -1.02614390691157
