17

C	-0.435765	-0.011386	-1.450067
C	0.0	0.0	0.0
Br	0.037267	1.688858	-2.299112
H	1.093862	0.0	0.0
H	-0.349192	0.922287	0.467176
C	0.165377	-1.13802	-2.256761
H	-0.109111	-1.065692	-3.308212
H	-0.184088	-2.09757	-1.872792
H	1.250269	-1.075125	-2.140913
N	-1.963894	-0.05317	-1.512916
O	-2.575974	0.741626	-0.806173
O	-2.488647	-0.897222	-2.238596
C	-0.501084	-1.212097	0.783391
H	-1.593147	-1.283692	0.795123
H	-0.086812	-2.144177	0.395293
H	-0.160032	-1.119275	1.81685
Br	3.622103	0.0	0.0
