17

C	-0.443597	-0.015894	-1.447717
C	0.0	0.0	0.0
Br	0.012266	1.688899	-2.297103
H	1.093821	0.0	0.0
H	-0.349044	0.922626	0.466621
C	0.158769	-1.139565	-2.257798
H	-0.178679	-2.101811	-1.869555
H	-0.125174	-1.071583	-3.307021
H	1.244283	-1.068513	-2.151571
N	-1.972432	-0.070168	-1.489388
O	-2.580572	0.728473	-0.7833
O	-2.501078	-0.927273	-2.197164
C	-0.499966	-1.210427	0.787093
H	-1.59218	-1.278952	0.805891
H	-0.091253	-2.143921	0.396464
H	-0.152083	-1.118513	1.818289
Br	3.616869	0.0	0.0
