12

C	0.0	0.0	0.0
C	-0.280689	0.298445	-1.501956
Cl	1.791599	0.0	0.0
H	0.249703	-0.47359	-2.070152
H	0.225246	1.242798	-1.727911
C	-0.464116	1.064117	0.885181
N	-0.562013	1.9835	1.611991
C	-0.47223	-1.321248	0.407039
N	-0.582699	-2.446773	0.734123
C	-1.65353	0.376385	-2.008017
N	-2.486309	0.522681	-2.829937
F	-2.292233	0.0	0.0
