12

C	0.0	0.0	0.0
C	-0.280867	0.099049	-1.528063
Cl	1.791192	0.0	0.0
H	0.2293	-0.753328	-1.987861
H	0.24553	0.993328	-1.878123
C	-0.459976	1.176892	0.734773
N	-0.567338	2.188125	1.325661
C	-0.468237	-1.256453	0.58059
N	-0.568954	-2.33394	1.04229
C	-1.653698	0.144782	-2.036804
N	-2.484364	0.213666	-2.871269
F	-2.288004	0.0	0.0
