12

C	0.0	0.0	0.0
C	-0.464917	0.102813	-1.468408
Cl	1.788497	0.0	0.0
H	-1.576462	0.085187	-1.314085
H	-0.11716	1.05694	-1.871409
C	-0.469137	1.168713	0.750682
N	-0.588118	2.177606	1.341063
C	-0.448873	-1.246259	0.628528
N	-0.612628	-2.268561	1.184053
C	0.026516	-0.990803	-2.286613
N	0.389966	-1.864126	-2.984088
F	-2.481098	0.0	0.0
