12

C	0.0	0.0	0.0
C	-0.463795	-0.147097	-1.463456
Cl	1.788302	0.0	0.0
H	-1.575494	-0.133391	-1.311627
H	-0.103766	-1.107618	-1.842181
C	-0.460949	1.261219	0.600647
N	-0.637611	2.295931	1.131673
C	-0.466379	-1.139846	0.79681
N	-0.585017	-2.122453	1.432324
C	0.021282	0.931535	-2.306864
N	0.380293	1.793405	-3.020149
F	-2.480885	0.0	0.0
