12
Coordinates from ORCA-job run
  C   -0.44127408986473     -0.12853935645847      0.62408138412856
  C   0.47510290361738      0.24823076776250     -0.51487082165551
  F   0.04950091889356     -1.21094691313401      1.28237008561683
  H   0.50818484994947     -0.60257477226942     -1.21185030983862
  H   -0.59442107842048      0.68939569318626      1.32755380785297
  H   0.03473579900991      1.10095633454520     -1.03330497342388
  N   -1.79883039270053     -0.47896432352127      0.06588779542553
  O   -2.14892105642282     -1.65042732905562      0.06662239785170
  O   -2.42462452321354      0.47993232860730     -0.37724102937004
  N   1.75723595969288      0.63277278795958      0.05523768997469
  H   2.26302679825012     -0.19084445909496      0.35343699638290
  H   2.31928391120879      1.10900924147291     -0.63692302294511
