12
Coordinates from ORCA-job run
  C   -0.47314285859708     -0.03316933413844      0.61273703883265
  C   0.50559347434260      0.16563157539901     -0.51942244594713
  F   -0.04296321061606     -1.02526670771575      1.43521118783735
  H   0.11339796286014      0.94826899326817     -1.17021626058591
  H   -0.63674673427929      0.87633743639164      1.19009425658859
  H   0.54820769565702     -0.77287879715399     -1.09219743465594
  N   -1.81218207755808     -0.42887196176623      0.04026028253041
  O   -2.39060032403572      0.47289360611301     -0.55962324944484
  O   -2.19324979593723     -1.58202243793739      0.18180250577043
  N   1.76910511063906      0.59830649627793      0.05722946881704
  H   2.37418113046846      0.96978413525938     -0.66213184216278
  H   2.24039962705618     -0.18701300399735      0.48625649242013
