12
Coordinates from ORCA-job run
  C   -0.37476130135725     -0.58683222394477      0.64326659726259
  C   0.74199496380979     -0.38480273147300     -0.35084728929490
  F   -0.75665319426473     -1.89718668242384      0.66883982865856
  H   0.37023809524004     -0.74038080369056     -1.31299979015835
  H   -0.14508439396096     -0.25479586964894      1.65554644164316
  H   1.57978537387012     -1.02840599982270     -0.05383351596214
  N   -1.56549265550399      0.22546099085778      0.20774513741931
  O   -2.02243241095114     -0.03501671341671     -0.89987828071816
  O   -1.98010011674754      1.07223949591010      0.99235463722070
  N   1.04158888118303      1.03645189523228     -0.42548078284570
  H   1.34458298824202      1.29625417880323     -1.35220477859909
  H   1.76633377044062      1.29701446361714      0.22849179537401
