12
Coordinates from ORCA-job run
  C   -0.39320418953074     -0.52158463120366      0.68841738855423
  C   0.79065534874163      0.34277591310864      0.33238012572260
  F   -0.15894969192630     -1.81350359713439      0.33182588174964
  H   1.64875290438373     -0.03154983397629      0.90987179435292
  H   -0.66662645769381     -0.48111501459313      1.74416505650535
  H   0.57410022125472      1.35955836018353      0.66192328921696
  N   -1.59944570863094     -0.02332957251529     -0.07160874220066
  O   -1.96403906614448      1.10022581980059      0.25801408054242
  O   -2.09756091604363     -0.74380686439086     -0.92017412833918
  N   0.95428072294578      0.32950005221055     -1.11078070851690
  H   1.59968845410532      1.04868019466965     -1.40493230039457
  H   1.31134837853872     -0.56485082615934     -1.41910173719281
