12
Coordinates from ORCA-job run
  C   -0.39626611303595      0.00902522289710      0.57459828514493
  C   0.50351474494471      0.04714146633999     -0.65106244977822
  F   0.08087327370569     -0.88830110392052      1.47773031678083
  H   0.07321236988383      0.73823689970278     -1.37819007290171
  H   -0.51531366500756      0.97923164883010      1.05956452502087
  H   0.49310525283797     -0.95506535561585     -1.09036757302152
  N   -1.77763745232103     -0.41480689170464      0.15000253727509
  O   -2.41480942469832      0.45750698856968     -0.43454603762702
  O   -2.12609268428994     -1.56760748750868      0.36262550487936
  N   1.87415722124237      0.42120341773598     -0.37008186374615
  H   2.27406136322063     -0.19690197076741      0.32336198411139
  H   1.93219511351760      1.37033716544147     -0.02463515613785
