12
Coordinates from ORCA-job run
  C   -0.34905486985733     -0.55866251586479      0.65782118440113
  C   0.91615024570298      0.23344316731620      0.36959478241803
  F   -0.24482508832413     -1.81515708384988      0.14963702134218
  H   1.73538681290646     -0.29091437534371      0.87006785043295
  H   -0.60970340196718     -0.61262174238664      1.71623188616858
  H   0.81975287632809      1.21846900569922      0.82960018823220
  N   -1.50362946094513      0.13333691367323     -0.02014395613470
  O   -1.98049492379547     -0.37080383336428     -1.02742883022471
  O   -1.82265720150164      1.20215766336033      0.49285239594492
  N   1.23471218289510      0.38230980268203     -1.03435175291886
  H   0.57917708546643      0.99346075243492     -1.50283850231353
  H   1.22518574309182     -0.51501775435663     -1.50104226734821
