12
Coordinates from ORCA-job run
  C   -0.41614430986100     -0.83115005632753      0.18957680752544
  C   0.79547986606001      0.02285143819469      0.46904518239011
  F   -0.21395704267679     -1.58911202306005     -0.92205217899208
  H   1.63559318605159     -0.66060203500504      0.66133258478432
  H   -0.70059682177923     -1.47762164865387      1.02149783099521
  H   0.60148784150258      0.59124619594040      1.37941077984914
  N   -1.59865310857515      0.07586760504936     -0.05474197575423
  O   -1.93868741037789      0.72363929218896      0.92957685091618
  O   -2.10327317446402      0.09671973108815     -1.16473949023230
  N   0.97809721850051      0.94168320955225     -0.64119225876088
  H   1.30960561348716      0.44774249177647     -1.45892371698314
  H   1.65204814213222      1.65673579925621     -0.40679041573779
