12
Coordinates from ORCA-job run
  C   -0.31685039845091     -0.59346335118150      0.62652339621943
  C   0.77408354461463     -0.44502701633275     -0.42892862306925
  F   -0.72998168168843     -1.88666293598563      0.68577387453228
  H   1.57869710336509     -1.12739881836956     -0.14230850039790
  H   -0.02474332130040     -0.25241774876448      1.62023888130423
  H   0.35672436111175     -0.81388213527216     -1.37004227853243
  N   -1.48658625408179      0.26191348058156      0.22544958636401
  O   -1.47559432759504      1.41121963716412      0.66408672953199
  O   -2.29986168214308     -0.21929686580559     -0.55279073137047
  N   1.31179979135302      0.88309003899168     -0.62111044039943
  H   1.70748035651692      1.24957324834321      0.23423548549190
  H   0.60583250829823      1.53135246663110     -0.94212737967436
