12
Coordinates from ORCA-job run
  C   -0.36037885085948     -0.51372130582246      0.70677226140809
  C   0.76915152392439     -0.45565730824392     -0.28439093475418
  F   -0.83745572524508     -1.78760261035468      0.84556552630942
  H   1.58959914119726     -1.03783193671783      0.14230168801167
  H   -0.09500228169793     -0.11007544084428      1.68235545964740
  H   0.44906725564382     -0.94478002475119     -1.20970811790193
  N   -1.52880365287237      0.31792268518353      0.23072666486443
  O   -1.68009274906566      0.44272969170730     -0.98362063907882
  O   -2.26969679135974      0.76258602838710      1.10195962569141
  N   1.16420123800733      0.93956018200819     -0.42399998726765
  H   2.14993376216697      1.01713124901077     -0.62745007667416
  H   0.65047713016049      1.36873879043747     -1.18151147025566
