14

C	-0.566547	0.051471	-1.405537
C	0.0	0.0	0.0
F	0.040709	-0.961834	-2.165142
H	1.091776	0.0	0.0
H	-0.314392	-0.971618	0.416453
N	-1.986509	-0.129631	-1.377493
H	-2.359861	-0.105984	-2.319405
H	-2.180442	-1.040943	-0.977763
C	-0.283663	1.333732	-2.085673
N	-0.112758	2.356487	-2.636628
N	-0.472065	1.1577	0.74676
H	0.225864	1.414259	1.431918
H	-1.350193	0.971093	1.208779
Cl	3.493901	0.0	0.0
