13

C	0.0	0.0	0.0
C	-0.33568	0.437975	-1.45096
Br	1.970835	0.0	0.0
H	-0.038842	1.488678	-1.536387
H	-0.258625	0.777719	0.72668
H	0.32524	-0.134003	-2.106956
N	-0.533375	-1.298335	0.286696
H	-0.402873	-1.514963	1.267972
H	-1.540835	-1.23449	0.130747
N	-1.683418	0.272633	-1.935064
H	-1.900467	-0.709344	-2.040774
H	-2.397283	0.632592	-1.306897
Cl	-4.200967	0.0	0.0
