13

C	0.0	0.0	0.0
C	-0.484882	-0.032539	-1.436854
Br	2.02303	0.0	0.0
H	-1.554363	-0.259593	-1.355699
H	-0.25326	0.954558	0.455521
H	0.019921	-0.848629	-1.966448
N	-0.506988	-1.058792	0.75405
H	-0.251289	-1.97233	0.413453
H	-0.377994	-0.974018	1.748113
N	-0.241757	1.252223	-2.094223
H	-1.129755	1.722691	-2.209281
H	0.15973	1.116889	-3.010289
Cl	-3.968325	0.0	0.0
