13

C	0.0	0.0	0.0
C	-0.476609	-0.18621	-1.426321
Br	1.966549	0.0	0.0
H	-1.568432	-0.140164	-1.369628
H	-0.235983	1.020446	0.315168
H	-0.186446	-1.197006	-1.747459
N	-0.509508	-1.047753	0.835993
H	-1.524942	-1.035069	0.691638
H	-0.353234	-0.80432	1.807595
N	-0.004075	0.890153	-2.294139
H	-0.628755	0.969131	-3.085812
H	0.919877	0.671418	-2.643366
Cl	-3.69401	0.0	0.0
