13

C	-0.413842	-0.011862	-1.488817
C	0.0	0.0	0.0
F	0.082692	1.122252	-2.079671
H	1.097507	0.0	0.0
C	0.125058	-1.201711	-2.171135
N	0.486152	-2.157979	-2.750154
C	-1.883442	-0.003847	-1.642006
N	-3.052721	0.012568	-1.757066
C	-0.498862	-1.198252	0.66512
N	-0.903866	-2.17167	1.183895
C	-0.502265	1.212086	0.638556
N	-0.900162	2.192704	1.148525
Cl	3.085698	0.0	0.0
