17

C	0.0	0.0	0.0
C	-0.201782	0.189315	-1.552364
Cl	1.871808	0.0	0.0
H	0.465758	-0.527226	-2.015036
N	-0.29643	1.06049	0.927735
H	-1.280579	1.018844	1.195931
H	0.352217	0.982235	1.732748
N	-0.379965	-1.365078	0.336555
H	0.251941	-1.685084	1.062069
H	-1.351002	-1.357199	0.626112
N	0.378135	1.527941	-1.992994
O	-0.083997	2.560963	-1.544649
O	1.291496	1.464	-2.799338
N	-1.508061	0.113436	-2.152624
H	-1.672548	-0.868655	-2.30305
H	-2.173577	0.35715	-1.389598
H	-2.657636	0.0	0.0
