17

C	0.0	0.0	0.0
C	-0.555563	0.030813	-1.417192
Cl	1.852103	0.0	0.0
H	-1.661876	0.010344	-1.216164
N	-0.396227	1.242169	0.584052
H	-0.04987	2.015227	0.03229
H	-0.070831	1.301146	1.539667
N	-0.50134	-1.142579	0.672298
H	-0.273673	-1.062761	1.659156
H	-1.538068	-1.017018	0.580397
N	-0.201751	-1.238847	-2.158979
O	0.729981	-1.181934	-2.972443
O	-0.873157	-2.242088	-1.941882
N	-0.142656	1.198539	-2.126516
H	0.766009	1.029733	-2.54074
H	-0.807576	1.396676	-2.863232
H	-3.092922	0.0	0.0
