17

C	0.0	0.0	0.0
C	-0.476218	-0.009828	-1.466182
Cl	1.810759	0.0	0.0
H	-1.577178	-0.04078	-1.363418
N	-0.460607	1.18889	0.660429
H	-0.243744	1.985384	0.068392
H	-1.489308	1.067496	0.649437
N	-0.478013	-1.183462	0.638786
H	-1.50454	-1.132988	0.502291
H	-0.314744	-1.0483	1.632715
N	-0.079949	-1.294083	-2.175959
O	-0.795332	-2.279473	-2.022932
O	0.926347	-1.26285	-2.891929
N	-0.03364	1.146285	-2.174719
H	0.944171	1.035006	-2.416578
H	-0.567464	1.248559	-3.028648
H	-3.008035	0.0	0.0
