16

C	-0.482074	0.061304	-1.452084
C	0.0	0.0	0.0
Cl	0.015073	-1.432265	-2.321873
H	1.096448	0.0	0.0
H	-1.577717	0.057063	-1.481092
C	0.082797	1.268973	-2.180696
H	-0.151024	1.213701	-3.245401
H	-0.355188	2.189639	-1.784527
H	1.167566	1.297744	-2.0484
C	-0.513668	-1.197753	0.660506
N	-0.984318	-2.137172	1.186032
C	-0.446398	1.239024	0.78962
H	-0.191699	1.109765	1.842791
H	0.085878	2.120407	0.431695
H	-1.526157	1.406037	0.709968
Cl	3.37869	0.0	0.0
