16

C	-0.43279	-0.102744	-1.428109
C	0.0	0.0	0.0
Cl	-2.145991	-0.587646	-1.654492
H	1.093233	0.0	0.0
H	-0.293458	0.84057	-1.941469
N	0.430047	-1.090137	-2.170929
O	1.173646	-0.606882	-3.021228
O	0.359848	-2.276224	-1.867868
C	-0.41092	-1.111905	0.934162
H	0.209791	-1.053781	1.829079
H	-1.462285	-1.043256	1.221018
H	-0.22769	-2.068132	0.444646
N	-0.353947	1.308664	0.513294
O	-0.505539	1.419502	1.741616
O	-0.335954	2.282339	-0.262284
H	2.450521	0.0	0.0
