16

C	-0.61856	-0.026813	-1.372323
C	0.0	0.0	0.0
Cl	-0.151082	-1.498001	-2.263219
H	1.089369	0.0	0.0
H	-1.707252	0.009155	-1.357567
N	-0.224993	1.137291	-2.256249
O	-1.045369	1.437519	-3.12036
O	0.866601	1.652257	-2.083727
C	-0.297302	-1.252116	0.810088
H	0.008808	-1.05748	1.835948
H	-1.356811	-1.533371	0.787918
H	0.312972	-2.072181	0.428071
N	-0.471816	1.176969	0.688677
O	-0.163051	1.311611	1.883864
O	-1.084056	2.049633	0.034616
H	2.474106	0.0	0.0
