16

C	-0.380965	-0.096354	-1.453847
C	0.0	0.0	0.0
Cl	-0.065346	1.28838	-2.498589
H	1.091125	0.0	0.0
H	0.166253	-0.940746	-1.873272
N	-1.840952	-0.459886	-1.593188
O	-2.668619	0.361556	-1.213953
O	-2.091141	-1.585525	-2.027319
C	-0.422472	-1.2582	0.731605
H	-1.50488	-1.351793	0.842613
H	-0.029603	-2.125591	0.194247
H	0.031371	-1.24824	1.723128
N	-0.471321	1.205972	0.685396
O	-0.110072	2.295835	0.232649
O	-1.124829	1.073106	1.732966
H	2.567788	0.0	0.0
