16

C	-0.582412	-0.018269	-1.388814
C	0.0	0.0	0.0
Cl	-0.049825	-1.460474	-2.286923
H	1.089388	0.0	0.0
H	-1.671279	-0.004381	-1.41429
N	-0.175625	1.181252	-2.223113
O	0.816043	1.811621	-1.894172
O	-0.88902	1.399851	-3.200121
C	-0.391759	-1.20966	0.830652
H	0.012977	-1.070296	1.832404
H	-1.479804	-1.334815	0.889233
H	0.058528	-2.107176	0.406757
N	-0.470861	1.202772	0.676414
O	-0.074765	1.393126	1.83299
O	-1.214824	1.992305	0.059042
H	2.551478	0.0	0.0
