16

C	-0.621042	-0.013569	-1.372761
C	0.0	0.0	0.0
Cl	-0.166809	-1.479561	-2.279032
H	1.089376	0.0	0.0
H	-1.709485	0.029501	-1.354008
N	-0.224271	1.154838	-2.250059
O	-1.052897	1.469349	-3.102085
O	0.875704	1.6571	-2.088234
C	-0.300034	-1.254627	0.802236
H	-1.365268	-1.515141	0.805706
H	0.038464	-1.077058	1.822348
H	0.284333	-2.082735	0.396468
N	-0.469038	1.172581	0.699215
O	-0.17679	1.286793	1.899957
O	-1.065866	2.06032	0.048855
H	2.478813	0.0	0.0
