16

C	-0.436481	-0.07113	-1.430198
C	0.0	0.0	0.0
Cl	-2.190153	-0.376936	-1.652899
H	1.093291	0.0	0.0
H	-0.202741	0.850872	-1.94858
N	0.326796	-1.144159	-2.16306
O	0.085599	-2.318512	-1.908625
O	1.171034	-0.740332	-2.956968
C	-0.425064	-1.120735	0.915559
H	0.155277	-1.048037	1.835149
H	-0.19922	-2.073377	0.43818
H	-1.488317	-1.079067	1.157727
N	-0.35091	1.306508	0.527977
O	-0.532856	1.403574	1.752529
O	-0.309375	2.286554	-0.236632
H	2.466903	0.0	0.0
