15

C	-0.573713	0.059889	-1.410237
C	0.0	0.0	0.0
Cl	-0.243575	-1.49223	-2.231976
H	1.094454	0.0	0.0
H	-0.332911	-0.963143	0.397519
N	-1.946183	0.412978	-1.426394
H	-2.513375	-0.195247	-1.993106
H	-2.272171	0.537886	-0.475901
N	0.135292	1.155387	-2.242007
O	0.507169	2.12919	-1.596771
O	0.155452	1.05227	-3.459569
N	-0.599963	1.047185	0.839295
H	-0.37679	0.819821	1.801082
H	-0.114378	1.910916	0.626147
Cl	3.487294	0.0	0.0
