15

C	-0.366158	-0.036494	-1.473165
C	0.0	0.0	0.0
Cl	0.001844	1.515991	-2.235983
H	1.099983	0.0	0.0
H	-0.337917	-0.954676	0.414396
N	0.297234	-1.078765	-2.211439
H	1.297123	-0.908644	-2.113681
H	0.096952	-1.956405	-1.741202
N	-1.872707	-0.30924	-1.592582
O	-2.643793	0.556281	-1.977095
O	-2.193488	-1.442476	-1.235856
N	-0.659626	1.087526	0.715031
H	-0.56866	0.904451	1.706787
H	-0.137978	1.938546	0.537349
Cl	3.451246	0.0	0.0
