15

C	-0.362344	-0.084535	-1.476444
C	0.0	0.0	0.0
Cl	-0.183631	1.518176	-2.23759
H	1.092683	0.0	0.0
H	-0.400997	0.905904	0.458322
N	0.378732	-1.041913	-2.224565
H	1.360952	-0.793444	-2.106973
H	0.241758	-1.935218	-1.759084
N	-1.853922	-0.44309	-1.564206
O	-2.607658	0.241201	-0.876175
O	-2.194859	-1.389224	-2.261578
N	-0.444172	-1.247398	0.622948
H	-1.290398	-1.100441	1.15636
H	0.279991	-1.578003	1.246357
Cl	3.413424	0.0	0.0
