14

C	0.0	0.0	0.0
C	-0.186747	0.07157	-1.576005
Cl	1.795723	0.0	0.0
H	0.401779	-0.777242	-1.940427
H	0.378711	0.966027	-1.859502
C	-0.488755	1.187803	0.69086
N	-0.594383	2.222517	1.242967
C	-0.488578	-1.249161	0.57345
N	-0.600742	-2.335723	1.011465
C	-1.520607	0.083808	-2.301205
H	-2.130433	0.929966	-2.003922
H	-2.100274	-0.808994	-2.090658
H	-1.283739	0.139994	-3.375008
F	-2.313909	0.0	0.0
