14

C	0.0	0.0	0.0
C	-0.188296	-0.032919	-1.576068
Cl	1.795609	0.0	0.0
H	0.392547	0.829646	-1.919691
H	0.384949	-0.914703	-1.881714
C	-0.485893	1.234214	0.606877
N	-0.59725	2.307145	1.075988
C	-0.487163	-1.206085	0.659162
N	-0.593017	-2.257863	1.176849
C	-1.521668	-0.042156	-2.300797
H	-1.283066	-0.074282	-3.375088
H	-2.123973	-0.900513	-2.024849
H	-2.110375	0.840177	-2.076087
F	-2.31254	0.0	0.0
