14

C	0.0	0.0	0.0
C	-0.186138	-0.071586	-1.576833
Cl	1.795814	0.0	0.0
H	0.360172	-0.979062	-1.856339
H	0.420678	0.762756	-1.943706
C	-0.484495	1.249903	0.573155
N	-0.595722	2.33166	1.023135
C	-0.496273	-1.184877	0.690331
N	-0.601894	-2.220044	1.240832
C	-1.519744	-0.05461	-2.302384
H	-1.284103	-0.094749	-3.37735
H	-2.142892	-0.895692	-2.019779
H	-2.085661	0.84374	-2.078938
F	-2.313248	0.0	0.0
