14

C	0.0	0.0	0.0
C	-0.385192	0.077219	-1.4997
Cl	1.79793	0.0	0.0
H	-1.426041	-0.237848	-1.514312
H	0.267575	-0.627233	-2.028643
C	-0.474508	1.135934	0.786785
N	-0.58715	2.114885	1.429779
C	-0.439208	-1.264297	0.594651
N	-0.556941	-2.318586	1.10055
C	-0.24404	1.483199	-2.057821
H	-0.986974	2.131783	-1.586446
H	0.751744	1.905338	-1.894717
H	-0.436167	1.475502	-3.135729
F	-2.405188	0.0	0.0
