14

C	0.0	0.0	0.0
C	-0.390746	0.079908	-1.493673
Cl	1.796775	0.0	0.0
H	-1.443555	-0.193917	-1.489048
H	0.229989	-0.652785	-2.020156
C	-0.427438	1.15206	0.80114
N	-0.711722	2.034529	1.523835
C	-0.445867	-1.249429	0.619283
N	-0.621897	-2.237715	1.22921
C	-0.198581	1.472825	-2.066592
H	-0.898184	2.160945	-1.590172
H	0.818293	1.850667	-1.929261
H	-0.411082	1.469252	-3.140444
F	-2.422757	0.0	0.0
