14

C	0.0	0.0	0.0
C	-0.193119	-0.001714	-1.569915
Cl	1.795567	0.0	0.0
H	0.388116	-0.873506	-1.88424
H	0.386495	0.869983	-1.897057
C	-0.445869	1.225448	0.671407
N	-0.728516	2.179584	1.299419
C	-0.449324	-1.211865	0.670051
N	-0.729753	-2.156945	1.310027
C	-1.521353	-0.009028	-2.305268
H	-1.281152	-0.030441	-3.375156
H	-2.120141	0.862607	-2.069022
H	-2.12184	-0.865403	-2.023366
F	-2.31226	0.0	0.0
