16

C	-0.515073	-0.043083	-1.448533
C	0.0	0.0	0.0
Br	0.305979	-1.483286	-2.440415
H	1.094837	0.0	0.0
C	-1.96482	-0.19886	-1.514221
N	-3.131657	-0.345824	-1.517126
N	-0.156286	1.304386	-2.105687
O	0.988783	1.450991	-2.496274
O	-1.055001	2.142168	-2.097631
C	-0.468479	-1.200401	0.683985
N	-0.868136	-2.13925	1.26765
C	-0.456709	1.258776	0.746896
H	-0.130212	1.168882	1.784626
H	-1.540932	1.392076	0.719642
H	0.03315	2.137704	0.32541
Br	3.395067	0.0	0.0
