16

C	-0.422813	0.099497	-1.475148
C	0.0	0.0	0.0
Br	0.191593	1.748576	-2.283445
H	1.097142	0.0	0.0
C	0.095132	-1.010342	-2.264848
N	0.509929	-1.908511	-2.90056
N	-1.963436	0.060213	-1.556959
O	-2.463517	-1.014427	-1.874946
O	-2.562351	1.074052	-1.224755
C	-0.461472	-1.287218	0.517079
N	-0.851727	-2.303045	0.96198
C	-0.456411	1.13905	0.911823
H	-1.538146	1.163247	1.049854
H	-0.117891	2.094684	0.512781
H	0.029221	0.990251	1.878358
Br	3.356731	0.0	0.0
