12

C	-0.361431	-0.021966	-1.492936
C	0.0	0.0	0.0
Br	-2.287547	-0.244057	-1.801105
H	1.098772	0.0	0.0
H	0.120322	-0.893372	-1.944096
C	0.075069	1.191689	-2.172377
N	0.389087	2.173774	-2.738088
C	-0.458678	-1.219729	0.657908
N	-0.809379	-2.214387	1.174947
C	-0.516724	1.185612	0.673891
N	-0.92271	2.144513	1.217662
Cl	3.119369	0.0	0.0
