12

C	-0.346087	-0.038644	-1.496144
C	0.0	0.0	0.0
Br	-2.257055	-0.332751	-1.830974
H	1.098768	0.0	0.0
H	0.175028	-0.890593	-1.937664
C	0.052118	1.188051	-2.1733
N	0.328308	2.180302	-2.738802
C	-0.451315	-1.216922	0.668564
N	-0.799021	-2.205486	1.199119
C	-0.52889	1.187037	0.660662
N	-0.954573	2.143412	1.193514
Cl	3.10643	0.0	0.0
