12

C	-0.360982	-0.030661	-1.49239
C	0.0	0.0	0.0
Br	-2.289518	-0.219447	-1.800785
H	1.098762	0.0	0.0
H	0.10434	-0.914559	-1.933147
C	0.099905	1.165831	-2.184508
N	0.438632	2.143254	-2.741769
C	-0.461384	-1.214152	0.666167
N	-0.816592	-2.203399	1.190453
C	-0.510467	1.192968	0.665694
N	-0.91486	2.158545	1.198687
Cl	3.107717	0.0	0.0
