12

C	-0.503382	-0.018299	-1.460972
C	0.0	0.0	0.0
Br	0.150315	1.538634	-2.429098
H	1.0966	0.0	0.0
H	-1.593373	0.055349	-1.484127
C	-0.105422	-1.236077	-2.157032
N	0.142067	-2.227035	-2.739033
C	-0.487814	-1.198912	0.683254
N	-0.896096	-2.166531	1.210484
C	-0.493227	1.192857	0.685817
N	-0.901654	2.149029	1.232459
Cl	3.133829	0.0	0.0
