12

C	-0.418571	0.013238	-1.484787
C	0.0	0.0	0.0
Br	0.238529	-1.578704	-2.385227
H	1.09642	0.0	0.0
H	0.077519	0.86223	-1.962038
C	-1.864511	0.099655	-1.66709
N	-3.031113	0.168063	-1.794601
C	-0.519876	-1.167008	0.708045
N	-0.930797	-2.109637	1.2766
C	-0.466479	1.236256	0.629305
N	-0.831846	2.24788	1.102182
Cl	3.149259	0.0	0.0
