16

C	0.0	0.0	0.0
C	-0.404028	-0.08821	-1.488249
Cl	1.790905	0.0	0.0
H	0.106173	0.719931	-2.013866
H	-0.300194	1.002269	0.316217
C	-0.580559	-1.026048	0.9461
H	-0.262947	-0.800085	1.966358
H	-1.672737	-0.964311	0.906788
H	-0.262712	-2.033539	0.686112
N	-1.782834	-0.086746	-1.827498
H	-2.385308	-0.600624	-1.189064
H	-2.158721	0.851703	-1.843181
N	0.197494	-1.334056	-2.108088
O	1.017676	-1.186745	-3.011929
O	-0.211331	-2.415392	-1.692544
Br	-4.506797	0.0	0.0
