17

C	0.0	0.0	0.0
C	-0.600594	0.016155	-1.401981
F	1.350602	0.0	0.0
H	-1.652069	-0.288095	-1.249645
N	-0.567535	0.87086	0.952244
H	-0.316537	1.82737	0.729652
H	-1.592213	0.767904	0.880222
N	-0.255641	-1.46883	0.548301
O	-1.413246	-1.797598	0.746468
O	0.737264	-2.164929	0.738431
C	0.074795	-0.94219	-2.273134
N	0.623849	-1.681608	-3.002421
C	-0.598494	1.416036	-2.017826
H	-1.259421	2.059125	-1.437715
H	-0.994413	1.370775	-3.033854
H	0.409425	1.836807	-2.052937
Cl	-3.718207	0.0	0.0
