17

C	0.0	0.0	0.0
C	-0.436492	-0.079588	-1.498289
F	1.355198	0.0	0.0
H	0.531946	-0.055669	-2.01653
N	-0.517351	1.089449	0.681095
H	-0.277497	1.019115	1.664133
H	-1.541953	1.067777	0.583555
N	-0.228417	-1.348837	0.790267
O	-0.022681	-2.40983	0.21242
O	-0.440671	-1.231	1.991655
C	-1.084428	1.168862	-1.919691
N	-1.509736	2.154923	-2.39276
C	-1.208628	-1.296754	-2.036245
H	-2.088948	-1.483764	-1.426773
H	-0.564181	-2.172795	-2.065954
H	-1.539969	-1.059884	-3.049453
Cl	-3.507113	0.0	0.0
