17

C	0.0	0.0	0.0
C	-0.53378	0.262671	-1.401944
F	1.356197	0.0	0.0
H	-1.582427	-0.060374	-1.393689
N	-0.518749	0.869295	0.953426
H	-1.543808	0.848492	0.863453
H	-0.260408	0.538948	1.876057
N	-0.280444	-1.496368	0.385031
O	-0.716936	-2.267717	-0.460225
O	-0.002789	-1.782987	1.547858
C	0.225316	-0.503147	-2.390323
N	0.847567	-1.046691	-3.225629
C	-0.466097	1.755597	-1.743999
H	-1.131415	2.309595	-1.083665
H	-0.787608	1.905225	-2.776879
H	0.553642	2.13243	-1.630526
Cl	-3.516412	0.0	0.0
