17

C	-0.476682	0.070841	-1.45817
C	0.0	0.0	0.0
Cl	-0.258115	-1.584196	-2.137472
H	1.117385	0.0	0.0
C	-1.892331	0.417604	-1.603275
N	-3.004952	0.742178	-1.795832
C	0.411074	1.012274	-2.270665
H	0.14589	0.930677	-3.325783
H	1.453829	0.725344	-2.116986
H	0.2646	2.03725	-1.934848
N	-0.561498	-1.186972	0.712692
O	-1.791203	-1.24228	0.756109
O	0.222395	-1.997228	1.187109
N	-0.428785	1.184153	0.812051
O	-0.400213	1.040959	2.028554
O	-0.717478	2.2157	0.212922
Br	3.35568	0.0	0.0
