17

C	-0.449732	-0.019009	-1.462594
C	0.0	0.0	0.0
Cl	-2.219401	-0.330256	-1.613808
H	1.090724	0.0	0.0
C	-0.16073	1.281926	-2.071132
N	0.116073	2.268874	-2.64575
C	0.313436	-1.091678	-2.241374
H	0.076916	-0.99219	-3.301559
H	1.384878	-0.949648	-2.07163
H	0.025959	-2.082359	-1.896129
N	-0.482207	-1.220007	0.722359
O	-1.427873	-1.097805	1.495169
O	0.101846	-2.263539	0.452018
N	-0.467732	1.179157	0.787941
O	0.018615	1.267785	1.909892
O	-1.276337	1.952932	0.280203
Br	3.311961	0.0	0.0
