17

C	-0.495777	0.015193	-1.444427
C	0.0	0.0	0.0
Cl	0.157245	-1.447783	-2.248357
H	1.088546	0.0	0.0
C	-1.956292	0.003935	-1.562371
N	-3.115137	0.086183	-1.740438
C	0.082813	1.235926	-2.162797
H	-0.135097	1.152444	-3.228201
H	1.162578	1.256647	-1.99798
H	-0.363755	2.154154	-1.779251
N	-0.48863	-1.151146	0.817232
O	0.015912	-1.233874	1.93191
O	-1.342029	-1.897948	0.344782
N	-0.493299	1.226801	0.711194
O	0.216599	2.223852	0.646823
O	-1.588077	1.146569	1.269068
Br	3.342169	0.0	0.0
