12

C	-0.233694	0.003502	-1.478185
C	0.0	0.0	0.0
Br	-2.123472	0.021058	-2.028456
H	1.095798	0.0	0.0
H	0.207128	-0.896541	-1.901058
H	0.225869	0.88628	-1.911372
C	-0.535358	-1.149203	0.690244
N	-0.927923	-2.126224	1.2127
N	-0.425301	1.256694	0.644252
O	-0.350185	2.284732	-0.028508
O	-0.756821	1.218869	1.829298
F	2.44261	0.0	0.0
