12

C	-0.396766	0.076473	-1.466369
C	0.0	0.0	0.0
Br	-0.05661	-1.617443	-2.360152
H	1.094768	0.0	0.0
H	-1.451481	0.305377	-1.620231
H	0.232926	0.816291	-1.95135
C	-0.566884	-1.114184	0.7256
N	-1.025909	-2.02877	1.305108
N	-0.372642	1.265543	0.671005
O	-0.51645	2.262049	-0.044043
O	-0.444695	1.274928	1.897155
F	2.451414	0.0	0.0
