12

C	-0.391525	0.063504	-1.468773
C	0.0	0.0	0.0
Br	-0.085487	-1.648311	-2.339518
H	1.094752	0.0	0.0
H	-1.439862	0.313934	-1.629071
H	0.256194	0.781093	-1.962388
C	-0.573393	-1.102445	0.737479
N	-1.036748	-2.010413	1.323753
N	-0.369431	1.275829	0.653933
O	-0.4811	2.268563	-0.072394
O	-0.469852	1.296538	1.878851
F	2.450932	0.0	0.0
