14

C	-0.396354	0.058542	-1.478439
C	0.0	0.0	0.0
F	0.132608	-1.093051	-2.074178
H	1.09585	0.0	0.0
N	-1.802599	0.14136	-1.663274
H	-2.255553	-0.62249	-1.174102
H	-2.032914	0.099964	-2.649656
C	0.230917	1.213197	-2.160392
N	0.634032	2.127762	-2.776265
C	-0.500033	-1.225773	0.588852
N	-0.900088	-2.221667	1.072816
C	-0.468902	1.16573	0.722417
N	-0.771736	2.136433	1.314229
H	2.471098	0.0	0.0
