14

C	-0.3992	0.0663	-1.477951
C	0.0	0.0	0.0
F	0.13986	-1.074136	-2.083253
H	1.095815	0.0	0.0
N	-1.807393	0.134136	-1.659867
H	-2.247223	-0.639937	-1.174339
H	-2.035669	0.0875	-2.646135
C	0.214866	1.233992	-2.149311
N	0.612265	2.160201	-2.751317
C	-0.498033	-1.230389	0.581459
N	-0.895415	-2.229636	1.060847
C	-0.471674	1.15867	0.731842
N	-0.776259	2.125249	1.329435
H	2.471384	0.0	0.0
