14

C	-0.408007	-0.034161	-1.471129
C	0.0	0.0	0.0
F	-0.117069	-1.325286	-1.934701
H	1.102728	0.0	0.0
N	-1.771436	0.302443	-1.666101
H	-2.047605	0.166188	-2.631194
H	-2.360406	-0.237292	-1.04694
C	0.416374	0.886412	-2.290229
N	0.953464	1.622664	-3.030294
C	-0.469907	-1.173608	0.703063
N	-0.774873	-2.144242	1.297257
C	-0.419319	1.221529	0.657582
N	-0.665538	2.222057	1.22576
H	2.433905	0.0	0.0
