14

C	-0.385012	-0.297895	-1.450684
C	0.0	0.0	0.0
F	0.091239	-1.584782	-1.727211
H	1.102612	0.0	0.0
N	-1.782732	-0.198233	-1.677246
H	-2.012179	-0.498934	-2.617068
H	-2.283727	-0.7606	-1.000347
C	0.30714	0.607772	-2.39601
N	0.787002	1.279819	-3.231825
C	-0.502871	-1.049174	0.861809
N	-0.884666	-1.924176	1.551754
C	-0.466615	1.302626	0.427684
N	-0.783314	2.368943	0.809502
H	2.452412	0.0	0.0
