14

C	-0.396287	-0.373119	-1.43072
C	0.0	0.0	0.0
F	0.130211	-1.649802	-1.664488
H	1.103437	0.0	0.0
N	-1.80283	-0.34642	-1.634077
H	-2.030907	-0.681784	-2.563107
H	-2.25515	-0.930984	-0.940076
C	0.233274	0.528224	-2.422252
N	0.637135	1.211949	-3.286996
C	-0.496763	-1.002084	0.919993
N	-0.868911	-1.837962	1.661196
C	-0.463761	1.325774	0.358336
N	-0.759902	2.420432	0.673135
H	2.457463	0.0	0.0
