14

C	-0.489038	0.118257	-1.439783
C	0.0	0.0	0.0
F	-1.913138	0.024957	-1.448999
H	1.103938	0.0	0.0
N	-0.044654	1.31449	-2.033039
H	-0.49193	1.465356	-2.926932
H	-0.179484	2.10884	-1.421605
C	-0.051742	-1.03507	-2.254895
N	0.224006	-1.936466	-2.954268
C	-0.463043	-1.226196	0.619509
N	-0.763376	-2.240322	1.134409
C	-0.432924	1.162038	0.751418
N	-0.700661	2.158664	1.318011
H	2.455848	0.0	0.0
