15

C	0.0	0.0	0.0
C	-0.515963	-0.049712	-1.434116
F	1.386145	0.0	0.0
H	-1.604544	0.092011	-1.409009
H	-0.237353	-0.9881	-1.909467
C	-0.475919	1.184756	0.813692
H	-0.11276	2.105172	0.358481
H	-1.567916	1.183577	0.836024
H	-0.077171	1.09379	1.826025
C	-0.39457	-1.268918	0.649816
N	-0.573161	-2.292062	1.197747
N	0.113267	1.018984	-2.256582
O	-0.203459	2.185124	-2.026409
O	0.912667	0.663242	-3.123665
Br	-3.798359	0.0	0.0
