15

C	0.0	0.0	0.0
C	-0.513373	-0.005727	-1.437007
F	1.385902	0.0	0.0
H	-1.598924	0.158103	-1.411829
H	-0.258333	-0.939946	-1.932184
C	-0.473292	1.163168	0.84635
H	-0.108668	2.094184	0.414426
H	-1.564953	1.163192	0.872381
H	-0.071968	1.044538	1.85509
C	-0.397482	-1.28563	0.612752
N	-0.581016	-2.32548	1.126591
N	0.143816	1.065259	-2.231622
O	-0.137948	2.232436	-1.968339
O	0.933532	0.713426	-3.109046
Br	-3.793156	0.0	0.0
