15

C	0.0	0.0	0.0
C	-0.229896	-0.11312	-1.527782
F	1.392528	0.0	0.0
H	-0.047308	-1.136752	-1.85039
H	0.514852	0.552582	-1.96677
C	-0.547323	1.237043	0.656915
H	-1.643383	1.186221	0.646537
H	-0.213914	2.122555	0.114254
H	-0.188035	1.275166	1.6889
C	-0.408739	-1.232703	0.692906
N	-0.601271	-2.2468	1.254481
N	-1.514361	0.318559	-2.145577
O	-2.130559	-0.52409	-2.7897
O	-1.775038	1.515331	-2.068624
Br	-3.975878	0.0	0.0
