15

C	0.0	0.0	0.0
C	-0.512577	0.040528	-1.437219
F	1.385688	0.0	0.0
H	-1.598842	0.200513	-1.408764
H	-0.253416	-0.876587	-1.962232
C	-0.474387	1.133394	0.885149
H	-0.074865	0.979327	1.889722
H	-0.108072	2.078591	0.486834
H	-1.566304	1.131947	0.90826
C	-0.394782	-1.30651	0.570045
N	-0.579154	-2.360904	1.052585
N	0.141132	1.139126	-2.195607
O	0.926371	0.819662	-3.090118
O	-0.142487	2.296505	-1.889366
Br	-3.794311	0.0	0.0
