15

C	0.0	0.0	0.0
C	-0.516782	0.016258	-1.434772
F	1.385883	0.0	0.0
H	-0.210249	-0.886146	-1.960066
H	-1.607813	0.130941	-1.4042
C	-0.47857	1.149881	0.860829
H	-0.069504	1.026738	1.865789
H	-1.570403	1.140318	0.890906
H	-0.126969	2.090162	0.436756
C	-0.388124	-1.298773	0.593747
N	-0.556334	-2.355153	1.078071
N	0.087172	1.149872	-2.184388
O	0.980284	0.883212	-2.990662
O	-0.336083	2.281255	-1.951371
Br	-3.805853	0.0	0.0
