16

C	-0.486735	0.007225	-1.424828
C	0.0	0.0	0.0
Br	-2.42257	0.07395	-1.578918
H	1.092858	0.0	0.0
H	-0.321607	-0.966665	0.402072
N	0.045177	1.152669	-2.284204
O	0.721578	2.003393	-1.72261
O	-0.253425	1.114558	-3.471253
N	0.020011	-1.277673	-2.100554
O	1.078592	-1.175591	-2.700383
O	-0.624643	-2.295982	-1.901386
C	-0.507395	1.12384	0.896307
H	-1.587431	1.075025	1.052815
H	-0.010701	1.026446	1.86436
H	-0.243915	2.099672	0.492096
Br	3.53006	0.0	0.0
