16

C	-0.464775	0.027215	-1.431095
C	0.0	0.0	0.0
Br	0.336809	-1.385979	-2.450627
H	1.093227	0.0	0.0
H	-0.314402	-0.969027	0.394884
N	-1.981634	-0.155432	-1.593157
O	-2.5908	-0.623891	-0.639041
O	-2.456388	0.138791	-2.682936
N	-0.193316	1.386979	-2.075344
O	-0.973336	2.264404	-1.711554
O	0.758851	1.515945	-2.824645
C	-0.497472	1.131572	0.894266
H	-0.164745	0.910268	1.910741
H	-1.583873	1.229068	0.895773
H	-0.05504	2.086358	0.611378
Br	3.548633	0.0	0.0
