16

C	-0.462473	0.006219	-1.432069
C	0.0	0.0	0.0
Br	0.398669	1.394498	-2.435698
H	1.093207	0.0	0.0
H	-0.314008	0.960015	0.416915
N	-0.235544	-1.360044	-2.082649
O	-1.0741	-2.2021	-1.766972
O	0.74833	-1.529972	-2.780817
N	-1.969519	0.244605	-1.598615
O	-2.438142	0.025561	-2.708675
O	-2.58036	0.671768	-0.625493
C	-0.502389	-1.154105	0.861847
H	-1.58875	-1.251725	0.85503
H	-0.058423	-2.101093	0.554222
H	-0.17387	-0.962235	1.88587
Br	3.544387	0.0	0.0
