16

C	-0.472524	0.002037	-1.427018
C	0.0	0.0	0.0
Br	0.298848	-1.389955	-2.484856
H	1.090891	0.0	0.0
H	-0.334849	0.9421	0.442183
N	-2.004264	-0.069603	-1.438836
O	-2.565849	-1.09541	-1.789622
O	-2.541845	0.938973	-0.990043
N	-0.182555	1.322446	-2.146963
O	0.556817	2.116034	-1.586917
O	-0.729971	1.461937	-3.235836
C	-0.5315	-1.188002	0.792551
H	-0.085872	-1.161737	1.78845
H	-1.619988	-1.164296	0.903833
H	-0.24654	-2.134046	0.329856
Br	3.554267	0.0	0.0
