16

C	-0.471309	0.001789	-1.426297
C	0.0	0.0	0.0
Br	-2.40524	-0.089882	-1.58646
H	1.097319	0.0	0.0
H	-0.315559	-0.969406	0.400121
N	-0.017022	1.19798	-2.26275
O	-0.382158	1.215601	-3.429908
O	0.680482	2.027267	-1.699249
N	0.136658	-1.227496	-2.124401
O	1.127615	-1.023017	-2.809609
O	-0.373271	-2.305394	-1.8574
C	-0.524831	1.123313	0.885314
H	-0.121889	0.974267	1.88831
H	-1.614722	1.126475	0.949137
H	-0.178492	2.09274	0.534904
Br	3.535023	0.0	0.0
