16

C	-0.507149	0.00692	-1.415575
C	0.0	0.0	0.0
Br	-2.475049	0.184482	-1.516467
H	1.104525	0.0	0.0
H	-0.32719	0.938709	0.468849
N	0.107206	1.185231	-2.109015
O	1.383721	1.03974	-2.325567
O	-0.321101	2.311334	-1.664874
N	-0.201795	-1.235596	-2.220515
O	-0.724209	-2.312557	-1.744046
O	-0.211109	-1.080401	-3.500017
C	-0.466129	-1.166733	0.867986
H	0.023133	-2.103074	0.583427
H	-1.55562	-1.299569	0.823098
H	-0.195563	-0.95619	1.913241
Br	2.686208	0.0	0.0
