16

C	-0.516129	0.006098	-1.409753
C	0.0	0.0	0.0
Br	-2.419453	0.380849	-1.519449
H	1.092812	0.0	0.0
H	-0.317521	0.937091	0.461528
N	0.137613	1.076938	-2.280346
O	0.151962	0.866359	-3.486153
O	0.517439	2.080504	-1.698656
N	-0.204513	-1.333169	-2.070638
O	0.983083	-1.49199	-2.314255
O	-1.108804	-2.144108	-2.219647
C	-0.487848	-1.206192	0.795821
H	-1.576778	-1.296061	0.809232
H	-0.130351	-1.105938	1.822168
H	-0.061809	-2.13021	0.399669
Br	3.547555	0.0	0.0
