16

C	-0.443603	0.023379	-1.433194
C	0.0	0.0	0.0
Br	0.198305	-1.464107	-2.432143
H	1.098016	0.0	0.0
H	-0.339331	0.928052	0.458787
N	-1.990358	0.116808	-1.559074
O	-2.533831	-0.367301	-2.543674
O	-2.547939	0.735004	-0.657709
N	-0.027632	1.34896	-2.123517
O	-0.093885	2.342266	-1.409699
O	0.242698	1.323028	-3.314658
C	-0.504763	-1.2093	0.777777
H	-1.596786	-1.261546	0.807041
H	-0.139964	-1.129464	1.803667
H	-0.110383	-2.138023	0.36446
Br	3.552525	0.0	0.0
