16

C	-0.50168	0.096764	-1.420512
C	0.0	0.0	0.0
Br	-2.405909	0.436028	-1.558013
H	1.099023	0.0	0.0
H	-0.316333	-0.988177	0.353608
N	0.165474	1.208986	-2.235153
O	0.229426	2.299926	-1.689506
O	0.525376	0.931073	-3.370377
N	-0.156781	-1.205294	-2.168418
O	1.020879	-1.515597	-2.07516
O	-1.036839	-1.808325	-2.766583
C	-0.473427	1.066758	0.981924
H	-0.015382	0.843785	1.947759
H	-0.138663	2.055712	0.676987
H	-1.558204	1.07582	1.103644
Br	3.556192	0.0	0.0
