15

C	-0.304447	0.011381	-1.486444
C	0.0	0.0	0.0
Cl	-0.217349	-1.702095	-2.024925
H	1.088986	0.0	0.0
H	-0.413199	-0.838654	0.548851
N	-1.762982	0.439894	-1.738161
O	-2.598393	-0.051432	-0.986221
O	-1.990927	1.221391	-2.651807
N	0.568316	0.784545	-2.292266
H	0.3715	1.759096	-2.088959
H	1.50931	0.587406	-1.928766
N	-0.430105	1.219498	0.662221
O	-0.594494	1.173872	1.883898
O	-0.52591	2.256247	-0.013422
H	2.615079	0.0	0.0
