15

C	-0.288542	0.025046	-1.476238
C	0.0	0.0	0.0
Cl	0.030652	-1.568236	-2.299869
H	1.089228	0.0	0.0
H	-0.305795	0.949904	0.433044
N	-1.749316	0.337805	-1.82483
O	-1.98324	0.622791	-2.994422
O	-2.56922	0.318208	-0.913073
N	0.498997	1.073213	-1.989607
H	0.494444	1.062712	-3.001776
H	1.454901	0.953035	-1.623031
N	-0.561037	-1.046817	0.849815
O	-1.091395	-2.044912	0.361116
O	-0.413805	-0.856348	2.060466
H	2.651115	0.0	0.0
