15

C	-0.303503	-0.251475	-1.463421
C	0.0	0.0	0.0
Cl	-1.970523	-0.953045	-1.72808
H	1.091076	0.0	0.0
H	-0.37646	-0.833097	0.587488
N	-0.334264	1.09164	-2.284992
O	0.705503	1.358047	-2.873805
O	-1.352063	1.76667	-2.286294
N	0.673863	-1.133757	-1.90666
H	0.706914	-1.22275	-2.911511
H	1.592213	-0.867949	-1.50962
N	-0.494944	1.231563	0.59476
O	-0.119924	2.296	0.093336
O	-1.169422	1.141445	1.630206
H	2.629715	0.0	0.0
