13

C	0.0	0.0	0.0
C	-0.382625	-0.008726	-1.496983
Cl	1.778255	0.0	0.0
H	-1.500516	-0.151217	-1.416609
H	-0.233231	0.959438	0.440805
C	-0.71152	-1.059368	0.787589
N	-1.19583	-1.884296	1.489717
N	0.138429	-1.152799	-2.271786
O	0.178179	-1.042682	-3.507056
O	0.243742	-2.217564	-1.651122
C	-0.207453	1.239244	-2.209538
N	-0.258933	2.230481	-2.847136
H	-2.124232	0.0	0.0
