16

C	0.0	0.0	0.0
C	-0.302312	-0.030901	-1.555876
F	1.333094	0.0	0.0
H	-0.325271	-1.111918	-1.74876
N	-0.42286	1.292261	0.668663
O	-0.789314	1.323707	1.828505
O	-0.21344	2.258835	-0.057648
N	-0.411837	-1.25647	0.73958
O	-0.220471	-1.246222	1.948812
O	-0.743212	-2.230031	0.079067
C	0.884425	0.497709	-2.271582
N	1.755358	0.899708	-2.950087
N	-1.44402	0.685738	-2.094129
H	-1.670662	0.244055	-2.978918
H	-2.181849	0.475475	-1.380317
F	-2.418703	0.0	0.0
