16

C	0.0	0.0	0.0
C	-0.469762	0.138398	-1.471099
F	1.337369	0.0	0.0
H	-0.898172	1.136334	-1.526623
N	-0.359111	1.194015	0.865254
O	-0.62489	2.24529	0.298221
O	-0.17388	1.065477	2.069274
N	-0.359748	-1.350369	0.600348
O	-0.776659	-1.483243	1.734124
O	-0.045586	-2.261465	-0.16832
C	-1.534737	-0.789695	-1.884426
N	-2.182371	-1.49625	-2.570452
N	0.681033	0.078835	-2.381817
H	0.332726	0.338674	-3.29831
H	0.964132	-0.893711	-2.451463
F	-2.25696	0.0	0.0
