16

C	0.0	0.0	0.0
C	-0.272704	-0.203343	-1.566973
F	1.337363	0.0	0.0
H	0.009752	-1.25756	-1.675579
N	-0.387519	1.354973	0.531212
O	-0.76202	2.177996	-0.292286
O	-0.133153	1.577456	1.70969
N	-0.448306	-1.152925	0.867264
O	-0.897749	-0.956242	1.980444
O	-0.192225	-2.249579	0.370501
C	0.759142	0.582032	-2.275147
N	1.521167	1.217369	-2.902989
N	-1.524132	0.018899	-2.240587
H	-1.625682	1.025276	-2.322336
H	-2.210891	-0.203306	-1.477635
F	-2.434799	0.0	0.0
