16

C	0.0	0.0	0.0
C	-0.467643	0.059544	-1.460532
F	1.345711	0.0	0.0
H	-0.428214	1.127787	-1.700677
N	-0.412058	1.204053	0.826878
O	-0.163837	2.271013	0.267325
O	-0.843199	1.071802	1.956672
N	-0.311816	-1.317338	0.694926
O	-0.797046	-2.214185	0.023817
O	0.109322	-1.419699	1.843755
C	-1.855706	-0.397843	-1.720899
N	-2.575146	-0.813647	-2.569701
N	0.467752	-0.721546	-2.275255
H	1.104277	-0.106382	-2.763712
H	-0.090252	-1.22141	-2.955941
F	-2.378502	0.0	0.0
