15

C	0.0	0.0	0.0
C	-0.526845	0.053196	-1.453815
F	1.389471	0.0	0.0
H	-1.637242	-0.04401	-1.24555
N	-0.493658	1.07268	0.790758
H	-1.52556	0.914586	0.726017
H	-0.252365	1.950182	0.338357
C	-0.40107	-1.278145	0.634798
N	-0.545058	-2.296714	1.1999
N	-0.006398	-1.077251	-2.278535
O	-0.536049	-2.169834	-2.092517
O	0.917981	-0.856162	-3.061642
C	-0.168537	1.318617	-2.070595
N	0.061897	2.375663	-2.529139
F	-2.69928	0.0	0.0
