15

C	0.0	0.0	0.0
C	-0.245687	-0.208744	-1.522281
F	1.406564	0.0	0.0
H	0.383499	0.56196	-1.975262
N	-0.461872	1.26599	0.425785
H	-0.196524	1.375265	1.400755
H	-1.506304	1.088465	0.368588
C	-0.403027	-1.166882	0.816222
N	-0.498894	-2.118404	1.499985
N	-1.608411	0.031649	-2.134764
O	-1.872972	1.205634	-2.351524
O	-2.242476	-0.941988	-2.509932
C	0.243282	-1.523027	-1.936293
N	0.697069	-2.549631	-2.281296
F	-2.536465	0.0	0.0
