15

C	0.0	0.0	0.0
C	-0.230718	-0.114984	-1.556837
F	1.403305	0.0	0.0
H	0.472585	0.613459	-1.971622
N	-0.497847	1.14614	0.633026
H	-1.544828	0.92425	0.580908
H	-0.307006	1.950077	0.043226
C	-0.429916	-1.22113	0.705822
N	-0.589454	-2.208162	1.321013
N	-1.559518	0.332579	-2.111511
O	-2.283754	-0.49713	-2.636689
O	-1.717105	1.549081	-2.113148
C	0.116319	-1.434581	-2.06874
N	0.465302	-2.477336	-2.482176
F	-2.580435	0.0	0.0
