15

C	0.0	0.0	0.0
C	-0.40459	0.328088	-1.464972
F	1.363981	0.0	0.0
H	0.423452	-0.041313	-2.076643
N	-0.47141	0.983973	0.905602
H	-0.177556	0.716505	1.838914
H	-1.509482	0.84682	0.802006
C	-0.391866	-1.4044	0.305573
N	-0.509052	-2.529539	0.623859
N	-0.332063	1.82818	-1.632513
O	-1.372515	2.469956	-1.632382
O	0.802648	2.286384	-1.742374
C	-1.651591	-0.194747	-2.021651
N	-2.353023	-0.641095	-2.85621
F	-2.561964	0.0	0.0
