15

C	0.0	0.0	0.0
C	-0.309095	0.018855	-1.537082
F	1.398906	0.0	0.0
H	0.095218	-0.899777	-1.967089
N	-0.460324	1.053447	0.814317
H	-1.495283	0.909976	0.746797
H	-0.209165	1.933693	0.379578
C	-0.432643	-1.309928	0.526246
N	-0.578098	-2.410507	0.910129
N	0.537492	1.112136	-2.140803
O	0.250342	2.269216	-1.838913
O	1.459109	0.775051	-2.879643
C	-1.6813	0.22145	-2.013065
N	-2.483838	0.432756	-2.851982
F	-2.566848	0.0	0.0
