15

C	0.0	0.0	0.0
C	-0.506569	0.000959	-1.469397
F	1.37046	0.0	0.0
H	-1.615647	0.023428	-1.318603
N	-0.509532	1.096379	0.743653
H	-1.543153	0.938636	0.649846
H	-0.235208	1.957329	0.28051
C	-0.429264	-1.269807	0.634846
N	-0.619666	-2.310479	1.143554
N	-0.115261	-1.251525	-2.20128
O	-1.021933	-2.019424	-2.512777
O	1.082434	-1.427916	-2.421937
C	0.057643	1.14045	-2.172196
N	0.505989	2.072585	-2.729866
F	-2.69803	0.0	0.0
