12

C	-0.42474	0.026595	-1.435676
C	0.0	0.0	0.0
F	-1.814524	0.094753	-1.582963
H	1.091684	0.0	0.0
H	-0.002392	0.907657	-1.920888
H	-0.382	-0.855654	0.552249
C	0.026032	-1.190678	-2.130819
N	0.318673	-2.163901	-2.718212
N	-0.423595	1.209749	0.682511
O	-0.391164	2.273661	0.049056
O	-0.679326	1.127224	1.890248
H	2.590043	0.0	0.0
