12

C	-0.479255	-0.094567	-1.42376
C	0.0	0.0	0.0
F	0.036135	0.889888	-2.239684
H	1.088973	0.0	0.0
H	-0.113049	-1.054694	-1.805844
H	-0.297063	-0.886164	0.562325
C	-1.950864	-0.088658	-1.548251
N	-3.118448	-0.159315	-1.655861
N	-0.507562	1.156985	0.721938
O	-0.903246	2.136472	0.075694
O	-0.434617	1.118772	1.953053
H	2.616161	0.0	0.0
