12

C	-0.453807	-0.028164	-1.443793
C	0.0	0.0	0.0
F	-0.090163	1.178765	-2.025514
H	1.091501	0.0	0.0
H	0.045138	-0.83151	-1.986093
H	-0.358078	0.883941	0.523987
C	-1.916971	-0.162549	-1.584737
N	-3.084598	-0.2208	-1.687866
N	-0.428474	-1.183069	0.706459
O	-0.580107	-2.221432	0.036963
O	-0.493106	-1.134948	1.939488
H	2.580455	0.0	0.0
