15
Coordinates from ORCA-job run
  C   0.89765973217542     -0.55632009087084     -0.34515173789125
  C   -0.55737430380451      0.00208320388854     -0.26820236261981
  Br  0.87707423101046     -2.51573054957221     -0.51268107060221
  H   -1.07884320829361     -0.43123654257817     -1.13356915499662
  C   1.65091049440881     -0.19723677973244      0.85253458757459
  N   2.21879307101605      0.07758962895488      1.84422160234652
  C   1.54805614034545     -0.02594779714637     -1.54161813472193
  N   2.00359576367465      0.41569962215872     -2.53126437129499
  N   -0.41980928191519      1.44449442005917     -0.32738852520167
  H   -0.43456686587725      1.79333207301175     -1.27673829818264
  H   -1.13749311149689      1.91059695661685      0.21018100177658
  C   -1.25403376234708     -0.40927126334888      1.01703477108282
  H   -0.76593561803214      0.05741779744763      1.87613551774741
  H   -1.25371172418962     -1.49010466002467      1.15328652815752
  H   -2.29332155667454     -0.07336601886397      0.98321964682567
