15
Coordinates from ORCA-job run
  C   1.03266942682860     -0.27724055642149      0.15306983762245
  C   -0.39512159092731      0.18977906211740     -0.27480942992768
  Br  1.36991289581938      0.05119481191579      2.05504322864164
  H   -0.46448861220401     -0.13624975473892     -1.32576312144345
  C   2.02068361849931      0.47910511547592     -0.61404585868951
  N   2.75923409144049      1.11024770114286     -1.27603947223411
  C   1.19350807756798     -1.70813123368483     -0.09751648681365
  N   1.26511100143556     -2.86004516744814     -0.32122290368064
  N   -0.46380547384137      1.62522530906383     -0.11639734388741
  H   -1.40909068488541      1.92624717162524      0.07545632349131
  H   -0.12409351753089      2.11312579381121     -0.93484868218170
  C   -1.48501989855636     -0.50346838139283      0.52383075611583
  H   -1.48769554164778     -0.14321209290120      1.55361885444639
  H   -2.45509396887400     -0.27930319933295      0.07320572432896
  H   -1.35870982312419     -1.58727457923189      0.52641857421158
