15
Coordinates from ORCA-job run
  C   1.04818968993582     -0.24639647250657      0.07740238542156
  C   -0.39331034636347      0.19694955079117     -0.30822575330065
  Br  1.48827835721816      0.34304532184347      1.90364116923323
  H   -0.49904337793327     -0.13963067874715     -1.34754803183935
  C   2.01418723160753      0.36662090111906     -0.83154638386952
  N   2.78359372701983      0.82220465480684     -1.59416511131914
  C   1.17906494671431     -1.70127253468383      0.03504128891403
  N   1.23486406719210     -2.87425694721014     -0.02379022631768
  N   -0.41890086739331      1.64590031069034     -0.31090687099774
  H   -0.68736341048098      2.00467898888581      0.59701111251243
  H   -1.07190297262849      1.99199853409160     -1.00057915543704
  C   -1.45974001020043     -0.48247091798685      0.54331145913755
  H   -1.39112516766934     -1.57197027396665      0.50618503424721
  H   -1.38296279509835     -0.16404948190376      1.58518565338576
  H   -2.44382907191996     -0.19035095522382      0.16998343022944
