15
Coordinates from ORCA-job run
  C   0.95670558806774     -0.29358257862532     -0.48147781176369
  C   -0.44933361147889      0.34348086285001     -0.25381803099855
  Br  0.98073271779851     -1.33630591922076     -2.14892335361401
  H   -0.68324053441925      0.86971176854666     -1.19008904973894
  C   1.30761950666776     -1.17645954010825      0.62689050651757
  N   1.54930296683724     -1.90725807462318      1.51506414414266
  C   1.94620899866775      0.77263671095739     -0.62288544053144
  N   2.68851822242481      1.67533066171378     -0.74944150413587
  N   -0.29319098106101      1.22163373481399      0.88955560739343
  H   -0.01732935686652      2.15688549423214      0.62130702957336
  H   -1.13745546317537      1.26953370042058      1.44290884145323
  C   -1.50725192005228     -0.70830696112278      0.02991295952656
  H   -1.54959308549494     -1.46612164805533     -0.75162725877596
  H   -1.30499777740167     -1.19622835153702      0.98652349395253
  H   -2.48569527051386     -0.22494986024191      0.08609986699911
