15
Coordinates from ORCA-job run
  C   0.89420988535591     -0.49482365907511     -0.31043076860738
  C   -0.60482711172992     -0.01234798531176     -0.33452733807163
  Br  1.02505859308374     -2.44245612386744     -0.53434879080433
  H   -1.00977502143689     -0.39882390716365     -1.27631927766283
  C   1.51465521082942     -0.12055333561983      0.95722629932994
  N   1.94756622195619      0.22116220299357      1.99573562514895
  C   1.61344204048512      0.12180469990885     -1.42269514388649
  N   2.12678335637004      0.65500593068729     -2.33632320041112
  N   -0.70755550647457      1.42494391976885     -0.34908766451737
  H   -0.36804820841631      1.84098385465711      0.50959958558749
  H   -0.24587364415322      1.84901846492446     -1.14342491531978
  C   -1.39126393546665     -0.56782953863708      0.84104517748416
  H   -1.00438569688362     -0.17464263012997      1.78546816370647
  H   -2.42743851325477     -0.24433049792452      0.73863175500311
  H   -1.36154767026447     -1.65611139521076      0.87945049302082
