13

C	0.0	0.0	0.0
C	-0.560456	-0.609589	-1.278852
Cl	1.790289	0.0	0.0
H	-0.275434	0.029937	-2.119901
H	-0.305975	-0.595743	0.862944
H	-0.063197	-1.574081	-1.420883
C	-0.445792	1.377309	0.210152
N	-0.801334	2.477401	0.413613
C	-2.072833	-0.785844	-1.190124
H	-2.462804	-1.193434	-2.124419
H	-2.616843	0.138179	-0.997476
H	-2.355821	-1.469628	-0.389284
Br	-5.377958	0.0	0.0
