13

C	0.0	0.0	0.0
C	-0.503721	0.154978	-1.431323
Cl	1.792063	0.0	0.0
H	-1.563213	0.413368	-1.359325
H	-0.347852	-0.935104	0.439993
H	0.043002	0.982854	-1.894137
C	-0.396198	1.114179	0.864586
N	-0.609376	2.006165	1.597735
C	-0.348411	-1.134198	-2.225935
H	-0.61085	-0.969349	-3.273629
H	-1.032645	-1.887808	-1.829225
H	0.673304	-1.521856	-2.190159
Br	-3.671375	0.0	0.0
