13

C	0.0	0.0	0.0
C	-0.55238	-0.533769	-1.316205
Cl	1.790478	0.0	0.0
H	-0.06729	-1.498567	-1.501842
H	-0.309904	-0.645889	0.824432
H	-0.242829	0.143813	-2.118374
C	-0.441266	1.365179	0.283166
N	-0.745759	2.478845	0.495404
C	-2.068403	-0.685784	-1.260095
H	-2.596979	0.24713	-1.066813
H	-2.449047	-1.080851	-2.203996
H	-2.382212	-1.371823	-0.472723
Br	-5.377131	0.0	0.0
