15

C	-0.499704	0.028245	-1.430583
C	0.0	0.0	0.0
Cl	-0.095922	-1.512547	-2.302459
H	1.093901	0.0	0.0
H	0.073228	0.788517	-1.966734
H	-0.306983	0.967966	0.429573
C	-1.991496	0.265793	-1.605062
H	-2.567359	-0.542386	-1.14883
H	-2.267811	0.32625	-2.661173
H	-2.266209	1.206495	-1.116254
C	-0.537018	-1.132787	0.862951
H	-0.09055	-1.056565	1.858295
H	-1.62881	-1.136349	0.980939
H	-0.233889	-2.098257	0.451556
F	2.730742	0.0	0.0
