18

C	0.0	0.0	0.0
C	-0.477907	0.16592	-1.450931
F	1.391443	0.0	0.0
H	-1.564938	0.31721	-1.397254
N	-0.440245	1.158492	0.73126
H	-0.20475	1.031007	1.710287
H	-1.460317	1.171258	0.670266
C	-0.42072	-1.32838	0.608005
H	0.047403	-2.169922	0.093266
H	-1.508164	-1.415589	0.573573
H	-0.093696	-1.344888	1.652174
C	-0.184401	-1.047192	-2.337523
H	-0.810145	-1.886902	-2.035465
H	-0.411924	-0.815124	-3.379791
H	0.868285	-1.330438	-2.266685
C	0.134776	1.362987	-2.031602
N	0.601915	2.290415	-2.579656
Br	-3.81729	0.0	0.0
