18

C	0.0	0.0	0.0
C	-0.206228	-0.024882	-1.553963
F	1.423263	0.0	0.0
H	0.631652	-0.635286	-1.90951
N	-0.495105	1.178771	0.590608
H	0.108342	1.973	0.447389
H	-0.761912	1.067253	1.557006
C	-0.540315	-1.230272	0.672544
H	-0.204627	-1.259574	1.713999
H	-1.634179	-1.182933	0.628967
H	-0.184892	-2.129333	0.163772
C	-0.061086	1.373119	-2.160499
H	-0.046636	1.313185	-3.25111
H	0.881924	1.817851	-1.83151
H	-0.895336	1.999044	-1.84888
C	-1.383024	-0.694989	-2.11528
N	-2.149215	-1.285266	-2.782726
Br	-4.081513	0.0	0.0
