18

C	0.0	0.0	0.0
C	-0.452309	0.263206	-1.458719
F	1.375806	0.0	0.0
H	-1.544149	0.375833	-1.407721
N	-0.441006	1.014253	0.918552
H	-0.252134	1.932576	0.528619
H	-1.453198	0.919915	1.005987
C	-0.464522	-1.353563	0.493752
H	0.026418	-2.150904	-0.066452
H	-1.549287	-1.430888	0.399906
H	-0.182376	-1.436642	1.544816
C	-0.092459	-0.852409	-2.444336
H	0.969051	-1.100015	-2.373831
H	-0.686869	-1.740245	-2.226243
H	-0.3119	-0.544277	-3.468943
C	0.128165	1.530766	-1.907023
N	0.617884	2.534904	-2.271851
Br	-3.841043	0.0	0.0
