18

C	0.0	0.0	0.0
C	-0.482097	0.107013	-1.456376
F	1.400079	0.0	0.0
H	-1.576507	0.196241	-1.382749
N	-0.464057	1.141687	0.707277
H	-0.335453	1.039534	1.703924
H	-0.008031	1.984147	0.38197
C	-0.486738	-1.263946	0.66824
H	-0.181475	-1.252363	1.718593
H	-1.577442	-1.297177	0.606863
H	-0.03989	-2.142342	0.200674
C	-0.088981	-1.08883	-2.326609
H	-0.628108	-1.978601	-2.000657
H	-0.353155	-0.901609	-3.36906
H	0.985963	-1.272278	-2.265419
C	0.056564	1.337617	-2.040503
N	0.526838	2.305318	-2.512701
Br	-4.043821	0.0	0.0
