18

C	0.0	0.0	0.0
C	-0.445179	-0.109994	-1.47715
F	1.395616	0.0	0.0
H	-1.540125	-0.015019	-1.446466
N	-0.448499	1.201385	0.640216
H	-0.275467	1.999122	0.036078
H	-1.459598	1.118325	0.756861
C	-0.447108	-1.197962	0.812024
H	0.073602	-2.096802	0.479125
H	-1.52755	-1.327155	0.726592
H	-0.186521	-1.006082	1.85439
C	-0.052976	-1.420527	-2.163039
H	-0.612426	-2.246935	-1.723776
H	1.017412	-1.607393	-2.050386
H	-0.292149	-1.382171	-3.227805
C	0.096482	1.028302	-2.221437
N	0.526315	1.934543	-2.832798
Br	-3.818628	0.0	0.0
