18

C	0.0	0.0	0.0
C	-0.248715	0.306861	-1.512634
F	1.398433	0.0	0.0
H	0.361009	1.203819	-1.695169
N	-0.464943	1.027786	0.875651
H	-0.333852	1.942923	0.459678
H	-1.459835	0.899021	1.050058
C	-0.523201	-1.340284	0.453753
H	-0.207772	-1.503326	1.486245
H	-1.616014	-1.34318	0.407262
H	-0.127058	-2.138808	-0.174173
C	-1.68306	0.583266	-1.94266
H	-2.104555	1.41187	-1.375854
H	-1.700563	0.83316	-3.00842
H	-2.341839	-0.263459	-1.763914
C	0.339618	-0.751928	-2.338573
N	0.789016	-1.598492	-3.017807
Br	-4.396233	0.0	0.0
