15

C	-0.539732	-0.032242	-1.401763
C	0.0	0.0	0.0
F	0.04024	0.856213	-2.234694
H	1.085835	0.0	0.0
H	-0.343359	-0.860792	0.565707
N	-0.176039	-1.419649	-2.024824
O	-0.175512	-1.471192	-3.250098
O	-0.043628	-2.377275	-1.271426
N	-1.946345	0.140322	-1.487104
H	-2.428662	-0.471008	-0.843512
H	-2.268293	-0.005559	-2.436508
N	-0.434193	1.192346	0.714894
O	-0.790035	1.046982	1.894598
O	-0.321485	2.284724	0.153185
H	2.617217	0.0	0.0
