15

C	-0.28173	0.008847	-1.474374
C	0.0	0.0	0.0
F	-0.064827	-1.232575	-2.033572
H	1.089139	0.0	0.0
H	-0.332375	0.921367	0.470002
N	-1.735221	0.332395	-1.847267
O	-2.445398	0.850355	-0.991751
O	-2.059811	0.110629	-3.01067
N	0.521599	1.011149	-2.043192
H	1.471697	0.902559	-1.660999
H	0.529471	0.91235	-3.051571
N	-0.585956	-1.116916	0.745814
O	-1.400753	-1.858671	0.189765
O	-0.224406	-1.227836	1.91731
H	2.707541	0.0	0.0
