15

C	-0.670936	-0.016152	-1.347012
C	0.0	0.0	0.0
F	-0.170186	1.081574	-2.058834
H	1.087697	0.0	0.0
H	-0.286418	0.928499	0.498114
N	-0.275876	-1.180064	-2.254571
O	-1.121269	-1.543863	-3.073816
O	0.87124	-1.583225	-2.177296
N	-2.071195	-0.002738	-1.260311
H	-2.497472	-0.027819	-2.176609
H	-2.373532	0.798415	-0.726151
N	-0.460214	-1.091843	0.836073
O	-0.602783	-0.867665	2.046191
O	-0.567354	-2.211748	0.31848
H	2.594417	0.0	0.0
