15

C	-0.283775	-0.193341	-1.468802
C	0.0	0.0	0.0
F	-1.557826	-0.676035	-1.742917
H	1.090352	0.0	0.0
H	-0.432306	0.907712	0.40052
N	-0.425192	1.247029	-2.128367
O	-0.06058	1.337329	-3.29887
O	-0.949905	2.150274	-1.484629
N	0.6906	-0.941358	-2.085903
H	1.597031	-0.803854	-1.620855
H	0.727738	-0.78289	-3.082509
N	-0.46909	-1.116862	0.820298
O	-0.26286	-2.264964	0.428983
O	-0.98686	-0.829911	1.906863
H	2.671226	0.0	0.0
