15

C	-0.519972	-0.094445	-1.403481
C	0.0	0.0	0.0
F	-0.520659	-1.436423	-1.766303
H	1.090978	0.0	0.0
H	-0.356564	-0.836519	0.59307
N	-2.067981	0.176692	-1.418892
O	-2.53706	0.751424	-2.398599
O	-2.722842	-0.265443	-0.482988
N	0.135365	0.670483	-2.35099
H	-0.497055	0.995162	-3.067105
H	0.64662	1.424526	-1.91989
N	-0.407182	1.217204	0.66859
O	-0.493109	1.191968	1.901083
O	-0.523511	2.249906	-0.012964
H	2.584673	0.0	0.0
