15

C	-0.336533	-0.188778	-1.464966
C	0.0	0.0	0.0
F	-1.663537	-0.497604	-1.649261
H	1.086798	0.0	0.0
H	-0.421783	0.90378	0.429357
N	-0.16171	1.208071	-2.092618
O	0.797889	1.394209	-2.830505
O	-1.005774	2.043396	-1.777483
N	0.459699	-1.103033	-2.192266
H	1.433568	-0.867095	-1.975492
H	0.285506	-2.003466	-1.755017
N	-0.435633	-1.120189	0.81555
O	-0.795667	-0.872981	1.972963
O	-0.33987	-2.267984	0.354735
H	2.612424	0.0	0.0
