15

C	-0.273913	0.139119	-1.473627
C	0.0	0.0	0.0
F	-0.138447	-1.045723	-2.176738
H	1.093649	0.0	0.0
H	-0.347102	0.886587	0.521723
N	-1.732789	0.510885	-1.796406
O	-1.953352	0.90423	-2.939963
O	-2.576398	0.360731	-0.916144
N	0.553629	1.163116	-1.939206
H	1.501727	0.994005	-1.574801
H	0.538826	1.208351	-2.94952
N	-0.542712	-1.157731	0.700147
O	-0.946739	-0.961391	1.852852
O	-0.495929	-2.265007	0.161376
H	2.663776	0.0	0.0
