13

C	0.0	0.0	0.0
C	-0.501445	-0.117254	-1.443456
Cl	1.787653	0.0	0.0
H	-0.16725	-1.065057	-1.873213
H	-1.60239	-0.117937	-1.397807
N	-0.49634	1.209373	0.576861
H	-1.522944	1.160964	0.521589
H	-0.228877	1.259616	1.554278
C	-0.356466	-1.239302	0.729222
N	-0.58474	-2.229819	1.319604
C	-0.026845	0.983146	-2.274577
N	0.333284	1.836273	-2.995308
Br	-3.665217	0.0	0.0
