13

C	0.0	0.0	0.0
C	-0.476755	0.245475	-1.444496
Cl	1.792415	0.0	0.0
H	-0.165787	1.254543	-1.732839
H	-1.576067	0.206693	-1.40408
N	-0.498514	0.953947	0.947136
H	-1.518151	0.824239	0.974321
H	-0.311727	1.888097	0.595723
C	-0.378236	-1.357195	0.43343
N	-0.590016	-2.45255	0.799278
C	0.03768	-0.711706	-2.415796
N	0.45151	-1.469188	-3.211933
Br	-3.64976	0.0	0.0
