13

C	0.0	0.0	0.0
C	-0.474723	0.18373	-1.45787
Cl	1.793663	0.0	0.0
H	-1.573855	0.123751	-1.425117
H	-0.082561	-0.613561	-2.094768
N	-0.485581	0.967623	0.937172
H	-0.261462	1.896343	0.592048
H	-1.508732	0.862899	0.955111
C	-0.387821	-1.351459	0.44581
N	-0.633619	-2.436252	0.822594
C	-0.062321	1.479322	-1.979545
N	0.253343	2.531967	-2.393249
Br	-3.635853	0.0	0.0
