13

C	0.0	0.0	0.0
C	-0.503594	0.258032	-1.420921
Cl	1.792072	0.0	0.0
H	-1.601859	0.232993	-1.363807
H	-0.172273	1.260395	-1.703403
N	-0.49237	1.05878	0.836485
H	-0.253137	0.860365	1.801901
H	-1.5175	1.020274	0.75795
C	-0.370673	-1.360292	0.445516
N	-0.592203	-2.439964	0.85257
C	-0.01569	-0.719387	-2.386021
N	0.391676	-1.494154	-3.167277
Br	-3.654442	0.0	0.0
