13

C	0.0	0.0	0.0
C	-0.473168	-0.260769	-1.447838
Cl	1.792565	0.0	0.0
H	-1.571919	-0.313999	-1.396409
H	-0.073285	-1.206868	-1.821842
N	-0.487601	1.201532	0.605721
H	-0.273002	1.98674	-0.001599
H	-1.508773	1.101567	0.65871
C	-0.38725	-1.162221	0.820548
N	-0.580428	-2.130638	1.455654
C	-0.072388	0.828249	-2.329134
N	0.24926	1.714186	-3.029292
Br	-3.640364	0.0	0.0
