16
Coordinates from ORCA-job run
  C   -0.98967659374058      0.05719013678552     -0.38297460598244
  C   0.48522144996326     -0.40785942155644     -0.38889310383887
  Br  -1.90449023746867     -0.45131688750279     -2.00624909851641
  H   0.44983360972328     -1.47425117506110     -0.62796400576865
  C   -1.07156677527879      1.49927544538499     -0.21547696239438
  N   -1.04174929974936      2.66933275457542     -0.10244081036329
  N   -1.68966300415771     -0.63615353359327      0.78731709850044
  O   -1.67895807767362     -1.85814085940048      0.75513980574491
  O   -2.13844320900530      0.07559021763560      1.67745744873307
  C   1.11399750830415     -0.20415927587363      0.98968920377959
  H   1.08093787717108      0.84967670298563      1.28145826418388
  H   2.16110359741452     -0.51022679632053      0.94054662367896
  H   0.63001404636531     -0.79698474967835      1.76814884192862
  N   1.15193976957395      0.29720431991454     -1.46553933872804
  H   1.87879382859707     -0.27134162937770     -1.87666176517793
  H   1.56370550996141      1.16116475108259     -1.13355759577946
