16
Coordinates from ORCA-job run
  C   -0.98629930053146     -0.12073273655168     -0.41503975636120
  C   0.56485205963545     -0.14499451026319     -0.48254311110489
  Br  -1.73583726777312     -1.80573010982608     -0.99502229264267
  H   0.78331807473816     -0.56362946544400     -1.46971326620942
  C   -1.55449236189848      0.94498747915523     -1.22636953925242
  N   -2.05278376148756      1.75756298260371     -1.91393167776084
  N   -1.36618048693039      0.14635823584430      1.05420976734690
  O   -1.71671686319089     -0.78649736616371      1.75580409253460
  O   -1.17716202279822      1.30607645403879      1.40755139470373
  C   1.16157274341696     -1.04627939210133      0.59719243236350
  H   0.71814454405964     -2.04324081525370      0.60974769509861
  H   2.23342339258631     -1.14771683675884      0.41451074748184
  H   1.03499076181459     -0.59726088469717      1.58623748381700
  N   1.04531165389686      1.22373820342080     -0.48598489957049
  H   1.07340571271625      1.61017976038484      0.44930028021362
  H   1.97345312174586      1.26717900161205     -0.88594935065786
