16
Coordinates from ORCA-job run
  C   -0.95688478136767     -0.02588461452423     -0.46091734822821
  C   0.54002099621436     -0.39076367021180     -0.32953612576086
  Br  -1.70243537036538     -0.66256690871771     -2.12530464722275
  H   0.59203444811482     -1.46644428863530     -0.51890988236965
  C   -1.14372484081761      1.41340546981442     -0.37002074607959
  N   -1.19762009066796      2.58669451107043     -0.31467421260805
  N   -1.70421222888783     -0.71437686150872      0.68218473818412
  O   -1.61751941823044     -1.93361624799631      0.70643646214790
  O   -2.26568086524596      0.00291967025334      1.50119088638988
  C   1.04121479162594     -0.08624876566977      1.08240365928394
  H   0.53259203130002     -0.67370847486903      1.84924213129853
  H   2.10557149562465     -0.32570810292001      1.13081658650654
  H   0.92012816544171      0.97521217531701      1.31810463699395
  N   1.24594693747113      0.31005646786425     -1.38377093827099
  H   2.04144064584377     -0.22376915364530     -1.70437399148437
  H   1.57012808394644      1.21479879437873     -1.06387120878040
