16
Coordinates from ORCA-job run
  C   -0.97715205107915     -0.13909978223373     -0.43194476221660
  C   0.57530650844671     -0.13952189528664     -0.47178666800732
  Br  -1.68989545310796     -1.83906845137184     -1.01315082822606
  H   0.81750476012335     -0.56162624386906     -1.45197160346583
  C   -1.54732003188231      0.91291641493579     -1.25947697038991
  N   -2.04610893412489      1.71346263958346     -1.96064226380579
  N   -1.38610888565371      0.13120321045618      1.02958612562828
  O   -1.21776751633120      1.29526072923636      1.37912157871148
  O   -1.73682404483338     -0.80198823227188      1.73052065519112
  C   1.16638108258247     -1.02341565097408      0.62533682498295
  H   2.24289600781288     -1.10866409937774      0.46283027080148
  H   0.73885248348021     -2.02720756374562      0.63783504673979
  H   1.01466943676255     -0.56891259204807      1.60831188571927
  N   1.03488123367938      1.23642833206933     -0.47703990023864
  H   1.04029106943490      1.62990857605303      0.45569976111601
  H   1.96939433469014      1.29032460884453     -0.86022915254024
