16
Coordinates from ORCA-job run
  C   -0.94762623414447     -0.12344325109846      0.00282229731463
  C   0.55862146196858      0.18910429952979     -0.05646966477243
  Br  -1.37443399677904     -1.33473483928321      1.44458448028137
  H   0.64360374490716      0.92633280719842     -0.85992868222323
  C   -1.44832687164959     -0.67655587040144     -1.24715892940068
  N   -1.82299867923397     -1.11097413914742     -2.27401218994975
  N   -1.68339558963301      1.23064823319951      0.20429973015650
  O   -1.36949842927830      2.07545504283522     -0.62254542512564
  O   -2.49798080519254      1.33657332094912      1.10056282771338
  C   1.39421145823328     -1.03792982616811     -0.40056071387448
  H   1.05847517478909     -1.52720082346794     -1.31819110629753
  H   1.36397641552642     -1.76908600989037      0.41044899407798
  H   2.43321137271970     -0.72776023750003     -0.53645412187812
  N   0.89927771975787      0.87490257936772      1.17561488899035
  H   1.71610284162196      1.45678203461852      1.05089830843126
  H   1.07678041638685      0.21788667925868      1.92508930655641
