19

C	-0.387196	0.004769	-1.484701
C	0.0	0.0	0.0
Br	-0.105733	1.877778	-2.189398
H	1.096372	0.0	0.0
N	0.497755	-0.825945	-2.263272
H	1.444272	-0.718701	-1.885634
H	0.217685	-1.794947	-2.148012
C	-1.84176	-0.314696	-1.765762
H	-2.055079	-0.19527	-2.829502
H	-2.4817	0.345417	-1.17698
H	-2.051748	-1.352103	-1.479602
C	-0.421214	-1.310621	0.658444
H	-1.495844	-1.329801	0.866112
H	-0.149893	-2.176756	0.051868
H	0.122647	-1.409653	1.603862
N	-0.611039	1.099474	0.760704
H	-0.342333	0.951926	1.731016
H	-0.128839	1.949149	0.480675
H	3.008351	0.0	0.0
