19

C	-0.42549	0.087955	-1.470516
C	0.0	0.0	0.0
Br	0.075409	-1.681324	-2.404769
H	1.094451	0.0	0.0
N	-1.828522	0.307916	-1.615487
H	-2.348339	-0.458476	-1.204466
H	-2.077164	0.371878	-2.596062
C	0.383024	1.136237	-2.211131
H	1.444781	0.959275	-2.017653
H	0.181472	1.10414	-3.28582
H	0.110575	2.123895	-1.8311
C	-0.563409	-1.174409	0.780672
H	-1.655277	-1.1129	0.879569
H	-0.291808	-2.133689	0.338979
H	-0.144554	-1.1213	1.78718
N	-0.370253	1.253723	0.683046
H	-1.16076	1.685248	0.218777
H	0.426818	1.878955	0.63103
H	2.980629	0.0	0.0
