14

C	-0.631269	-0.107196	-1.499174
C	-0.013014	-0.109493	-0.100964
Br	-2.712734	0.008109	-1.286887
H	1.066923	-0.291156	-0.231146
H	-0.556862	-1.063287	-2.01665
N	-0.104514	0.956749	-2.218077
H	-0.578642	1.142951	-3.088681
H	-0.066485	1.765921	-1.60111
C	-0.536742	-1.213406	0.712445
N	-0.936544	-2.092104	1.382923
N	-0.081106	1.202062	0.496058
H	0.908413	1.330158	0.898951
H	-0.786703	1.23928	1.221487
H	2.366987	1.028788	1.051274
