15
Coordinates from ORCA-job run
  C   0.98884479758137      0.49706775672165      0.12683752136160
  C   -0.48386881799355      0.17462720618567      0.26236738995080
  F   1.35706442947094      1.38831920802231      1.09314863822171
  H   -0.61899969304492     -0.21114524058322      1.28451449483082
  H   1.24829437655734      0.89234584561461     -0.85446672482850
  N   1.79468267519154     -0.75387938430172      0.32603353872161
  O   2.22802919934828     -1.28788321149847     -0.69305232774322
  O   1.90416134653217     -1.16845743609041      1.47461422034335
  C   -0.91549597319328     -0.87640186074015     -0.74697084542260
  H   -0.41709276885709     -1.83200990554621     -0.58008683232282
  H   -1.99154642693162     -1.04644707475537     -0.66193364935974
  H   -0.70200683448135     -0.53815933741294     -1.76300273648990
  N   -1.18602272054495      1.42786097921044      0.00774724625410
  H   -2.18250553271070      1.25698018740666     -0.04447869293146
  H   -1.02353805692417      2.07718226776714      0.76772875941423
