15
Coordinates from ORCA-job run
  C   0.98671194245509      0.47478956425156      0.20557692124701
  C   -0.49363064993408      0.16239857031359      0.25140513659212
  F   1.31972942771023      1.29094008143962      1.24766062673388
  H   -0.67982845329135     -0.29147393436925      1.23693262319227
  H   1.29456428551745      0.93491873336567     -0.73264358306782
  N   1.76973276747597     -0.79779823275943      0.35137782510183
  O   1.81995779697329     -1.29365862938056      1.47168386844708
  O   2.24591019415028     -1.26427657918881     -0.68146042448028
  C   -0.88854996201608     -0.81097747344142     -0.84708854737888
  H   -0.62513052050467     -0.40614684893382     -1.82638805733898
  H   -0.40832134160161     -1.78241947057665     -0.72446022619103
  H   -1.96912540481151     -0.97155076173956     -0.82299203408848
  N   -1.17260598598508      1.43848123650639      0.05381220189788
  H   -2.16822526499204      1.28396285334456     -0.04546811184767
  H   -1.03218883114589      2.03381089116810      0.86105178118106
