15
Coordinates from ORCA-job run
  C   0.96269793846055     -0.51237658303266      0.13705073555907
  C   -0.43378489661319      0.07883366310378      0.26084699292839
  F   1.13795431631872     -1.16698407525776     -1.03280590877429
  H   -0.53632078290861      0.39992091516975      1.30520686320774
  H   1.21079015657518     -1.18091905074443      0.96645646967326
  N   1.96996899733209      0.61212942414476      0.20762247162324
  O   1.88114696188943      1.30353878849253      1.22056702812059
  O   2.76563318378511      0.75113410183187     -0.70621135278625
  C   -1.46219608724346     -0.99946453370074     -0.04518306428016
  H   -2.46805040499533     -0.62399959968968      0.15622407167246
  H   -1.39594622493991     -1.28580917558161     -1.09564155062601
  H   -1.30587789966538     -1.88947139993498      0.56828763406391
  N   -0.55065549145106      1.18068850126674     -0.68680746642579
  H   -0.26860373505186      2.05322734212172     -0.25838366799017
  H   -1.50675603149230      1.28155168181072     -0.99922925596599
