15
Coordinates from ORCA-job run
  C   0.87711435220048      0.02163546202060      0.81307425570159
  C   -0.56865677202390      0.18946460015052      0.36918815992215
  F   1.01519464859184     -1.11042575003682      1.55753286580885
  H   -1.13066835235791      0.28497594158775      1.31332946251862
  H   1.24451043857807      0.87305362473582      1.38832885772582
  N   1.79760109415605     -0.07684155185557     -0.37295847296529
  O   1.86848326387722     -1.16357410359319     -0.93644108858408
  O   2.38845205281889      0.95295789040731     -0.68071010632175
  C   -1.09798006260639     -1.02204590623897     -0.38205883456351
  H   -0.91386722339587     -1.94213101168205      0.17165684555644
  H   -2.17725673210242     -0.91602952102654     -0.52017571170782
  H   -0.62628956981862     -1.10033398322916     -1.36138793295962
  N   -0.63692865202833      1.36705531313845     -0.48387547641280
  H   -1.54818819158824      1.42427407059222     -0.91989408063396
  H   -0.49052029430089      2.21896492502964      0.04439125691536
