15

C	0.0	0.0	0.0
C	-0.564261	0.049816	-1.42032
Br	1.951288	0.0	0.0
H	-1.616667	0.354416	-1.296569
H	-0.330478	-0.932979	0.457233
C	-0.392688	1.109346	0.867736
N	-0.619788	1.975514	1.627927
C	-0.494009	-1.287867	-2.116038
H	-0.864942	-1.202999	-3.136278
H	-1.149346	-1.970811	-1.571689
H	0.524339	-1.680428	-2.146553
N	0.108375	1.135225	-2.201823
O	0.140691	2.247586	-1.681749
O	0.566576	0.865081	-3.312477
Br	-3.569371	0.0	0.0
