15

C	0.0	0.0	0.0
C	-0.563336	0.148964	-1.413819
Br	1.951273	0.0	0.0
H	-1.616942	0.443234	-1.269499
H	-0.334338	-0.961771	0.389643
C	-0.391964	1.045486	0.945426
N	-0.591214	1.858404	1.76948
C	-0.494766	-1.13865	-2.199643
H	-0.868953	-0.984627	-3.210758
H	0.523908	-1.52778	-2.258698
H	-1.1488	-1.857319	-1.701551
N	0.107855	1.284766	-2.121092
O	0.179039	2.348128	-1.510705
O	0.52137	1.104545	-3.26667
Br	-3.556703	0.0	0.0
