14
Coordinates from ORCA-job run
  C   0.81246486500586     -0.33820913194478     -0.43668965691248
  C   -0.64314018967637      0.03292125096277     -0.76371869696990
  F   0.92410285643016     -1.70695895185837     -0.61492406815959
  H   -0.91562903601411     -0.41674899345197     -1.72062583434539
  H   1.43397274259212      0.14473174495704     -1.19800880392224
  C   1.27071457068503      0.02981581226424      0.95303556696901
  H   2.32571014226589     -0.22849426973370      1.05284572315890
  H   0.70628164857189     -0.52025139067539      1.70559806728490
  H   1.15137448050842      1.09890700667050      1.13603992947936
  C   -0.81705878172501      1.47817067159492     -0.79175164129638
  N   -0.90462580389077      2.64770854198442     -0.84547821921789
  N   -1.56992504368635     -0.58143931725062      0.25655157844633
  O   -1.75063017443381      0.04550162204409      1.29536201474854
  O   -2.02261227663295     -1.68365459556315     -0.02923595926318
