14
Coordinates from ORCA-job run
  C   0.76163054901390      0.44374235822525     -0.01256873388667
  C   -0.53268365687188     -0.00912620622873     -0.70441382761226
  F   1.66545187434923      0.67526501987768     -1.03832325664092
  H   -0.34801269292210     -0.92184818599147     -1.27350780757886
  H   0.57949383466837      1.39558649311303      0.49244001141494
  C   1.31687597838382     -0.59680801374850      0.92839213265981
  H   2.29475640058306     -0.26581819399511      1.28061014062161
  H   0.66970584422441     -0.73096329045549      1.79675081567769
  H   1.43425332615962     -1.55591158958846      0.42033153078539
  C   -1.08216061711395      1.03410514087144     -1.56097461561158
  N   -1.50688910929194      1.87770262043016     -2.25789119662443
  N   -1.52604336943115     -0.36209325762446      0.36939679051648
  O   -1.95284617402247      0.57183672750755      1.04028389202787
  O   -1.77353218772891     -1.55366962239288      0.52047412425091
