14
Coordinates from ORCA-job run
  C   0.43436959701279     -0.56460147888829      0.38285780205661
  C   -0.56583735214324      0.11512410805138     -0.55158054880002
  F   -0.11322336533645     -0.53338630013307      1.65561073188334
  H   -0.22677007173939      0.01588658535957     -1.58677682757745
  H   0.50409400476360     -1.61305401654502      0.08279107334818
  C   1.78100433986110      0.11563920273238      0.39326832089561
  H   2.44818595315334     -0.42061141649461      1.06922560533858
  H   1.68731021809392      1.14474352933442      0.74347132957697
  H   2.22619629518933      0.11551322409526     -0.60436065579423
  C   -0.77665788690401      1.51648318395743     -0.21434428303393
  N   -0.86688405225389      2.65796938545116      0.04395453842017
  N   -1.87235836179646     -0.65378519220306     -0.48451554904452
  O   -2.86685625709726     -0.07905301550212     -0.06611643372154
  O   -1.79457306080338     -1.81686779921542     -0.86248510354779
