14
Coordinates from ORCA-job run
  C   0.59829742780560     -0.52997580810232     -0.12453950485029
  C   -0.65318429325846      0.32438022449767     -0.32286711403353
  F   0.25488083544273     -1.55920996466739      0.73759574360423
  H   -0.45831318074543      1.09027512775053     -1.07911761989379
  H   0.84512935310327     -0.98034838839788     -1.08898798815197
  C   1.75331149667813      0.25052307033632      0.45250908223580
  H   1.49419465384609      0.64615788667216      1.43575585671468
  H   2.03290469707026      1.07735210884069     -0.20439736825983
  H   2.61416872033556     -0.41028581461900      0.56140965133578
  C   -1.11004035519370      0.93546055967265      0.91803022585945
  N   -1.40757389801679      1.46745623904427      1.92122826193450
  N   -1.73775763336427     -0.55557818467891     -0.91666884947054
  O   -2.76184213530830     -0.73352298397197     -0.27322297591806
  O   -1.46517568839468     -1.02168407237682     -2.01672740110645
