14
Coordinates from ORCA-job run
  C   0.54781236811711     -0.58696833835997      0.10963242767291
  C   -0.63259845937007      0.21810229154806     -0.43228308018356
  F   0.14643163010298     -1.13133424332975      1.31961218184085
  H   -0.40085662489495      0.57647657444653     -1.43933079660179
  H   0.72460801855051     -1.41681459362956     -0.57901762822615
  C   1.78280500440867      0.25443730868265      0.31773370337877
  H   2.58750507835801     -0.37698490940652      0.69635743361558
  H   1.58963477334746      1.04308078402415      1.04664568398032
  H   2.11039891168589      0.70666756047751     -0.62121124094737
  C   -0.99252871929401      1.33134596894046      0.43567900388024
  N   -1.22395808776822      2.26799819811596      1.10421119065141
  N   -1.80741768208822     -0.72652225841284     -0.60450655623968
  O   -2.81494666385327     -0.53318951069381      0.06018209760294
  O   -1.61788954730190     -1.62629483240288     -1.41470442042448
