14
Coordinates from ORCA-job run
  C   0.82921039711415      0.24701267410158     -0.16869203959575
  C   -0.61097666460772     -0.00849909020497     -0.63763182307213
  F   1.61764949119741      0.08242784967937     -1.29752197287124
  H   -0.69716858057409     -1.02373031154894     -1.02877290293789
  H   0.91896390308595      1.28796543761369      0.15144729089063
  C   1.27398147997789     -0.71396926759181      0.90590899362378
  H   0.73130141885369     -0.54464520282153      1.83737828546717
  H   2.33651344192546     -0.55922233575718      1.09826368647388
  H   1.12315635662268     -1.74745464454374      0.58828686537794
  C   -1.03808146447123      0.96909686703817     -1.63054779819305
  N   -1.36529748523769      1.75434958229800     -2.43923592964796
  N   -1.50614096080418      0.06847335158360      0.56944638875506
  O   -1.97446751552543     -0.98943106423413      0.97624246950037
  O   -1.63764381755689      1.17762615438789      1.07642848622920
