14
Coordinates from ORCA-job run
  C   0.81754904641564      0.26868949247563     -0.18891362105504
  C   -0.62227665224166     -0.04117187429680     -0.62499535954881
  F   1.59104876719881      0.10095881468075     -1.32733038884701
  H   -0.68570475299763     -1.06744085051498     -0.99084641199540
  H   0.88041088328720      1.31928280382180      0.10514458502797
  C   1.31023821327809     -0.65217337066721      0.89997498793092
  H   2.37145260975021     -0.46262914572356      1.06662680612956
  H   1.18269951703076     -1.69722712844335      0.61127757908101
  H   0.78123424033259     -0.47503532536347      1.83784183852588
  C   -1.09637392290320      0.89773714176133     -1.63391476072272
  N   -1.45548132230858      1.63879709519604     -2.47035464097213
  N   -1.49704168551782      0.03819234395829      0.59661287083355
  O   -1.92471699797366     -1.02312029250455      1.03783013077771
  O   -1.65303794335077      1.15514029562004      1.07904638483444
