14
Coordinates from ORCA-job run
  C   0.81041550412711      0.18011777807032     -0.29675655464616
  C   -0.68739305538716     -0.04395742562085     -0.55341173874687
  F   1.44093855953838     -0.15279497652819     -1.48595414388285
  H   -0.86507674077522     -1.08936743268682     -0.81159960372198
  H   0.98364296938057      1.24353102230412     -0.11397536132362
  C   1.34751324950351     -0.67943850462496      0.82084439037151
  H   1.11022617070073     -1.73115404098938      0.64931730103142
  H   2.43193024636242     -0.56765831939499      0.85952305431382
  H   0.93903990845869     -0.37534075387248      1.78600240979204
  C   -1.19684609529160      0.84105322885743     -1.59316034906363
  N   -1.59082297088045      1.54976638641908     -2.44186219430323
  N   -1.41628331295701      0.21388303227160      0.73739052129188
  O   -1.86918962807051     -0.76615087643795      1.31904787848585
  O   -1.43709480470948      1.37751088223304      1.12459439040184
