14
Coordinates from ORCA-job run
  C   0.83081126824904      0.26238111118508     -0.13397594618128
  C   -0.59276492047320      0.01330500786328     -0.65377134423570
  F   1.65245179575287      0.15592284480339     -1.24583363069059
  H   -0.65934584375438     -0.98555075532117     -1.08833029239849
  H   0.89902956071433      1.28907290867232      0.23414522973842
  C   1.25603618090192     -0.74071380881111      0.90985172474838
  H   0.68832970863999     -0.61592078765092      1.83342359976058
  H   2.31202180197315     -0.58657170374498      1.13578868668816
  H   1.12196342634523     -1.76070660929009      0.54461748094658
  C   -1.00164176654173      1.02681623013698     -1.61792518002057
  N   -1.31605377780835      1.84042015925946     -2.40341229933845
  N   -1.52187913855191      0.03208441904400      0.52960973888318
  O   -1.67754750705587      1.11750858844403      1.07913011361296
  O   -1.99141078839107     -1.04604760459028      0.87768211848679
