14
Coordinates from ORCA-job run
  C   0.79809697975332     -0.33938240068080     -0.46320728739791
  C   -0.66654166529667      0.03393756665405     -0.74394526448384
  F   0.90119473143911     -1.70858972415213     -0.64511735330923
  H   -0.96967682607533     -0.41646354991452     -1.69120571727224
  H   1.39604619237181      0.14240487511307     -1.24386815852840
  C   1.30114380586186      0.02721372685277      0.91130741798175
  H   0.76304910485101     -0.52617180794185      1.68056678847604
  H   1.18486105675559      1.09554228813226      1.10069307382633
  H   2.35952168143064     -0.22846339804835      0.97584209124642
  C   -0.83947669553061      1.47945873528372     -0.76634895113150
  N   -0.93124967014384      2.64920955465203     -0.80450268861392
  N   -1.56181351025669     -0.57795943074186      0.30559412474048
  O   -2.02943921609011     -1.67735023689274      0.03313338814780
  O   -1.70471596907012      0.04761380168443      1.35105853631820
