15

C	-0.571383	-0.073764	-1.401603
C	0.0	0.0	0.0
F	-1.935212	-0.128339	-1.372562
H	1.096629	0.0	0.0
H	-0.192726	-0.923053	-1.97345
N	-0.185399	1.147775	-2.190784
O	0.953719	1.137642	-2.641344
O	-1.018978	2.03497	-2.325142
N	-0.483668	-1.210359	0.710357
H	-0.054016	-1.159689	1.631273
H	-0.044916	-2.016809	0.269617
N	-0.459027	1.211262	0.631476
H	-1.382141	1.065426	1.019503
H	0.18787	1.481006	1.359636
Cl	3.421992	0.0	0.0
