15

C	-0.509064	-0.219156	-1.413897
C	0.0	0.0	0.0
F	-1.828961	-0.577479	-1.432773
H	1.096602	0.0	0.0
H	0.070347	-0.971077	-1.953884
N	-0.373277	1.055346	-2.202871
O	0.769646	1.341179	-2.53408
O	-1.388688	1.696247	-2.441024
N	-0.485261	-1.129177	0.825134
H	0.165107	-1.19103	1.603587
H	-0.36815	-1.999082	0.311762
N	-0.47038	1.26744	0.509915
H	-1.352957	1.12112	0.984589
H	0.208866	1.636016	1.161604
Cl	3.425209	0.0	0.0
