15

C	-0.520541	-0.028088	-1.428337
C	0.0	0.0	0.0
F	-1.873762	0.203739	-1.457691
H	1.099106	0.0	0.0
H	-0.308371	-0.967785	-1.934262
N	0.101345	1.045866	-2.276669
O	-0.286123	2.198001	-2.093011
O	0.943639	0.687872	-3.094695
N	-0.518367	-1.233955	0.62097
H	-0.65444	-0.993992	1.598156
H	0.234284	-1.91742	0.594668
N	-0.463434	1.152284	0.744436
H	0.226771	1.88906	0.678206
H	-1.337805	1.495997	0.366034
Cl	3.401578	0.0	0.0
