15

C	-0.555543	-0.058585	-1.402956
C	0.0	0.0	0.0
F	-0.0648	0.937478	-2.20103
H	1.096998	0.0	0.0
H	-1.645952	0.007131	-1.386331
N	-0.274303	-1.350298	-2.13722
O	-0.889497	-1.485297	-3.194979
O	0.529743	-2.151895	-1.667356
N	-0.614041	-1.113974	0.730746
H	0.003891	-1.915288	0.645702
H	-0.605453	-0.828552	1.704772
N	-0.400655	1.24998	0.635224
H	0.30027	1.950117	0.431722
H	-1.300789	1.579779	0.299015
Cl	3.456773	0.0	0.0
