15

C	-0.559629	-0.034209	-1.407327
C	0.0	0.0	0.0
F	-1.924583	-0.009091	-1.389148
H	1.096577	0.0	0.0
H	-0.226391	-0.90163	-1.979315
N	-0.090651	1.164247	-2.190575
O	-0.882533	2.077521	-2.38723
O	1.071123	1.10287	-2.575949
N	-0.49882	-1.220597	0.676887
H	-0.156127	-1.156112	1.631222
H	0.001436	-2.013511	0.279783
N	-0.459677	1.206777	0.638559
H	0.152819	1.443743	1.407952
H	-1.409617	1.084173	0.96956
Cl	3.478659	0.0	0.0
