15

C	-0.43769	0.015837	-1.450198
C	0.0	0.0	0.0
F	0.115524	-1.018657	-2.138655
H	1.100641	0.0	0.0
H	-0.198213	0.964428	-1.92702
N	-1.939488	-0.152356	-1.545967
O	-2.606391	0.841125	-1.265851
O	-2.384401	-1.249307	-1.860302
N	-0.559427	-1.205579	0.630722
H	-0.307759	-2.008321	0.0592
H	-0.057578	-1.32881	1.505066
N	-0.425755	1.216497	0.652706
H	0.213318	1.419789	1.410136
H	-1.362758	1.095539	1.019075
Cl	3.4301	0.0	0.0
