15

C	-0.404472	0.010476	-1.466657
C	0.0	0.0	0.0
F	-0.05495	-1.142384	-2.077432
H	1.099681	0.0	0.0
H	0.024175	0.856529	-2.005344
N	-1.899472	0.163413	-1.608683
O	-2.316225	1.32391	-1.592097
O	-2.591545	-0.842687	-1.694216
N	-0.482887	-1.209074	0.637358
H	-1.220654	-0.950918	1.279511
H	0.274832	-1.636034	1.152185
N	-0.507258	1.201762	0.675524
H	0.228431	1.531906	1.288205
H	-0.712946	1.945848	0.020328
Cl	3.403038	0.0	0.0
