14

C	-0.375252	0.097399	-1.480713
C	0.0	0.0	0.0
Cl	-2.172621	0.474794	-1.614908
H	1.093675	0.0	0.0
H	-0.321908	-0.91634	-1.881729
N	0.417744	1.027953	-2.189337
H	1.221228	1.33469	-1.653826
H	0.721665	0.649822	-3.072813
C	-0.546204	-1.197566	0.611806
N	-0.966662	-2.207201	1.038856
N	-0.423453	1.221189	0.755473
O	0.032228	2.28137	0.344209
O	-1.172971	1.086264	1.718137
Cl	3.179921	0.0	0.0
