14

C	-0.528998	0.044574	-1.428269
C	0.0	0.0	0.0
Cl	0.119955	-1.419609	-2.29523
H	1.091669	0.0	0.0
H	-0.077155	0.8969	-1.929064
N	-1.947694	0.145923	-1.443548
H	-2.28853	0.283561	-2.385889
H	-2.37028	-0.694427	-1.064956
C	-0.551397	-1.128463	0.734153
N	-1.012036	-2.073393	1.258141
N	-0.394496	1.288414	0.675276
O	-0.849088	1.235793	1.81412
O	-0.18341	2.312374	0.035531
Cl	3.175643	0.0	0.0
