14

C	-0.530055	0.018068	-1.428265
C	0.0	0.0	0.0
Cl	0.120872	-1.46084	-2.269238
H	1.09167	0.0	0.0
H	-0.080055	0.861824	-1.94489
N	-1.948877	0.117016	-1.444298
H	-2.370094	-0.717284	-1.05184
H	-2.290222	0.239309	-2.38863
C	-0.550096	-1.115785	0.754566
N	-1.010398	-2.052642	1.293125
N	-0.395943	1.299977	0.651695
O	-0.186458	2.312283	-0.00631
O	-0.851382	1.267629	1.790725
Cl	3.176502	0.0	0.0
