14

C	-0.407176	-0.087111	-1.473181
C	0.0	0.0	0.0
Cl	-0.093667	1.555995	-2.244651
H	1.09223	0.0	0.0
H	-1.481396	-0.226579	-1.589352
N	0.334112	-1.148787	-2.028647
H	1.329902	-1.022461	-1.856303
H	0.156034	-1.263428	-3.01645
C	-0.52028	-1.157441	0.717397
N	-0.958616	-2.077159	1.301691
N	-0.576311	1.226206	0.640495
O	0.189642	2.014892	1.176079
O	-1.800919	1.335929	0.571687
Cl	3.234648	0.0	0.0
