14

C	-0.504648	-0.040424	-1.440036
C	0.0	0.0	0.0
Cl	0.043909	-1.587304	-2.177678
H	1.090053	0.0	0.0
H	0.038327	0.731956	-1.98624
N	-1.933898	0.062739	-1.499287
H	-2.244702	0.517527	-2.344104
H	-2.329294	0.5246	-0.692666
C	-0.552159	-1.06623	0.820228
N	-0.98848	-1.940932	1.470784
N	-0.402175	1.34315	0.553295
O	-1.100252	1.388086	1.565873
O	-0.006769	2.316161	-0.081061
Cl	3.170853	0.0	0.0
