15

C	-0.260162	0.01747	-1.512097
C	0.0	0.0	0.0
Cl	-1.999459	0.098555	-1.91772
H	1.095435	0.0	0.0
N	0.438555	1.101131	-2.060112
H	0.413944	1.06286	-3.071235
H	1.406041	1.074539	-1.728366
N	0.197041	-1.339275	-2.144937
O	0.259933	-2.332055	-1.435359
O	0.441468	-1.285413	-3.345152
C	-0.586532	-1.098343	0.755878
N	-1.094875	-1.906993	1.439587
C	-0.455972	1.267824	0.569103
N	-0.825658	2.266012	1.065476
Cl	3.132908	0.0	0.0
