15

C	-0.266441	0.040484	-1.508899
C	0.0	0.0	0.0
Cl	0.041457	1.742197	-2.097806
H	1.09773	0.0	0.0
N	0.49827	-0.952139	-2.11803
H	1.471109	-0.880393	-1.817576
H	0.409333	-0.941418	-3.124711
N	-1.734648	-0.187166	-1.865818
O	-2.568551	0.014188	-0.99011
O	-1.958347	-0.524566	-3.023425
C	-0.460735	-1.266509	0.565091
N	-0.834813	-2.274819	1.037948
C	-0.517318	1.128206	0.759791
N	-0.92453	2.008614	1.419851
Cl	3.151355	0.0	0.0
