15

C	-0.547792	0.002458	-1.434428
C	0.0	0.0	0.0
Cl	0.315208	-1.292675	-2.35386
H	1.093512	0.0	0.0
N	-1.952412	-0.078653	-1.47723
H	-2.278149	-0.928187	-1.034725
H	-2.27809	-0.028391	-2.434393
N	-0.172896	1.304363	-2.142999
O	0.690997	2.001707	-1.633913
O	-0.778816	1.521988	-3.18908
C	-0.460088	-1.230211	0.64674
N	-0.873199	-2.213048	1.140459
C	-0.505721	1.15343	0.744483
N	-0.9149	2.072252	1.350652
Cl	3.161715	0.0	0.0
