15

C	0.0	0.0	0.0
C	-0.4709	-0.066976	-1.437402
F	1.400096	0.0	0.0
H	-1.562843	0.003412	-1.413854
H	-0.193008	-1.063396	-1.817518
C	-0.374232	1.290667	0.615561
N	-0.605343	2.288447	1.188045
C	-0.486672	-1.161256	0.836451
H	-1.579572	-1.143955	0.861755
H	-0.134993	-2.093634	0.386415
H	-0.084462	-1.081463	1.848552
N	0.099704	1.040866	-2.194135
H	-0.398876	1.152351	-3.066397
H	1.071588	0.850719	-2.400507
Br	-3.930247	0.0	0.0
