15

C	0.0	0.0	0.0
C	-0.504963	0.28935	-1.405523
F	1.399866	0.0	0.0
H	-1.595089	0.213208	-1.357998
H	-0.243471	1.325582	-1.658917
C	-0.371877	1.10782	0.906082
N	-0.529928	1.992872	1.661111
C	-0.482974	-1.327795	0.537822
H	-0.014163	-1.527863	1.503251
H	-0.206665	-2.099673	-0.180196
H	-1.570071	-1.29457	0.64096
N	0.038563	-0.701306	-2.330567
H	0.967298	-0.423843	-2.623049
H	-0.552766	-0.754098	-3.149595
Br	-3.97219	0.0	0.0
