15

C	0.0	0.0	0.0
C	-0.511356	0.31019	-1.398781
F	1.399827	0.0	0.0
H	-1.60269	0.340226	-1.315778
H	-0.156889	1.312384	-1.676005
C	-0.363982	1.105382	0.913613
N	-0.541525	1.987973	1.666937
C	-0.493161	-1.326031	0.528535
H	-0.181097	-2.10531	-0.167103
H	-0.065068	-1.511324	1.516096
H	-1.584109	-1.293811	0.588554
N	-0.096067	-0.732549	-2.331841
H	-0.814979	-0.86971	-3.027558
H	0.759829	-0.469809	-2.799289
Br	-3.973919	0.0	0.0
