15

C	0.0	0.0	0.0
C	-0.504523	0.105783	-1.424344
F	1.400488	0.0	0.0
H	-0.24115	-0.835985	-1.93053
H	-1.596152	0.161499	-1.355825
C	-0.358737	1.214014	0.766754
N	-0.572397	2.168373	1.414862
C	-0.498215	-1.245315	0.697969
H	-0.086563	-1.296989	1.70788
H	-1.590637	-1.212016	0.737916
H	-0.173813	-2.124583	0.134892
N	0.028957	1.298571	-2.069221
H	-0.589712	1.590642	-2.812599
H	0.941276	1.110871	-2.461043
Br	-3.969391	0.0	0.0
