15
Coordinates from ORCA-job run
  C   -0.72809854333964     -0.50662906661672      0.08320200694377
  C   0.60702912207583      0.10256055359276     -0.37077346879917
  F   -0.50754899436117     -1.91188663927096      0.11048346026550
  H   0.73364346077145     -0.22643336929849     -1.41595440967066
  C   -1.03427222206715     -0.11868861138918      1.47341939983576
  N   -1.29588153970372      0.21532695702001      2.56738732648061
  N   -1.79590909009653     -0.15276598994371     -0.75513811757550
  H   -1.56319298168394     -0.25883757558193     -1.73228364791959
  H   -2.64132086428412     -0.65709038906150     -0.52529800134064
  N   1.63787414898054     -0.39579943007183      0.52885409743684
  H   2.53996909241621     -0.04163619050513      0.23537240723070
  H   1.67027962886946     -1.40787186309767      0.51132599295046
  N   0.51581457994167      1.53918018977443     -0.37520751631448
  H   1.27353295144381      1.94073887140557     -0.91198703699120
  H   0.58808125103729      1.87783255304435      0.57859750746761
