15
Coordinates from ORCA-job run
  C   -0.70169707368664     -0.46493399733972      0.35671232299929
  C   0.69630967580510      0.15743900215754      0.27290152526311
  F   -0.49606936615062     -1.81977323398011      0.73062751758872
  H   1.16602706787056      0.02102294272077      1.25576546037432
  C   -1.49699457470951      0.13643916527770      1.43988423534760
  N   -2.13961804992398      0.56982243799408      2.32058353522733
  N   -1.35932609102055     -0.33715122968808     -0.87897251481597
  H   -2.27963421810440     -0.75499113760271     -0.87534524881764
  H   -0.77114359356251     -0.71974699373139     -1.60970122834554
  N   0.54485092329716      1.56485806492040      0.04185388224521
  H   0.14245761191401      1.72594140630495     -0.87274152013443
  H   1.42350354461536      2.05724028465330      0.12826066442969
  N   1.39264485578281     -0.55770720465726     -0.80273518161435
  H   2.26050347980561     -0.07897933226040     -1.01047745937272
  H   1.61818580806760     -1.49848017476907     -0.49761599037463
