15
Coordinates from ORCA-job run
  C   -0.67488661413398     -0.46652544515982      0.03280247172075
  C   0.62524361705296      0.34422620826469      0.08701406205402
  F   -0.41747067685142     -1.69326632325489     -0.54170581436168
  H   0.38344478818852      1.27678951367057      0.62409831411559
  C   -1.16066338551189     -0.72520329782562      1.41136129479118
  N   -1.65117410458462     -0.86106554319784      2.46953147091686
  N   -1.65032777867062      0.18285479009596     -0.80444096822399
  H   -2.46451117226720     -0.41425385804861     -0.89994610201154
  H   -1.94609670911343      1.05557462420459     -0.38141355065181
  N   1.08527523963430      0.54215688350081     -1.27665414625379
  H   1.74528508784076      1.30861283419581     -1.31262200718732
  H   0.29998196055819      0.75200844103318     -1.88228914322327
  N   1.55868503223030     -0.38758327170914      0.91189891035661
  H   1.95635113888877     -1.12735407192915      0.34391874136613
  H   2.31186357673936      0.21402851615947      1.21844646659227
