15
Coordinates from ORCA-job run
  C   -0.72447650133386     -0.53626915874413      0.05235800652318
  C   0.68431685300941     -0.04160838086680     -0.31010946855184
  F   -0.73249385020803     -1.92392313118263     -0.08582701478155
  H   0.86992656505400     -0.43530415523058     -1.32426795040401
  C   -1.02282841211859     -0.23757380101287      1.46507091872061
  N   -1.25966987642545     -0.02217280933016      2.59375567105615
  N   -1.69934093508432      0.07758172738428     -0.78575258058955
  H   -1.55944204323349     -0.23272210843492     -1.74132249847857
  H   -2.63710565989937     -0.17366804228098     -0.49733771847331
  N   1.64663391888812     -0.65281747225892      0.57339990719492
  H   1.74696644340665     -0.07174586563473      1.39818651086977
  H   2.54795712794257     -0.74671297392553      0.12698970803068
  N   0.67953189721133      1.40601453580970     -0.20151962771605
  H   -0.09264549406323      1.80754826577894     -0.71837067545671
  H   1.55266996685424      1.78437336992932     -0.54625318794372
