15
Coordinates from ORCA-job run
  C   -0.74903302116526     -0.22404667506152      0.40754375719798
  C   0.45367864707547      0.31946218715316     -0.37654870682851
  F   -0.22332872766769     -0.55831130784691      1.69157418284076
  H   0.06401866639615      0.73041572197547     -1.31294611952179
  C   -1.74495395934337      0.83440096989398      0.64886081584159
  N   -2.58647438661234      1.63788101932000      0.80149366737311
  N   -1.32094984361225     -1.33700581965881     -0.20236941045893
  H   -0.76917804936430     -1.74512926662994     -0.93860383745390
  H   -2.31964328528052     -1.38140533469674     -0.28496159120550
  N   1.27967150946839     -0.83256919263071     -0.72585874113893
  H   1.68715638651916     -1.22391160392469      0.11635852038309
  H   2.03257353340119     -0.54844636053192     -1.34013850438274
  N   1.02961506623247      1.40918134988185      0.38010169470800
  H   1.78397471128908      1.84708339855757     -0.13271003402564
  H   1.38187275266382      1.07240091419922      1.26720430667140
