15
Coordinates from ORCA-job run
  C   -0.77724768212652     -0.14214742143492      0.18488409597789
  C   0.60786345273644      0.21550932214573     -0.38799803050539
  F   -0.52977088545824     -0.57584223758628      1.52340221823645
  H   0.44284551199330      0.57670579040719     -1.40670213405508
  C   -1.61674660960791      1.06263960197574      0.31754324017202
  N   -2.25146006962679      2.04608711782621      0.40289010626391
  N   -1.41181753137686     -1.11060021195011     -0.60036618091967
  H   -2.27447687978718     -1.44818442229615     -0.19601093780841
  H   -0.76158923575109     -1.85779465614713     -0.81071819938619
  N   1.34054726012791     -1.03581254233128     -0.46027659737870
  H   1.56442811922128     -1.33376710642846      0.48347459515615
  H   2.21823763744750     -0.86070955680612     -0.93451470309809
  N   1.30403517653330      1.25074024682457      0.35108881458810
  H   0.88557103110573      2.15957068482895      0.19029788231228
  H   1.26158070456913      1.05560539097204      1.34500583044472
