15
Coordinates from ORCA-job run
  C   -0.54141971837501     -0.58774007871895      0.40052983221131
  C   0.77252160679163      0.19734052960009      0.18616959372363
  F   -0.21105602995289     -1.83465707849364      0.90928938410162
  H   1.26243485062248      0.26650169734870      1.16759912568793
  C   -1.36286875567728      0.08436801724534      1.43823173830271
  N   -1.99475783983889      0.68615963194728      2.22542064133642
  N   -1.19429502839569     -0.75567324873813     -0.85189476819886
  H   -1.21397966819974      0.14389466710924     -1.32109433739165
  H   -2.13127798234009     -1.12240999981561     -0.74628324270559
  N   0.41678984699832      1.47902107953906     -0.40273327324273
  H   1.26083788487571      1.88060364273339     -0.79227995797086
  H   0.05159765382354      2.11398475423433      0.29800525381090
  N   1.67819585524764     -0.47321449153004     -0.71400637636395
  H   2.04888826691745     -1.30083337837435     -0.26417889109577
  H   1.16038905750279     -0.77734574408671     -1.53177472220512
