15
Coordinates from ORCA-job run
  C   -0.66678792088092     -0.58480789911044      0.39318723630532
  C   0.71662406030711      0.08463866295224      0.33320113695112
  F   -0.58924788143341     -1.76680947028265      1.08846417230686
  H   1.05223794772289      0.22598284545398      1.36936903387549
  C   -1.58819390616739      0.29526664580047      1.16704523941344
  N   -2.29788763828137      1.03415656875180      1.74184723979496
  N   -1.10812720478511     -0.85862822543876     -0.93680681456813
  H   -1.06546592191045      0.00304128107351     -1.46949333682923
  H   -2.05114492834994     -1.22671386655949     -0.94007346167997
  N   0.52199753225545      1.35107727427828     -0.39195713054932
  H   0.13616677026298      2.06316022967323      0.22044425766075
  H   1.41971102931256      1.68429763048840     -0.72046377093728
  N   1.62608165651503     -0.82111881006954     -0.30434561518685
  H   1.32319911735563     -1.02490224899554     -1.24737812994831
  H   2.56983728807694     -0.45864061801549     -0.30404005660889
