15
Coordinates from ORCA-job run
  C   -0.52621248264982     -0.58853812594305      0.41936220598496
  C   0.77176467926767      0.21352491665165      0.17385353485305
  F   -0.16953987941710     -1.81943903955237      0.94901598525934
  H   1.27129108461408      0.31133831272961      1.14799403246051
  C   -1.34722661849850      0.09172818209536      1.45239783507766
  N   -1.98613621960602      0.70601781782888      2.22413988244450
  N   -1.19084897957947     -0.79266108184292     -0.82122333882946
  H   -1.23389453685684      0.09667378717955     -1.30791305014114
  H   -2.11868627171087     -1.17653181578195     -0.69725883714636
  N   0.38804703674602      1.47643816003610     -0.43750227062467
  H   1.22098293080958      1.88414169404828     -0.84407664149225
  H   0.01918655898496      2.11950097847463      0.25391346062323
  N   1.67862029730459     -0.46049067913066     -0.72266281272677
  H   1.15693956253292     -0.78765592960917     -1.52898056604789
  H   2.06571283805882     -1.27404717718398     -0.26105941969472
