15
Coordinates from ORCA-job run
  C   -0.70962062726714     -0.55006688719901      0.08360861180606
  C   0.67875284835009     -0.03486328090573     -0.32556441517117
  F   -0.68989443409262     -1.94098372419574     -0.02076329654911
  H   0.84815521344874     -0.44931333335681     -1.33433423035940
  C   -0.98168268199480     -0.22380618149277      1.49556171721862
  N   -1.21856551042702      0.01439673644938      2.61959362683158
  N   -1.71777609441633      0.02175469404229     -0.74405666957475
  H   -1.59434721591207     -0.30700741806645     -1.69566574164981
  H   -2.64279920430900     -0.24103182662356     -0.42663256736697
  N   1.67547176170564     -0.60305791996922      0.54831751926570
  H   2.56640676051799     -0.69385319535812      0.08107120687315
  H   1.78586602487268      0.00211608531715      1.35422760405733
  N   0.64503485303468      1.41457658775481     -0.25125010171333
  H   -0.14757452829406      1.78742696122574     -0.75855890043144
  H   1.50157283478324      1.80271270237800     -0.62555436323644
