15
Coordinates from ORCA-job run
  C   -0.70824547697738     -0.52873159886179      0.40565619442443
  C   0.68750300236694      0.09668102485985      0.25616295695376
  F   -0.47699003157103     -1.82755923956684      0.90502114891760
  H   1.17347604006116      0.03806242854385      1.23915929337365
  C   -1.48268368428412      0.18617661053482      1.43350205238378
  N   -2.10315699369235      0.72879681448637      2.26839899362695
  N   -1.42220268851301     -0.60486847435573     -0.80643731633425
  H   -0.81137535795657     -0.58141737073845     -1.61021475829631
  H   -2.22458824960418     -0.00322331515017     -0.87980579207073
  N   0.53042413311086      1.48704556826371     -0.08620347344705
  H   1.34332723091104      2.02845177980582      0.17253466940661
  H   0.37595414722561      1.57965046277544     -1.08245431839541
  N   1.36726643949116     -0.66590169074772     -0.78854187863431
  H   2.30158793982800     -0.29702977024570     -0.92000160473972
  H   1.44970354960387     -1.63713322960347     -0.50677616716896
