15
Coordinates from ORCA-job run
  C   -0.66205533881593     -0.49127838158265      0.05731195116373
  C   0.71630676005568      0.05599227095570     -0.35150151594630
  F   -0.55085714310197     -1.90040848745437      0.09419476490434
  H   0.85489781086583     -0.26634806757149     -1.39945844083094
  C   -1.01337769375709     -0.05471465828285      1.41929259690859
  N   -1.31015270185334      0.31551896686869      2.49240826401244
  N   -1.65436932737859     -0.06219087085097     -0.85547650165206
  H   -2.57968700045754     -0.36074208543159     -0.57446892703613
  H   -1.45193193506101     -0.41415608254213     -1.78367257674647
  N   1.69889633469556     -0.46532922288407      0.56973279152661
  H   1.73552043845173     -1.47471560051762      0.52241802069704
  H   2.60442259667343     -0.08767444823822      0.32002923016046
  N   0.81177171013623      1.49374402090293     -0.31294006453241
  H   0.73745598532082      1.80031409011094      0.65151190954658
  H   0.06215950422617      1.91298855651770     -0.84838150217547
