15
Coordinates from ORCA-job run
  C   -0.68841429172220     -0.45780976947658      0.39044358298336
  C   0.68930270581264      0.20125684903300      0.26234545230793
  F   -0.44158702441592     -1.77073657093310      0.87286711354474
  H   1.15697611200736      0.15881326005100      1.25468235118134
  C   -1.51032713149650      0.20226859259553      1.41836521008520
  N   -2.17405121873841      0.68365469611278      2.25760537721921
  N   -1.34187311386160     -0.45095743507957     -0.85402940792536
  H   -2.24772327744063     -0.89806426376737     -0.82057142150362
  H   -0.73647144817629     -0.87011539179568     -1.54981970652429
  N   0.49406720556242      1.58006726381028     -0.08078391502477
  H   1.35573076909258      2.10640334330180     -0.03107347942020
  H   0.09164094862050      1.65489429319523     -1.00634787056102
  N   1.41513935957675     -0.57420253686146     -0.74999321940532
  H   2.26852745805170     -0.08623940069198     -0.99316718207784
  H   1.66806294712761     -1.48023292949389     -0.37052288487937
