15
Coordinates from ORCA-job run
  C   -0.68942794054636     -0.45151514257289      0.39544856519947
  C   0.68796131331765      0.20692168497795      0.26114539691549
  F   -0.44333279212094     -1.75557718445197      0.90179333033658
  H   1.15176745887460      0.18321230157677      1.25596248187308
  C   -1.51557952868893      0.22560372296471      1.40860301033724
  N   -2.18155392975506      0.72105395350558      2.23774556531031
  N   -1.33778082366584     -0.46741172744532     -0.85165663078091
  H   -2.24356574316820     -0.91430931726328     -0.81376309525896
  H   -0.72961048279734     -0.89946874091935     -1.53710438045499
  N   0.49207996062276      1.57903109954002     -0.10753325075552
  H   1.35275238809275      2.10741939806249     -0.06336694072878
  H   0.09357701244265      1.63648124647001     -1.03610910932355
  N   1.41891838861648     -0.58591821682371     -0.73425197310482
  H   2.27328693097832     -0.10128798017340     -0.98050459728913
  H   1.67150778779746     -1.48423509744764     -0.33640837227552
