15
Coordinates from ORCA-job run
  C   -0.67113313229025     -0.65093295688675      0.03939706548027
  C   0.63718568789142      0.02311898001097     -0.38650091752585
  F   -0.44597809724417     -2.02418432696966      0.08644469879062
  H   0.80663084728550     -0.33011630066643     -1.41387293515162
  C   -1.02885610886705     -0.24118201096734      1.42096486808088
  N   -1.37646796039702      0.13828766242288      2.47667234933036
  N   -1.67739723591217     -0.38118171952344     -0.92638460149735
  H   -1.62111666748835      0.60057426790166     -1.17318574430988
  H   -2.60133887477368     -0.59859740663889     -0.57575694114808
  N   1.67131461139835     -0.34844375081985      0.56337833723385
  H   2.57039973617467     -0.01539172375581      0.23654829000923
  H   1.72342512040728     -1.35731727307761      0.64581673109313
  N   0.40908386148596      1.45169408302162     -0.43947275200894
  H   1.07756020331124      1.90193253192116     -1.05063700605795
  H   0.52468800901832      1.83273994402757      0.49458855768131
