15
Coordinates from ORCA-job run
  C   -0.66751263658682     -0.44899694822941      0.33981834046755
  C   0.77005501802509      0.10007155661610      0.22026382042682
  F   -0.53889282484484     -1.79139945447620      0.77744292170654
  H   1.24236406685658     -0.04208838782124      1.20183605068583
  C   -1.40244770425983      0.26055948571803      1.40216727549114
  N   -1.94525833227415      0.86361393595867      2.25027147076025
  N   -1.33206929489083     -0.33033231679619     -0.89151732780870
  H   -0.75173864130227     -0.73304059774179     -1.61865869848117
  H   -2.26056520182380     -0.72935489510409     -0.87841973471194
  N   0.83493325668307      1.49978367330147     -0.11714885314046
  H   0.59116564203532      2.07453551798678      0.67913912631913
  H   0.18252019889719      1.69395257096502     -0.86827154735150
  N   1.39990443791415     -0.65319555455373     -0.85323295609680
  H   2.25507771687678     -0.17307087327604     -1.10366798281931
  H   1.62346429869440     -1.59003771254736     -0.54102190544738
