15
Coordinates from ORCA-job run
  C   -0.71948071089717     -0.29106623628592      0.23760669909925
  C   0.57405656018149      0.47732981596247     -0.09637750267986
  F   -0.50510888532609     -1.61737949177228     -0.24724837554526
  H   0.44402388949216      1.49224045926168      0.28899695628801
  C   -0.88224488370190     -0.43386990083170      1.69614805646209
  N   -0.97412337918866     -0.52184338187198      2.86284689962775
  N   -1.83550074301809      0.33113895739513     -0.33231061197394
  H   -2.68651252862519     -0.20364888689865     -0.22547202836875
  H   -1.63950687563055      0.56338411844874     -1.29817864579445
  N   0.63156833091155      0.54247256644110     -1.54561747882604
  H   1.41391115418280      1.13162472527611     -1.80408548169962
  H   0.82624847015986     -0.38718350053739     -1.90264344656148
  N   1.76814635106116     -0.08525749715434      0.50381620013155
  H   1.78772926432914     -1.08878503138638      0.36125150066080
  H   1.79479398606950      0.09184328395345      1.50126725917997
