15
Coordinates from ORCA-job run
  C   -0.73784217802616     -0.61296033204826      0.16072419903987
  C   0.57302748213747     -0.00402217770371     -0.36164661536069
  F   -0.53649704764055     -1.98482691101666      0.24475528360692
  H   0.67154014371638     -0.37758276722328     -1.39460320466567
  C   -1.01063832958258     -0.09223982652989      1.51726263173143
  N   -1.22683303811387      0.36242654792606      2.57689048559670
  N   -1.88783879974888     -0.39808172937150     -0.66346175943833
  H   -2.05301898605951      0.60018899004612     -0.72544148760192
  H   -1.68616800331088     -0.74153166545766     -1.59698893551714
  N   1.65747272274981     -0.38805127397521      0.52293023917051
  H   2.54269108378899     -0.06962214631613      0.14754372153198
  H   1.69737830051575     -1.39571457676412      0.61942631167185
  N   0.38760137610669      1.43010028190599     -0.42613923128040
  H   0.60427118008023      1.82300020173199      0.48445657770720
  H   1.00685409338711      1.84791738479625     -1.10770821619228
