15
Coordinates from ORCA-job run
  C   -0.64398802722454     -0.50852200577709      0.04026303345860
  C   0.60202844436463      0.38395315929136      0.08063369249458
  F   -0.31097666736711     -1.72261194600409     -0.52173456707797
  H   0.30315545630223      1.30499010676705      0.60879435283299
  C   -1.10735007595277     -0.78220474700139      1.42380427695772
  N   -1.58394344986041     -0.93879530175064      2.48545018479726
  N   -1.66162341498831      0.06823416827303     -0.79974812958268
  H   -2.00937663944920      0.92604448630767     -0.38590372844913
  H   -2.43738246477053     -0.57951513579655     -0.88420021132093
  N   1.04382322597601      0.59612132323289     -1.28696833334369
  H   1.65367637308126      1.40248802002727     -1.33361606623692
  H   0.24493142937925      0.74872541388130     -1.89189689305156
  N   1.58319496829260     -0.27780503641876      0.90907635872827
  H   2.02702658250971     -0.99544040754802      0.34703226645367
  H   2.29580425970719      0.37433790251595      1.20901376333978
