15
Coordinates from ORCA-job run
  C   -0.70227898867118     -0.50697724268427      0.16487719704493
  C   0.47914645040380      0.46670857422443      0.04994298967613
  F   -0.16287206472267     -1.77613439259789     -0.20290936389481
  H   0.14823126414530      1.42080998197139      0.47146048174705
  C   -1.13512432461470     -0.65003466711554      1.56583756947472
  N   -1.54383960258317     -0.73730340625177      2.66234952566879
  N   -1.76174243618764     -0.15469936765082     -0.66583570979498
  H   -2.69413781972374     -0.17787684440158     -0.29689805971606
  H   -1.54401535220696      0.54468984602958     -1.35599097540541
  N   0.70388752976127      0.68419555934918     -1.37626096339785
  H   1.04534809298807     -0.17230595616379     -1.79863029587984
  H   1.40118344914813      1.40531592918372     -1.51310153666225
  N   1.55640215634939     -0.03264861744641      0.87557516360726
  H   2.33287975585044      0.61576838710378      0.88911921716122
  H   1.87693189006368     -0.92850778355003      0.53046476037108
