15
Coordinates from ORCA-job run
  C   -0.64802935231447     -0.67223674597455      0.06368548840550
  C   0.62931019740891      0.03736743095209     -0.39754436904359
  F   -0.37551648079286     -2.03599108147713      0.13340470656948
  H   0.79288545104186     -0.33005705399093     -1.42087239934820
  C   -0.99645837880157     -0.24761432418056      1.44291294373297
  N   -1.33193260779423      0.13858665290389      2.50004760230871
  N   -1.67819647653822     -0.45647105738011     -0.89060981649266
  H   -2.58780779595201     -0.70202656283260     -0.52142599284610
  H   -1.66276007016291      0.52263057621442     -1.15344153431775
  N   1.69153250158027     -0.28001985986022      0.54075803150027
  H   2.57280711507143      0.07700952213469      0.19149456236654
  H   1.77980173538418     -1.28466879934670      0.64183651251463
  N   0.35149365754727      1.45599456397441     -0.47283955549550
  H   0.47424565309347      1.85977021004213      0.45057500099239
  H   0.98862485122887      1.91672652882120     -1.10898118084668
