15
Coordinates from ORCA-job run
  C   -0.70786472209021     -0.55524793460751      0.07400398921447
  C   0.67760498992541     -0.02520664109160     -0.32588057993159
  F   -0.68085061440664     -1.94384376277540     -0.05162435210068
  H   0.85022500468861     -0.42194920314693     -1.34108217297539
  C   -0.98171154236766     -0.25194087025882      1.49059738832480
  N   -1.19493826860279     -0.03972204692445      2.62456474043055
  N   -1.71844471729410      0.02367003447837     -0.74693553331571
  H   -1.59158650609112     -0.29226049274731     -1.70255440716402
  H   -2.64180319118342     -0.25162177356715     -0.43492157393113
  N   1.67737685891006     -0.60189425044065      0.53921003895434
  H   2.57137742142959     -0.66792050567981      0.07331198371554
  H   1.77696362709495     -0.01355333804804      1.35901519129154
  N   0.63477574146844      1.42295456033405     -0.22895809425254
  H   -0.15929708899710      1.79783944882222     -0.73265287299108
  H   1.48917300751598      1.82169677565301     -0.59709374526910
