15
Coordinates from ORCA-job run
  C   -0.76770328315000     -0.50226768460884      0.46447297964048
  C   0.66159818708267      0.06337582000293      0.27616515584692
  F   -0.63091748377555     -1.60558746223740      1.28437414002917
  H   1.12346399989289      0.07637439204146      1.27441422229395
  C   -1.60873880153339      0.49023422826008      1.16935580991188
  N   -2.21429823787896      1.32154317025553      1.73496942593836
  N   -1.41926335429747     -0.92608244609619     -0.73166270344101
  H   -0.75768081799962     -1.51260030796035     -1.23209899910958
  H   -1.64633459293101     -0.12131511001082     -1.30380237215257
  N   0.55935406769421      1.36555470707111     -0.36752142549547
  H   1.49072987772682      1.74085514423229     -0.50422959483609
  H   0.05085353487769      2.02421306110924      0.21260571354297
  N   1.38466988202725     -0.86054722026672     -0.57229473560035
  H   1.47639759446719     -0.47000820974970     -1.50115672814545
  H   2.29686942779728     -1.08274208204259     -0.20359088842319
