15
Coordinates from ORCA-job run
  C   -0.63295623644332     -0.41681170159642      0.08013432098682
  C   0.61034453920231      0.48981679218130      0.07622367512996
  F   -0.26554985510500     -1.63698932977904     -0.47661885460592
  H   0.30191611981261      1.45778670442176      0.49048292712695
  C   -1.09341101726160     -0.70046191982746      1.45965056149159
  N   -1.55346767272649     -0.88031490373375      2.52537352706725
  N   -1.65520681561156      0.13082767437677     -0.76622810255881
  H   -2.45274056221725     -0.49514505884770     -0.79135192298552
  H   -1.96701797479970      1.02273327535088     -0.39859479344865
  N   1.12954354478081      0.72435723589868     -1.25994393744013
  H   1.36039884564211     -0.17234363535588     -1.67615796471712
  H   0.40575867867899      1.13470854402253     -1.84083843780328
  N   1.57477301526077     -0.09840149100217      0.97353959111589
  H   2.41501335149381      0.46670748944774      0.96028298266746
  H   1.82160203929354     -1.02546967555727      0.64504642797349
