15
Coordinates from ORCA-job run
  C   -0.65789982553393     -0.37647842548181      0.40898341899939
  C   0.75230394368770      0.23489947392750      0.21635427276471
  F   -0.43797182375653     -1.55652568165089      1.16309603798201
  H   1.10982846991839      0.42158120144341      1.24032348315639
  C   -1.48535604220347      0.49435929849613      1.26623564422740
  N   -2.10534978111161      1.23449601910711      1.93437513411771
  N   -1.32203079880381     -0.61732040192333     -0.80279933930354
  H   -0.71357608795234     -1.05528767051052     -1.47967721690975
  H   -2.16769959308831     -1.15726666194653     -0.67639573502757
  N   0.66328839554356      1.40751621768210     -0.62314891394535
  H   1.53250957062193      1.92249320527233     -0.55848236410156
  H   -0.09566766324044      2.01444433596473     -0.33949698745544
  N   1.70160596211938     -0.65723245328887     -0.40339072163670
  H   1.71595459167013     -1.56199488807178      0.04811328383778
  H   1.51006068212939     -0.74568356901957     -1.39308999670550
