15
Coordinates from ORCA-job run
  C   -0.64504866743938     -0.43928998309374      0.39090839107912
  C   0.76506467658298      0.15850291864860      0.20047304271013
  F   -0.45378577206820     -1.72013431405693      0.96746362045614
  H   1.24701979354792      0.14524362533520      1.18763651814232
  C   -1.40650776138353      0.34571910537519      1.37902612186106
  N   -1.96832261785365      1.00087386830584      2.17427129951951
  N   -1.31989120708896     -0.48299068295043     -0.84018441087299
  H   -0.72442882219306     -0.93510707325818     -1.52495025328280
  H   -2.22776429296470     -0.92254095577126     -0.77519280714382
  N   0.76257895949945      1.51547443783344     -0.28571394610949
  H   0.49818379216084      2.16104752828628      0.44724719291646
  H   0.09687058811542      1.59804147138726     -1.04569398541709
  N   1.42531323393702     -0.67563020999856     -0.79180737308416
  H   2.25596308688132     -0.18561419219107     -1.09948226470915
  H   1.69375501026652     -1.56259554385164     -0.38400114606523
