15
Coordinates from ORCA-job run
  C   -0.64686157172884     -0.24704001605686      0.32134897155879
  C   0.56532300965693      0.38454083672720     -0.38604563641335
  F   -0.21426161469762     -0.71420448032236      1.55844605151085
  H   0.21975293297984      0.72545099947264     -1.36993884276581
  C   -1.70171345592281      0.75766090052835      0.58939282970817
  N   -2.59990898787374      1.50353031373676      0.71785136591890
  N   -1.11419430354006     -1.39098902326341     -0.40943470120779
  H   -1.45135206841417     -1.10391517598018     -1.32152371864267
  H   -1.88416412111172     -1.82524006102850      0.08770647410825
  N   1.64642663766464     -0.56177024122818     -0.59820584496658
  H   1.30968828020654     -1.34976086571558     -1.14165997707464
  H   1.92913653695673     -0.93286872053783      0.30346076853462
  N   0.95553881372670      1.54229907447398      0.38113468109971
  H   1.21585115796602      1.25542891099189      1.31824573956331
  H   1.77173875413157      1.95687754820210     -0.05177816093179
