15
Coordinates from ORCA-job run
  C   -0.66643910058390     -0.42449838047310      0.03398621453458
  C   0.63676741291850      0.40248510503878     -0.05251070148513
  F   -0.50334217730762     -1.60553465807242     -0.65537282852332
  H   0.38714322548682      1.41310531934240      0.31511578584080
  C   -0.96323317092878     -0.77995081470418      1.44412838695271
  N   -1.19845404170901     -0.95993938111645      2.58131969616063
  N   -1.72596897178372      0.29330626236231     -0.61909794099018
  H   -2.57176440231828     -0.26560520256463     -0.62576087422913
  H   -1.91872613082999      1.16179263806588     -0.13438968126234
  N   1.10699383173509      0.53089059084410     -1.41033278106834
  H   0.37677065147993      0.93826485877891     -1.98245439120834
  H   1.28832064759606     -0.40422551706041     -1.76073909029417
  N   1.67304381886641     -0.27155077497214      0.69836764960612
  H   2.55547626856941      0.17023569365491      0.47202267120379
  H   1.52141213880909     -0.19877573912394      1.69671788476226
