16

C	0.0	0.0	0.0
C	-0.465765	0.271502	-1.474238
F	1.376262	0.0	0.0
H	-1.204431	1.071629	-1.398273
C	-0.421554	1.104523	0.881473
N	-0.528318	2.043243	1.57907
C	-0.441361	-1.290183	0.552145
N	-0.549565	-2.362573	1.021467
N	-1.08409	-0.946126	-1.990701
H	-1.358355	-0.76725	-2.952762
H	-1.93861	-0.962407	-1.41614
C	0.69522	0.713089	-2.352998
H	0.298955	0.969025	-3.341756
H	1.432591	-0.084399	-2.467881
H	1.189472	1.600801	-1.950426
F	-2.450978	0.0	0.0
