16

C	0.0	0.0	0.0
C	-0.176533	0.035331	-1.590525
F	1.386963	0.0	0.0
H	0.611135	-0.66701	-1.892863
C	-0.510532	1.193463	0.662856
N	-0.566893	2.252617	1.175438
C	-0.463891	-1.246158	0.608755
N	-0.592081	-2.309115	1.096527
N	0.220619	1.344943	-2.099579
H	1.071856	1.64108	-1.635268
H	-0.50288	2.011475	-1.847746
C	-1.451273	-0.390645	-2.282247
H	-1.230004	-0.427981	-3.355504
H	-2.253746	0.303033	-2.057744
H	-1.783211	-1.367723	-1.939325
F	-2.302117	0.0	0.0
