16

C	0.0	0.0	0.0
C	-0.348864	0.553118	-1.459792
F	1.383516	0.0	0.0
H	0.633353	0.912391	-1.793305
C	-0.430128	0.940265	1.043593
N	-0.57773	1.75392	1.878346
C	-0.449241	-1.365122	0.292501
N	-0.578137	-2.518524	0.480487
N	-1.286484	1.648976	-1.543819
H	-2.0831	1.288039	-0.991234
H	-0.905628	2.452648	-1.054396
C	-0.807124	-0.582582	-2.360786
H	-1.766591	-0.931987	-1.978061
H	-0.925713	-0.191714	-3.373509
H	-0.090744	-1.409711	-2.37763
F	-2.441206	0.0	0.0
