16

C	0.0	0.0	0.0
C	-0.176631	-0.083864	-1.568569
F	1.387082	0.0	0.0
H	0.564663	-0.870333	-1.801291
C	-0.475218	1.234238	0.622925
N	-0.569687	2.279984	1.153682
C	-0.476687	-1.207248	0.674375
N	-0.557395	-2.255117	1.204594
N	0.256426	1.220469	-2.088309
H	0.275418	1.162323	-3.098855
H	1.204067	1.398422	-1.781213
C	-1.463088	-0.481415	-2.257047
H	-2.214284	0.287469	-2.124347
H	-1.224005	-0.628916	-3.322956
H	-1.867507	-1.407074	-1.851176
F	-2.293502	0.0	0.0
