14

C	-0.477848	0.297678	-1.386886
C	0.0	0.0	0.0
Br	-0.084537	-1.267209	-2.495152
H	1.093609	0.0	0.0
H	-0.330663	-0.971895	0.355188
N	-2.014021	0.45975	-1.464009
O	-2.663156	-0.213653	-0.676305
O	-2.458664	1.203189	-2.328666
C	0.137617	1.458346	-2.019165
N	0.652768	2.347259	-2.590217
N	-0.449894	1.008559	0.92447
O	-0.340527	0.755003	2.128849
O	-0.823371	2.103116	0.461474
H	2.485073	0.0	0.0
