14

C	-0.460805	-0.074567	-1.419599
C	0.0	0.0	0.0
Br	-0.0363	-1.867427	-2.084262
H	1.107119	0.0	0.0
H	-0.321611	-0.851655	0.592932
N	-1.996923	0.041443	-1.563437
O	-2.656402	-0.377796	-0.623868
O	-2.429415	0.488155	-2.618156
C	0.154647	0.891726	-2.32188
N	0.667618	1.612064	-3.096273
N	-0.457731	1.207592	0.627307
O	-0.357515	1.276928	1.858798
O	-0.832733	2.143397	-0.106439
H	2.4606	0.0	0.0
