14

C	-0.517536	0.069744	-1.417692
C	0.0	0.0	0.0
Br	0.453527	1.318026	-2.548962
H	1.093633	0.0	0.0
H	-0.312266	-0.92582	0.478512
N	-0.346686	-1.375942	-1.98285
O	-1.08638	-2.200051	-1.454796
O	0.478077	-1.590805	-2.852065
C	-1.940834	0.365292	-1.526808
N	-3.0957	0.562427	-1.634137
N	-0.451233	1.095935	0.817894
O	-0.362929	0.93189	2.043359
O	-0.766443	2.166149	0.270593
H	2.465284	0.0	0.0
