14

C	-0.637037	-0.11436	-1.355662
C	0.0	0.0	0.0
Br	0.038043	1.361367	-2.463217
H	1.092784	0.0	0.0
H	-0.253869	0.961697	0.446118
N	-0.252239	-1.400204	-2.104518
O	0.888061	-1.795627	-1.94843
O	-1.112902	-1.876893	-2.836643
C	-2.090203	-0.014137	-1.326361
N	-3.253215	0.142817	-1.242078
N	-0.473676	-1.03777	0.875837
O	-0.915817	-2.087131	0.363865
O	-0.30163	-0.866203	2.090619
H	2.450665	0.0	0.0
