14

C	-0.506312	0.180687	-1.398712
C	0.0	0.0	0.0
Br	0.161678	1.9222	-2.031684
H	1.108361	0.0	0.0
H	-0.269588	0.842956	0.633922
N	0.07922	-0.86562	-2.369607
O	-0.443889	-0.905898	-3.478608
O	1.040658	-1.504837	-1.979904
C	-1.951893	0.183466	-1.568042
N	-3.123822	0.234959	-1.658469
N	-0.506775	-1.207432	0.592106
O	-1.014532	-2.072445	-0.150051
O	-0.317035	-1.350161	1.808573
H	2.437677	0.0	0.0
