14

C	-0.558709	-0.026904	-1.382478
C	0.0	0.0	0.0
Br	-2.552435	0.030674	-1.448
H	1.091608	0.0	0.0
H	-0.296022	-0.892827	0.547968
N	0.004173	1.115601	-2.27558
O	1.202068	0.987632	-2.486609
O	-0.733956	1.99347	-2.679465
C	-0.167322	-1.270774	-2.034391
N	0.146927	-2.272224	-2.564841
N	-0.405813	1.151537	0.754219
O	-0.569507	1.005965	1.975284
O	-0.423739	2.243158	0.162546
H	2.421534	0.0	0.0
