14

C	-0.508355	-0.010857	-1.418475
C	0.0	0.0	0.0
Cl	0.146149	-1.353145	-2.381309
H	1.092214	0.0	0.0
H	-1.593843	-0.05246	-1.52871
H	-0.352922	0.948538	0.432143
N	-0.141469	1.283015	-2.111937
O	1.043041	1.527008	-2.29682
O	-1.091464	2.072149	-2.295575
C	-0.56261	-1.173518	0.785576
H	-0.219876	-1.101257	1.820924
H	-1.662533	-1.22984	0.791928
H	-0.173178	-2.113892	0.388127
F	2.588304	0.0	0.0
