14
Coordinates from ORCA-job run
  C   0.70278885547383     -0.22127301350371     -0.25998573679919
  C   -0.72997136345558      0.20150785285562      0.08567126923770
  F   0.84093092788793     -1.55234880280510     -0.08066996014817
  H   -0.79482438090265      1.27980385482404     -0.08167186507858
  N   1.65853479187423      0.49786765070827      0.70069694103545
  O   1.61186653075560      1.71873927206486      0.62309106081950
  O   2.33388917773705     -0.19249287662678      1.44308611308855
  C   1.06468482983934      0.15774137577643     -1.62501577035542
  N   1.37245666297935      0.46671308374939     -2.71560344702335
  C   -0.97473268444429     -0.06756699598466      1.51679746156174
  N   -1.21857458560783     -0.31396418305050      2.63946938497364
  N   -1.61557676353887     -0.48165826714184     -0.83003378529789
  H   -1.72654050830855     -1.45341167090246     -0.56894351145197
  H   -2.52593149028954     -0.04165727996357     -0.84688815456200
