14
Coordinates from ORCA-job run
  C   0.61880127069370      0.08863613993919     -0.62048998829154
  C   -0.73266671041389     -0.38192892940832     -0.07514714062459
  F   0.67691577255394     -0.10533540688516     -1.96060745978441
  H   -0.79773549169183     -1.43972167319741     -0.34744103747710
  N   1.68370971081984     -0.81338361067171      0.01151628685261
  O   1.55138187238263     -2.00031065331270     -0.25131857988373
  O   2.55110493865162     -0.28581899151709      0.69069811692325
  C   0.88960755467281      1.48512509506766     -0.28233843230946
  N   1.00938761341980      2.62152458068229     -0.00901157337860
  C   -1.81349701409639      0.35236643387854     -0.75334296143211
  N   -2.69687078680708      0.95751273877355     -1.23693550095645
  N   -0.69131860880674     -0.26064117215418      1.36540934968951
  H   -0.90962082070438      0.68181244456350      1.66647223553519
  H   -1.34119930067403     -0.89983699575817      1.80253668513742
