14
Coordinates from ORCA-job run
  C   0.68352959729183     -0.25966152882101     -0.27398374460284
  C   -0.71695281389451      0.23881722129415      0.10122346499356
  F   0.76185038219636     -1.59240048657870     -0.07228943250877
  H   -0.73387413046756      1.31607859812826     -0.08348845121946
  N   1.69917226666722      0.42926592518623      0.64671573931592
  O   1.71049153158283      1.64926220782594      0.54576751274240
  O   2.36037912322467     -0.27959382430246      1.38439636762146
  C   1.02644902604869      0.07604790889657     -1.65511116142325
  N   1.31934559981089      0.34983143387676     -2.75914128473080
  C   -0.93498419227375      0.00562792798203      1.54306438150341
  N   -1.15872054992665     -0.20970900900102      2.67621473638937
  N   -1.65953768953415     -0.41525291765190     -0.77799564933644
  H   -1.81051954892792     -1.37584835827684     -0.49633793673447
  H   -2.54762860179795      0.06853490144198     -0.77903454201009
