14
Coordinates from ORCA-job run
  C   0.60375750372222      0.10528805208005     -0.63060506432675
  C   -0.75580859929234     -0.33414989621539     -0.08002021304158
  F   0.61113171769801      0.01858615061738     -1.98345202804379
  H   -0.88861248558783     -1.36060511183934     -0.43507757202980
  N   1.63366706021027     -0.90238712653623     -0.11003509751963
  O   2.54816171856911     -0.48091431508309      0.58131236275325
  O   1.42702206352721     -2.05452535767838     -0.46377989560217
  C   0.96572850226389      1.45257452578128     -0.19326975875403
  N   1.16786183383565      2.55524292698367      0.15867159024213
  C   -1.81189817679017      0.51180554262350     -0.65979105740670
  N   -2.67045153596388      1.20472348408640     -1.06372436053306
  N   -0.66610090770143     -0.33524057415885      1.36374477089358
  H   -0.82295645044555      0.58962684191900      1.74674572021260
  H   -1.34050224404516     -0.97102514258000      1.76828060315596
