14
Coordinates from ORCA-job run
  C   0.64638200656558     -0.25717053363495     -0.18512833607532
  C   -0.77799876770620      0.24707273485141      0.15710842974470
  F   0.74642757419704     -1.57410017827369      0.09446586412085
  H   -0.79429316138118      1.32065441138334     -0.05346496626069
  N   1.65563905451015      0.50567614668076      0.67403932582023
  O   1.68005817145873      1.70991991318061      0.45154512440275
  O   2.28947293419453     -0.13073574176649      1.49704901226555
  C   0.95626167620851     -0.00581783853911     -1.59270439312799
  N   1.13162286628315      0.19682756065803     -2.73675509788820
  C   -0.98703783056258      0.05272381588137      1.59879199800532
  N   -1.14089540666030     -0.11284848007068      2.75071655005180
  N   -1.82302944324745     -0.40218792617975     -0.59037103961513
  H   -1.78179032525017     -1.40874283164388     -0.49654105062484
  H   -1.80281934860981     -0.14127105252698     -1.56775142081901
