15

C	-0.314781	-0.013342	-1.502879
C	0.0	0.0	0.0
F	0.042788	1.249451	-1.9936
H	1.095809	0.0	0.0
N	0.454509	-1.060542	-2.045509
H	1.434751	-0.953752	-1.776232
H	0.357665	-1.113081	-3.050973
C	-1.741606	-0.200978	-1.838826
N	-2.859295	-0.389576	-2.144608
C	-0.51927	-1.173226	0.680562
N	-0.959982	-2.105042	1.244408
N	-0.517898	1.219812	0.701347
O	-1.479019	1.800274	0.202916
O	0.044107	1.512298	1.749254
Br	3.334624	0.0	0.0
