15

C	-0.355843	0.157596	-1.500013
C	0.0	0.0	0.0
F	-1.695735	0.491592	-1.598125
H	1.092448	0.0	0.0
N	0.418858	1.120365	-2.215256
H	1.396018	0.832683	-2.167658
H	0.3412	2.000915	-1.718191
C	-0.173863	-1.160226	-2.150666
N	-0.076147	-2.195864	-2.69354
C	-0.563204	-1.194451	0.601266
N	-1.033957	-2.184257	1.023305
N	-0.39914	1.197204	0.813101
O	-0.604163	1.013055	2.007076
O	-0.432077	2.288234	0.249469
Br	3.27477	0.0	0.0
