15

C	-0.356393	-0.030937	-1.495695
C	0.0	0.0	0.0
F	-0.124849	1.276934	-1.966378
H	1.092749	0.0	0.0
N	0.460898	-1.005646	-2.082488
H	1.441352	-0.864093	-1.83265
H	0.328721	-1.070683	-3.082575
C	-1.780271	-0.304413	-1.784523
N	-2.895914	-0.549325	-2.056271
C	-0.527566	-1.155872	0.703868
N	-0.952127	-2.082431	1.287817
N	-0.546865	1.251602	0.620378
O	-1.773727	1.342522	0.648467
O	0.253238	2.080403	1.030538
Br	3.364623	0.0	0.0
