15

C	-0.506572	0.039685	-1.447316
C	0.0	0.0	0.0
F	-0.140506	-1.167621	-2.006138
H	1.091506	0.0	0.0
N	-1.94083	0.105311	-1.511475
H	-2.225771	0.010019	-2.482095
H	-2.239724	1.011407	-1.169728
C	0.164813	1.094599	-2.244598
N	0.558812	1.941626	-2.957418
C	-0.501937	-1.184336	0.677255
N	-0.913618	-2.132773	1.233295
N	-0.404748	1.212047	0.782029
O	-0.871452	2.168995	0.157734
O	-0.194413	1.1806	1.98607
Br	3.27491	0.0	0.0
