15

C	-0.31426	0.016251	-1.503088
C	0.0	0.0	0.0
F	0.067603	1.2744	-1.981192
H	1.096429	0.0	0.0
N	0.433131	-1.040406	-2.060538
H	0.331286	-1.078691	-3.066727
H	1.415743	-0.950407	-1.795675
C	-1.745389	-0.14193	-1.836094
N	-2.868069	-0.315739	-2.132263
C	-0.517005	-1.188722	0.654599
N	-0.959513	-2.134663	1.192568
N	-0.512853	1.201425	0.735623
O	-0.014474	1.39995	1.837209
O	-1.405322	1.863217	0.208957
Br	3.326696	0.0	0.0
