15

C	-0.53015	0.026838	-1.443365
C	0.0	0.0	0.0
F	-0.101743	-1.184231	-2.004212
H	1.092249	0.0	0.0
N	-1.942292	0.151626	-1.449578
H	-2.299093	0.187663	-2.396256
H	-2.365164	-0.623496	-0.950836
C	0.048361	1.090839	-2.283954
N	0.41375	1.871421	-3.080843
C	-0.522283	-1.182983	0.667031
N	-0.970307	-2.161854	1.13766
N	-0.430503	1.236185	0.730199
O	-0.207236	2.295467	0.157305
O	-0.927082	1.107942	1.845646
Br	3.286196	0.0	0.0
