15

C	-0.532387	0.010089	-1.44016
C	0.0	0.0	0.0
F	-1.949725	-0.081747	-1.355468
H	1.091823	0.0	0.0
N	-0.095107	1.102485	-2.198019
H	-0.388768	1.975817	-1.786425
H	-0.368025	1.018038	-3.166519
C	-0.100008	-1.235543	-2.108771
N	0.203256	-2.209678	-2.688023
C	-0.48127	-1.184076	0.702201
N	-0.867035	-2.161604	1.225436
N	-0.414992	1.207146	0.802612
O	-0.834497	2.200487	0.209528
O	-0.257545	1.123748	2.010922
Br	3.299807	0.0	0.0
