15

C	-0.509733	0.037162	-1.448654
C	0.0	0.0	0.0
F	-0.2518	-1.211661	-1.975256
H	1.091798	0.0	0.0
N	-1.935623	0.218922	-1.503965
H	-2.153939	1.168661	-1.227448
H	-2.237227	0.086674	-2.46369
C	0.236897	1.007702	-2.28694
N	0.719028	1.799898	-3.008064
C	-0.518405	-1.172281	0.685822
N	-0.94554	-2.113662	1.242507
N	-0.389154	1.231143	0.759059
O	-0.676924	2.231535	0.099771
O	-0.328746	1.17549	1.979032
Br	3.272507	0.0	0.0
