15

C	-0.503101	0.013054	-1.450307
C	0.0	0.0	0.0
F	-0.215701	-1.234846	-1.962589
H	1.094687	0.0	0.0
N	-1.931385	0.165804	-1.517814
H	-2.17282	1.108158	-1.235635
H	-2.222678	0.034663	-2.480732
C	0.227968	0.98942	-2.296128
N	0.666149	1.754926	-3.072067
C	-0.515084	-1.162378	0.704513
N	-0.923294	-2.108549	1.267185
N	-0.391534	1.241681	0.739396
O	-0.713014	2.222625	0.065172
O	-0.303888	1.214108	1.958756
Br	3.269582	0.0	0.0
