15
Coordinates from ORCA-job run
  C   -0.50582500272626     -0.43080854513350      0.28577422316042
  C   0.69577204615692      0.51281069478938      0.03693171104427
  Br  0.12367121787104     -2.29153090026906      0.19628170306752
  H   0.28795483476961      1.52898348620621      0.10878056223598
  C   -1.01830003810878     -0.20666739471215      1.63406605987274
  N   -1.45644032385740      0.02396740146236      2.70057205809852
  C   -1.60057673163750     -0.22154380986882     -0.75306629492853
  H   -1.19395194867307     -0.39416374962832     -1.74753115521616
  H   -1.96372550364191      0.80853818841271     -0.68762250173766
  H   -2.43259510124564     -0.90043886977209     -0.56512695235925
  N   1.21284249939750      0.33647477505492     -1.30631371981847
  H   1.81774936142022      1.11268690219982     -1.54570623283959
  H   1.75984902223260     -0.51529685458602     -1.35810848268388
  C   1.70719610690969      0.36763498108771      1.10219349054712
  N   2.56537956113297      0.26835369475684      1.89887553155697
