15
Coordinates from ORCA-job run
  C   -0.50393707567661     -0.50646898967789      0.45128080148222
  C   0.88387761039894      0.18288840947981      0.38714118001561
  Br  -0.24415798237693     -2.33246921893412      1.12185753124923
  H   1.30528440001936      0.15702220635418      1.39659376593171
  C   -1.31919452281753      0.20880997642292      1.42864945540448
  N   -1.98732169945650      0.78145678849358      2.20762544216176
  C   -1.19319870591533     -0.55541486850524     -0.90528898297069
  H   -0.57629457788707     -1.10404996427293     -1.61979091510299
  H   -1.35974028088095      0.46470194404597     -1.25921017373982
  H   -2.15885967231748     -1.05399383063510     -0.81927144040373
  N   0.69899629703585      1.56705473270471     -0.01470000918331
  H   1.38378038230284      2.16599386047641      0.42630056083110
  H   0.77759503991345      1.67570725490130     -1.01757552484533
  C   1.78545704838144     -0.56695304890679     -0.50517335391217
  N   2.50671373927650     -1.08428525194678     -1.27543833691807
