15
Coordinates from ORCA-job run
  C   -0.48747436233182     -0.44594149948661      0.29416820641867
  C   0.66835883977449      0.54890723097877      0.02869003499984
  Br  0.23722052185205     -2.27356095388960      0.28581394131455
  H   0.20829326156490      1.54466861147111      0.05695763077346
  C   -1.03518786427528     -0.19806171732872      1.62442378361562
  N   -1.50553873302443      0.05089180178875      2.67293799909057
  C   -1.57304354907578     -0.33147353204654     -0.76912207229684
  H   -1.98480510027031      0.68194903879482     -0.75174788273024
  H   -1.14238707113124     -0.52518196951649     -1.74922401392695
  H   -2.37581362023231     -1.04060149137069     -0.56627848565619
  N   1.21633544315652      0.35100002302456     -1.29935928355624
  H   1.78541545719387      1.14805991308006     -1.55747216691588
  H   1.80701230509880     -0.47271421702749     -1.31097458151106
  C   1.66762316976915      0.49463119431218      1.11367422273993
  N   2.51499130193139      0.46642756721588      1.92751266764074
