15
Coordinates from ORCA-job run
  C   -0.51798667591368     -0.51054948568839      0.39585705912445
  C   0.89714460632588      0.13152503055971      0.35429935414203
  Br  -0.33757499803202     -2.31938266686662      1.13053401365800
  H   1.34739540138998     -0.00464078034970      1.34786635291851
  C   -1.31481974867087      0.27045384022993      1.33820572645988
  N   -1.92338619161317      0.94744280459275      2.08231790558271
  C   -1.18134575572461     -0.56987269042457     -0.97248453115675
  H   -2.19191437379066     -0.96974454027692     -0.88473562653274
  H   -0.60288330595383     -1.21400866510018     -1.63656499575302
  H   -1.21859399930763      0.43991783324018     -1.38373303973682
  N   0.75470194117997      1.52510376607332     -0.05248668939066
  H   1.61689807276983      1.87498433790309     -0.45140664344909
  H   0.51860076745140      2.09486756000022      0.75163810975391
  C   1.73457819333386     -0.58061639756081     -0.61499674806867
  N   2.41918606655555     -1.11447994633200     -1.40531024755173
