15
Coordinates from ORCA-job run
  C   -0.50788405697858     -0.50271165268803      0.41924230134156
  C   0.90603119675836      0.13581757128945      0.32300174936890
  Br  -0.30715652162293     -2.29888303681837      1.17938221413526
  H   1.38716707687293      0.01572829466704      1.30409811316719
  C   -1.27425673320667      0.29618106311798      1.37188468291592
  N   -1.85207273410902      0.98923061611998      2.12571639090264
  C   -1.21264424067748     -0.58526811570923     -0.92701816167924
  H   -2.21933650555830     -0.98494511263616     -0.80174397032313
  H   -1.26417249917060      0.41732445206804     -1.35418105740198
  H   -0.65351502839129     -1.23972378871333     -1.59758337181829
  N   0.75296402604924      1.52225482395832     -0.10381812560515
  H   0.53667895666351      2.10522580603005      0.69636098845305
  H   1.60545085794747      1.86508461017966     -0.52855385226064
  C   1.71298264278739     -0.59446755936461     -0.65871159557807
  N   2.38876356263592     -1.14084797150071     -1.44807630561796
