15
Coordinates from ORCA-job run
  C   -0.53155173628593     -0.44390126079137      0.20904709250397
  C   0.67979277510502      0.51735081589307      0.13720058384606
  Br  0.12603515272351     -2.29523903291397      0.13194795042449
  H   0.25412629074741      1.52714734687569      0.19321736996053
  C   -1.20306617973287     -0.27090137095304      1.49357318780423
  N   -1.76621826403390     -0.08165718627295      2.50827014894744
  C   -1.49733324133169     -0.20650662056755     -0.94528464112502
  H   -2.33752374189942     -0.89822515669700     -0.88138280177240
  H   -1.87810300217146      0.81768395295620     -0.88814021482349
  H   -0.97290474353792     -0.34070400061144     -1.88923466503017
  N   1.35576064468231      0.39120004112882     -1.13951152931148
  H   1.91861558978582     -0.45165130763708     -1.15209064084426
  H   1.97219574818481      1.18221723662914     -1.28091828967668
  C   1.55926112048007      0.34295769899243      1.30983649515353
  N   2.32291358728423      0.21222884396903      2.19346995394323
