15
Coordinates from ORCA-job run
  C   -0.57514320134206     -0.36736298665605      0.35358580684165
  C   0.91127967424063      0.02164867103199      0.15300056361279
  Br  -0.69906117716697     -1.42998727569655      1.99348458912839
  H   1.48092076800615     -0.91341160093523      0.16527897442750
  C   -1.35591055939691      0.85151501997654      0.54786198329260
  N   -1.95079734297957      1.85877605399462      0.66638932698640
  C   -1.12179497815492     -1.19241999161668     -0.80712779491913
  H   -0.50704453651469     -2.08488733750538     -0.94412054954690
  H   -2.14489524632625     -1.50325829407333     -0.59529634972614
  H   -1.11388769653251     -0.60233748408832     -1.72631674495565
  N   1.38240471858977      0.86203623611629      1.23279226678465
  H   1.02955949354371      1.80736504530470      1.13249641505669
  H   2.39381066136313      0.89909802491064      1.23691587067466
  C   1.06386515622370      0.63263864725452     -1.18533561438857
  N   1.20869426644677      1.16058727198224     -2.22560874326894
