15
Coordinates from ORCA-job run
  C   -0.49460130257353     -0.42572958535403      0.17088564614109
  C   0.84803597512672      0.37548239594910      0.22645024356196
  Br  -0.13807341208636     -2.21523639827389     -0.55054923341359
  H   0.58592270572383      1.34320389346582      0.67489426163184
  C   -1.01313485069043     -0.58048918006599      1.52538931144599
  N   -1.43716541544894     -0.63933489913973      2.62082593294466
  C   -1.52067110042937      0.26928479203037     -0.71632617587145
  H   -2.45946930931233     -0.28448023484723     -0.71608823008948
  H   -1.70853477211193      1.27852250318736     -0.33708312221401
  H   -1.15567780331273      0.32544091018248     -1.74211296582859
  N   1.50561093916254      0.63514715027351     -1.02985404564926
  H   1.70437662573299     -0.22502253722400     -1.52598976042807
  H   0.96036548851581      1.25285052885254     -1.61521416365736
  C   1.78593307150843     -0.28841397543189      1.14249726295348
  N   2.53808316019529     -0.82022536360443      1.87027503847279
