15
Coordinates from ORCA-job run
  C   -0.46352930474410     -0.47928286772861      0.42386643364599
  C   0.98685358501454      0.10705581356398      0.36915621131413
  Br  -0.35794231311061     -2.30519308054705      1.13080943569257
  H   1.43175036723462     -0.05052094392184      1.35746352803858
  C   -1.21727138198974      0.32451796165732      1.38141552656317
  N   -1.79103449022244      1.02938927731830      2.12761624353196
  C   -1.15628861917657     -0.50418756899242     -0.93280311637226
  H   -2.16440188198544     -0.90735277214709     -0.83466945885514
  H   -0.59195051111897     -1.12781057935698     -1.62779336608534
  H   -1.23177903493366      0.51108045143667     -1.33092383841083
  N   1.07501411840564      1.51559177511469      0.05768959930027
  H   0.60009359412754      2.07822163689615      0.75241533445404
  H   0.72044125572902      1.73012365614075     -0.86460041150053
  C   1.77428776300862     -0.65643782602356     -0.60723888290441
  N   2.38575685376155     -1.26619493341034     -1.40240323841217
