15
Coordinates from ORCA-job run
  C   -0.47520913968976     -0.51756014888607      0.17298685699623
  C   0.65688212635278      0.53823962819465      0.16271431284120
  Br  0.28630297669525     -2.26432244150083     -0.31211008193640
  H   0.17718231664555      1.48258961905712      0.44931412708499
  C   -1.00752368130915     -0.63292281901082      1.52728422839349
  N   -1.45549343364366     -0.67101460888141      2.61360383348153
  C   -1.57744280453327     -0.15901900966788     -0.81604610106615
  H   -2.01372806101382      0.80329353989628     -0.53173968103383
  H   -1.15501491290368     -0.07833697045695     -1.81557298633973
  H   -2.35944590546696     -0.91841812245895     -0.79958785615163
  N   1.19034538057874      0.70022272434789     -1.17605573062222
  H   1.74018384917098      1.54931710914334     -1.22565811890025
  H   1.79633145252110     -0.07968552553780     -1.40402169354099
  C   1.67164505234631      0.23057370657299      1.18953494022605
  N   2.52698478424953      0.01704331918844      1.96635395056764
