15
Coordinates from ORCA-job run
  C   -0.45913326403380     -0.48809422946329      0.42197297384649
  C   0.98927542009784      0.10287105068081      0.36618263526646
  Br  -0.34199522087920     -2.32374821922112      1.10138287816229
  H   1.43905316972413     -0.06522990210080      1.35053702773908
  C   -1.20785785787210      0.29925995988528      1.39697601289955
  N   -1.77365499289537      0.98743738931832      2.16454693239229
  C   -1.16137346449724     -0.49553865309804     -0.92993974858962
  H   -0.60021251605547     -1.10692950631230     -1.63819355904686
  H   -2.16750200834370     -0.90329016867619     -0.83031714901087
  H   -1.24292419001190      0.52518339261904     -1.31262099433034
  N   1.07280240730464      1.51508130990273      0.07117596355139
  H   0.71294933817526      1.73972493034145     -0.84666208841294
  H   0.60076591313277      2.06825233447271      0.77541920926578
  C   1.77188536942299     -0.64475372464846     -0.62631407130004
  N   2.36792189673117     -1.21122596370015     -1.46414602243271
