15
Coordinates from ORCA-job run
  C   -0.53931635169532     -0.49482231816285      0.42130597391347
  C   0.87993679195598      0.13046511750427      0.41599304343719
  Br  -0.38318323134170     -2.35058018155185      1.04089842103139
  H   1.26944858115746      0.05806573416393      1.43591958599075
  C   -1.34745279132456      0.22748228356819      1.39964412850602
  N   -2.00680674684764      0.80555567659283      2.18183594501507
  C   -1.19194806858421     -0.47040878023122     -0.95387452041085
  H   -1.30328732663615      0.56662427212692     -1.27892040830664
  H   -2.18061913293586     -0.92755796136076     -0.90961548107795
  H   -0.58022151016962     -1.02398843956681     -1.66899884196028
  N   0.77011361990087      1.53230929474983      0.04912449944672
  H   1.46988232562153      2.08634560111055      0.52432115638384
  H   0.88128041286413      1.66404697723175     -0.94797346943202
  C   1.77221930098880     -0.63599542013088     -0.47168474823647
  N   2.48895412704629     -1.16654185604388     -1.23697528430026
