15
Coordinates from ORCA-job run
  C   -0.47825205511602     -0.47352840454777      0.41445308273137
  C   0.97971220225628      0.09578043509391      0.39341374492383
  Br  -0.41026704015889     -2.29941749596497      1.12600034598570
  H   1.39864576933541     -0.06459091796509      1.39256754446286
  C   -1.24540679819637      0.34019044294008      1.35272697810901
  N   -1.83305147305034      1.05156857834998      2.08177399285395
  C   -1.13916102432294     -0.49231452335753     -0.95809602342230
  H   -2.15385337609923     -0.88376631128943     -0.88310037213439
  H   -0.56585348752221     -1.12324004286051     -1.63901775085724
  H   -1.19366220049406      0.52321492490804     -1.35891895072340
  N   1.09192758841453      1.50241079691600      0.08118507811196
  H   0.76264252033618      1.71870013756234     -0.85002312028069
  H   0.60675082313969      2.07223318990137      0.76285934949348
  C   1.78097443069599     -0.67843702834616     -0.56303274901249
  N   2.39985412078190     -1.28780378134031     -1.35279115024168
