16

C	-0.384374	0.032747	-1.450807
C	0.0	0.0	0.0
F	0.010212	-1.026376	-2.141126
H	1.091805	0.0	0.0
N	-1.898448	0.164495	-1.649367
O	-2.52065	-0.887983	-1.709582
O	-2.35327	1.302977	-1.671911
N	0.199403	1.265626	-2.158033
O	0.66628	2.159451	-1.469975
O	0.147085	1.212491	-3.380678
N	-0.338249	-1.277327	0.642051
O	-0.917569	-1.247957	1.735848
O	0.110493	-2.293566	0.102324
C	-0.544972	1.105472	0.749187
N	-0.907838	2.033401	1.375617
H	2.334462	0.0	0.0
