16

C	-0.612316	0.006259	-1.36969
C	0.0	0.0	0.0
F	-1.950251	-0.109804	-1.367519
H	1.09176	0.0	0.0
N	-0.284649	1.303198	-2.10791
O	0.603999	2.012218	-1.652432
O	-0.937413	1.485714	-3.130822
N	-0.063302	-1.05777	-2.324618
O	1.129948	-0.9418	-2.565382
O	-0.853984	-1.864967	-2.783607
N	-0.295657	-1.233487	0.694874
O	-0.305931	-2.268682	0.004715
O	-0.312288	-1.201345	1.93337
C	-0.457905	1.141547	0.75868
N	-0.807127	2.089801	1.36107
H	2.299241	0.0	0.0
