16

C	-0.579718	-0.118487	-1.373227
C	0.0	0.0	0.0
F	-1.916824	0.035149	-1.445671
H	1.113526	0.0	0.0
N	0.011011	0.947892	-2.299155
O	0.737274	1.801645	-1.805634
O	-0.318342	0.841854	-3.477403
N	-0.220327	-1.41683	-2.090247
O	0.980318	-1.642233	-2.137196
O	-1.128612	-2.048117	-2.599431
N	-0.334111	-1.124693	0.84192
O	-0.688448	-2.190165	0.303695
O	-0.08632	-0.985856	2.048933
C	-0.401654	1.232294	0.635335
N	-0.706028	2.243925	1.15493
H	2.278961	0.0	0.0
