16

C	-0.211209	0.054767	-1.488156
C	0.0	0.0	0.0
F	-0.480008	1.321847	-1.88418
H	1.11317	0.0	0.0
N	1.097944	-0.362519	-2.111335
O	2.007679	0.499526	-1.820706
O	1.309468	-1.592877	-2.134198
N	-1.358262	-0.761431	-2.05553
O	-2.331129	-0.91228	-1.32438
O	-1.276187	-1.071117	-3.236686
N	-0.366076	-1.250731	0.672979
O	-0.575595	-1.190346	1.885754
O	-0.320101	-2.278181	0.002565
C	-0.461198	1.158717	0.71765
N	-0.792926	2.126744	1.297876
H	2.32296	0.0	0.0
