16

C	-0.522684	0.149911	-1.391487
C	0.0	0.0	0.0
F	-1.848503	0.325014	-1.496019
H	1.113859	0.0	0.0
N	0.140129	1.387778	-2.013255
O	1.216466	1.210742	-2.569421
O	-0.456678	2.445129	-1.85215
N	-0.117709	-0.9865	-2.319374
O	-0.808299	-1.094188	-3.326522
O	0.873695	-1.629808	-2.020626
N	-0.435259	-1.227676	0.627266
O	-0.114981	-1.365273	1.816087
O	-1.002409	-2.090176	-0.066375
C	-0.336924	1.131222	0.828249
N	-0.519587	2.066481	1.519625
H	2.293294	0.0	0.0
