16

C	-0.43901	-0.06444	-1.431539
C	0.0	0.0	0.0
F	-0.47272	1.168696	-1.961503
H	1.10174	0.0	0.0
N	0.508025	-0.89937	-2.294464
O	1.010564	-1.877623	-1.766605
O	0.677685	-0.495097	-3.437303
N	-1.846005	-0.63839	-1.667346
O	-2.720532	-0.087454	-1.014713
O	-1.983665	-1.512648	-2.510974
N	-0.398354	-1.140869	0.799584
O	-0.888159	-2.128686	0.230722
O	-0.1197	-1.074331	2.002767
C	-0.387058	1.231275	0.641255
N	-0.63607	2.261669	1.150853
H	2.314203	0.0	0.0
