16

C	-0.291085	0.068352	-1.512128
C	0.0	0.0	0.0
F	0.11585	-1.193779	-2.011379
H	1.095739	0.0	0.0
N	-1.673455	0.274877	-1.796721
H	-1.816105	0.241952	-2.798762
H	-2.221064	-0.466751	-1.373168
C	0.609667	1.098821	-2.154449
H	0.288626	2.103623	-1.875352
H	0.572705	0.99429	-3.242808
H	1.618512	0.909081	-1.776251
C	-0.570378	-1.193381	0.596174
N	-1.041411	-2.165222	1.06168
C	-0.463969	1.200022	0.675286
N	-0.815118	2.184971	1.21249
F	2.519195	0.0	0.0
