16

C	-0.286135	0.027763	-1.512599
C	0.0	0.0	0.0
F	0.141564	-1.243139	-1.978888
H	1.095676	0.0	0.0
N	-1.668904	0.207926	-1.812559
H	-1.801063	0.150754	-2.815454
H	-2.211649	-0.528925	-1.378975
C	0.605811	1.054024	-2.177052
H	1.618356	0.878211	-1.797473
H	0.568025	0.928725	-3.262594
H	0.275911	2.062594	-1.917081
C	-0.56754	-1.180296	0.623715
N	-1.035364	-2.14381	1.109098
C	-0.472814	1.213991	0.642072
N	-0.829551	2.210769	1.153065
F	2.515773	0.0	0.0
