16

C	-0.092438	0.051422	-1.538372
C	0.0	0.0	0.0
F	-1.399048	0.304922	-1.974896
H	1.096697	0.0	0.0
N	0.743144	1.159224	-1.914782
H	1.632475	1.011366	-1.417805
H	0.923147	1.10855	-2.910987
C	0.343849	-1.279092	-2.126513
H	1.353139	-1.473967	-1.75517
H	-0.326663	-2.092248	-1.843764
H	0.360039	-1.199138	-3.217859
C	-0.558412	-1.200139	0.591329
N	-0.989763	-2.183722	1.069893
C	-0.528299	1.200716	0.624348
N	-0.959475	2.148051	1.169766
F	2.558933	0.0	0.0
