16

C	-0.072289	0.021221	-1.552268
C	0.0	0.0	0.0
F	-1.386552	0.218956	-1.97687
H	1.096642	0.0	0.0
N	0.732774	1.104204	-2.059683
H	0.330597	1.979785	-1.73823
H	1.634534	0.990946	-1.583147
C	0.451283	-1.288953	-2.090759
H	0.482536	-1.22422	-3.179366
H	1.45927	-1.417916	-1.688711
H	-0.185828	-2.121865	-1.784583
C	-0.574884	-1.172271	0.62544
N	-1.024745	-2.140168	1.119244
C	-0.512071	1.231295	0.568343
N	-0.905631	2.249756	1.004602
F	2.548008	0.0	0.0
