15
Coordinates from ORCA-job run
  C   -0.75613530526305     -0.17177426787743      0.29621174410137
  C   0.32299127081334     -0.64936179032908     -0.67666765256167
  Br  -2.32135904152548     -1.47860706974725     -0.00318472857581
  H   0.60089265801350     -1.67609252929615     -0.41704108556820
  H   -0.11683078348186     -0.69141517389729     -1.67615683078612
  N   -0.29080050549739     -0.18920722069215      1.62491717273013
  H   -1.02159077673461      0.10232466209025      2.26147245443167
  H   0.06979812687229     -1.09430575831509      1.89476965455669
  N   -1.33132821377429      1.12334794035048      0.06348444904502
  H   -1.69956444159458      1.19784299080768     -0.87560079391546
  H   -0.62256518829634      1.83113681982936      0.21854647793487
  C   1.55512864497309      0.25311904243932     -0.67208434285486
  H   1.30822323970741      1.26495590375058     -1.00141358525456
  H   2.30802485527188     -0.13802100029063     -1.36021513116216
  H   1.99611546051609      0.31605745117741      0.32296219787910
