15
Coordinates from ORCA-job run
  C   -0.68676316884815     -0.14571009531485      0.12480578365672
  C   0.46010668909283      0.34183357252521     -0.75300217480880
  Br  -1.23308796534834     -1.96145544793635     -0.42410968156947
  H   0.09079359224273      0.37271255801602     -1.77995029569064
  H   0.64988396936695      1.38490971759560     -0.45662806272973
  N   -0.23120121107368     -0.27659892611611      1.49490594363162
  H   0.06225174048505      0.63709472010099      1.82875631742180
  H   -0.98078915368924     -0.61162872409379      2.08928918090909
  N   -1.84580105078180      0.68762215033195     -0.13636335035600
  H   -1.62420850021497      1.64433443029950      0.12299199925572
  H   -2.63733380870400      0.37905271883507      0.41720342314089
  C   1.74928846513295     -0.46007552452870     -0.64799728924326
  H   2.11260975757896     -0.48995846662046      0.37877962593634
  H   2.52023406841670     -0.01369300335977     -1.28080955030913
  H   1.59301657634401     -1.48743967973430     -0.97887186924514
