15
Coordinates from ORCA-job run
  C   -0.70521014824646      0.01943288559137      0.12928472594679
  C   0.46231955473052      0.28505765548763     -0.81012172205958
  Br  -1.44333563677540     -1.82960374998782     -0.32515855100641
  H   0.69045528933469      1.35262245439040     -0.69892167115112
  H   0.09481485558990      0.13621857779419     -1.82629096310172
  N   -0.30225619893217      0.08763428794168      1.49106443289403
  H   -1.08923338986926     -0.06795973713184      2.10947622251628
  H   0.41835471467567     -0.58880738329486      1.71046766678214
  N   -1.79199151966747      0.91285476905899     -0.18532624581495
  H   -1.53929633127392      1.83532316281877      0.15659975324944
  H   -2.64674377875952      0.61954124711725      0.27244601336151
  C   1.71685487128300     -0.53681041469609     -0.54861390716502
  H   2.17482139497682     -0.28080825304974      0.40971504410836
  H   2.46225362390246     -0.33930178490869     -1.32174450678754
  H   1.49819269903114     -1.60639371713125     -0.56287629177220
