15
Coordinates from ORCA-job run
  C   -0.52830859575030     -0.00784387918046      0.47254856610615
  C   0.89627828922908     -0.34527391762499      0.07272564519924
  Br  -1.73392153367975     -1.42360719191059     -0.73318998533242
  H   1.04906417746442     -1.41596147334668      0.22599893831828
  H   1.52264185116315      0.19126671177804      0.79479392485340
  N   -0.78431864728568     -0.29817536560067      1.81513651303738
  H   -0.51543114401687     -1.24599747643435      2.04031827908155
  H   -1.75641415896994     -0.16611094425877      2.06429511091136
  N   -0.91843850809897      1.28440042693136      0.12352340874529
  H   -1.84788034293399      1.51551461587320      0.44981149628247
  H   -0.86884570191690      1.43427448626200     -0.87386900949847
  C   1.28625749159998      0.04672353162454     -1.34498309369394
  H   1.27093934429551      1.13114573037914     -1.47537928192588
  H   0.62277650356824     -0.41445357212504     -2.07778913129573
  H   2.30460097533200     -0.28690168236675     -1.55394138078869
