15
Coordinates from ORCA-job run
  C   -0.66272654713666     -0.10408829717902      0.35969767737789
  C   0.81983524336142     -0.34386040383820      0.08086845665419
  Br  -1.67628338827138     -1.46135991152620     -0.81838913620572
  H   1.35344694906630      0.22801934801101      0.85051450840862
  H   1.02542831695146     -1.40255953940864      0.25812351751859
  N   -1.10734646094325     -0.41474272695699      1.69317218289056
  H   -0.91220490004486     -1.38122566746666      1.92038312805138
  H   -0.61362512460651      0.19258152397448      2.33973185593067
  N   -1.03638391459707      1.22541984000439      0.09646958973068
  H   -0.85339732244268      1.50446326583408     -0.85680979817556
  H   -2.01344138148439      1.36467111236531      0.32107599741994
  C   1.31552966328859      0.07008333523218     -1.29927512309400
  H   1.26054593466698      1.15281084051984     -1.43515926923266
  H   0.73816830703866     -0.41660274937509     -2.08682900255030
  H   2.36245462515336     -0.21460997019050     -1.42457458472425
