15
Coordinates from ORCA-job run
  C   -0.79279614883182     -0.09260554161805      0.10817407643661
  C   0.42160280207690      0.31006488738509     -0.73082804205491
  Br  -1.34581420499969     -1.92483231094477     -0.45506282433962
  H   0.63994692654776      1.35401125879190     -0.46025940734168
  H   0.12106754377548      0.30698521606979     -1.78153256548802
  N   -0.57650556194386     -0.20224745239317      1.53976751874389
  H   0.08004610622699     -0.94033514013218      1.76313551480781
  H   -0.20691578094576      0.68112548148649      1.87988585915973
  N   -1.87457444065657      0.79134386440084     -0.18970931038385
  H   -2.59493881291174      0.69604750633947      0.51587234702823
  H   -1.55480541689111      1.75113704934501     -0.23333621493202
  C   1.67580287962258     -0.52651646128635     -0.52485616412581
  H   2.48603877735027     -0.14636328439804     -1.15070819204018
  H   2.01830417678736     -0.48757315503496      0.51167930315426
  H   1.50354115479325     -1.56924191801107     -0.79322189862445
