15
Coordinates from ORCA-job run
  C   -0.77668543239677     -0.31405730502421      0.14336642570752
  C   0.40391015380732     -0.67112932388869     -0.75303625973434
  Br  -2.20934999226585     -1.62638918221366     -0.18886021243911
  H   0.04823255414142     -0.65485082864296     -1.78497744305373
  H   0.70295332500575     -1.69235644642780     -0.50943441342180
  N   -0.40970222526943     -0.49327939223882      1.53802580845275
  H   0.27729548432917      0.21092462342767      1.78813259463078
  H   -1.22112959021352     -0.36255942131139      2.13182837596874
  N   -1.33150933974326      0.96772405275364     -0.25799600214492
  H   -2.18091404243910      1.15833662038033      0.26189199257544
  H   -0.66053423357910      1.69718506779740     -0.03866868178547
  C   1.59881521230833      0.27062481763300     -0.60039180678498
  H   2.00847001657644      0.25638986102515      0.41244595008235
  H   2.40113900532371     -0.04630995605216     -1.27001048735553
  H   1.35000910441491      1.29974681278252     -0.87031584069769
