15
Coordinates from ORCA-job run
  C   -0.73523391212665      0.02544151784972      0.22514852003894
  C   0.42619501465752      0.32705747907815     -0.72431122674206
  Br  -1.42670635600868     -1.83727887663114     -0.30830571224206
  H   0.70566276112708      1.36562687824286     -0.50782568101550
  H   0.05373039599926      0.30067268550001     -1.75341059428777
  N   -0.43503313009268     -0.09660940022669      1.62555697206784
  H   0.21825369451859     -0.84745831660066      1.80118044376578
  H   -0.04873698607100      0.78412480355120      1.94938448272940
  N   -1.73116055487859      1.01458298999968      0.10173881173443
  H   -2.51726573877556      0.80064892735082      0.70242838067228
  H   -2.04010674249444      1.13386893934824     -0.85354573614651
  C   1.64329822459772     -0.57567181674835     -0.58697213047059
  H   1.39649135693444     -1.61516651179292     -0.80420348185511
  H   2.42216494249483     -0.25920543878182     -1.28409640276398
  H   2.06744703011818     -0.52163386013909      0.41823335451491
