15
Coordinates from ORCA-job run
  C   0.88793102774271     -0.26007203286632     -0.44897663740248
  C   -0.54759714349769      0.17062948684661     -0.12428021454699
  Cl  1.30984464801355     -0.01853292736512     -2.14610417864400
  H   -1.19169923661943     -0.31145304897867     -0.86563689528552
  H   1.62539282772592      0.25178483297753      0.16884043578893
  N   1.02942659812297     -1.71816879810260     -0.11081181879900
  O   1.79678441574222     -1.99291568833598      0.80882057030624
  O   0.31685173642455     -2.50502832759543     -0.72316477932005
  C   -0.67652959140587      1.68331208092390     -0.22131112898071
  H   -1.70853430794708      1.96151198908936     -0.00767833637294
  H   -0.40286710392659      2.05643447762590     -1.20827900987354
  H   -0.03452668029828      2.16808964682636      0.52130444652739
  N   -0.98274607914840     -0.26901771818599      1.18852917834560
  H   -1.05825416667497     -1.27605837126517      1.24868356933072
  H   -0.36447694425360      0.06048439840562      1.92006479892635
