15
Coordinates from ORCA-job run
  C   0.48268218299394     -1.02304469912857     -0.27685581798154
  C   -0.52423459535604      0.12669997552247     -0.27035816310342
  Cl  0.58176610443402     -1.85758108961168      1.26696095232003
  H   -0.50841506923275      0.51053312043775     -1.29578739483988
  H   0.21185414274951     -1.74657398305934     -1.04274603344722
  N   1.82883430361967     -0.46690348776296     -0.68628791566897
  O   1.89228818668598     -0.17915161524818     -1.87934674423677
  O   2.70033184474703     -0.28717292991158      0.15190479642269
  C   -0.13829538648872      1.24616882596052      0.69160694772978
  H   0.82860267017350      1.69181113922002      0.44648210899057
  H   -0.09377784141671      0.87964321950622      1.71938384661460
  H   -0.89246506103425      2.03486575276609      0.64239222060015
  N   -1.83940147346257     -0.46393989403158     -0.05626395696078
  H   -2.55575831851804      0.19305622049330     -0.33923352398387
  H   -1.97501168989456     -0.65941055515247      0.92914867754463
