15
Coordinates from ORCA-job run
  C   -0.68183999541459     -0.16609904099246      0.39435745247342
  C   0.73331831080749      0.42670932193655      0.36979165888576
  Cl  -1.40370998402237     -0.00114150578947      2.00268873191429
  H   1.29834212269058     -0.02276032238945      1.19145026957476
  N   -0.50299732078571     -1.71201975830270      0.20471602590358
  O   -1.43782498863847     -2.29615754117233     -0.32510998420551
  O   0.53849960157237     -2.22072891110328      0.60792237775565
  N   -1.48975516398422      0.40582025364564     -0.58849029181477
  H   -2.39410254493533     -0.04388194700279     -0.64359507033930
  H   -1.00491541741348      0.36182797986019     -1.47860803079196
  C   0.65133223964640      1.86960032094768      0.60013756442334
  N   0.65038997435614      3.02773660553077      0.79014169028408
  N   1.30013768656450      0.14430728928897     -0.94889752016092
  H   1.86780155235283      0.91406845736247     -1.27733024795610
  H   1.87632392720385     -0.68628120181979     -0.89717462594631
