15
Coordinates from ORCA-job run
  C   -0.55950952479853     -0.39437621821516      0.34863848969454
  C   0.58737112012403      0.63424147352913      0.32316793585070
  Cl  -0.39921771681885     -1.41299870780376      1.82856443094275
  H   0.35668309374870      1.30844165893489      1.15710321527902
  N   -0.45464918781509     -1.37121883077922     -0.82295813264736
  O   0.61902719215616     -1.44023936307792     -1.40976634175690
  O   -1.46042294030038     -2.02131606505561     -1.06949770589623
  N   -1.80040965518988      0.25044072214427      0.20366638552785
  H   -1.98765855285365      0.87166636793932      0.98006098171561
  H   -2.55058598038948     -0.42328492951550      0.10659016716131
  C   0.48249802588135      1.42575336062971     -0.91996638592119
  N   0.49480724391955      2.07653233215392     -1.89784175728238
  N   1.89301191831836      0.07351438062649      0.57553097514649
  H   2.24486802355724     -0.38337548233418     -0.25443963037123
  H   2.53418694046048      0.80521930082363      0.85114737255702
