15
Coordinates from ORCA-job run
  C   -0.62624200465697     -0.14745647559958      0.38426056810202
  C   0.79663096063565      0.45293626759840      0.41943442836215
  Cl  -1.40840765654964      0.02276716111226      1.95975583881380
  H   1.31374232851396     -0.01451974718342      1.26029238243662
  N   -0.42751300830722     -1.69245838616035      0.19703291431799
  O   0.48487026395907     -2.21970637590222      0.82281131960365
  O   -1.20334589916343     -2.25183117984062     -0.56846322908871
  N   -1.42663851387899      0.41737235492623     -0.61902902636056
  H   -2.37180510196774      0.05712711454712     -0.59091183489164
  H   -1.03513001030248      0.23633237577507     -1.53481396716960
  C   0.68387642492727      1.89135720035321      0.68457910032262
  N   0.62064267799667      3.04649857602515      0.88007532137510
  N   1.58650389907611      0.23918999238792     -0.76923163511013
  H   1.22202743902884      0.69708876962569     -1.59219280721670
  H   1.79178820068891     -0.73569764766487     -0.93459937349662
