15

C	-0.41071	0.067238	-1.462964
C	0.0	0.0	0.0
Br	0.33797	-1.668629	-2.283247
H	1.091054	0.0	0.0
N	-1.809535	0.164096	-1.633992
H	-2.067613	0.129053	-2.613567
H	-2.281232	-0.572955	-1.12317
C	0.264725	1.101663	-2.25199
N	0.689663	1.895962	-3.007739
C	-0.547362	-1.157562	0.662302
N	-0.973864	-2.128146	1.175923
N	-0.333138	1.210561	0.727158
O	-0.215931	2.277744	0.109682
O	-0.539331	1.115937	1.945626
H	2.341938	0.0	0.0
