15

C	-0.267664	-0.031294	-1.531067
C	0.0	0.0	0.0
Br	0.212745	1.682618	-2.367201
H	1.092236	0.0	0.0
N	0.555176	-1.051506	-2.130838
H	1.498057	-0.920814	-1.737247
H	0.213762	-1.960123	-1.830253
C	-1.683058	-0.253573	-1.839092
N	-2.816108	-0.4749	-2.061101
C	-0.470478	-1.252592	0.555733
N	-0.732141	-2.32898	0.953766
N	-0.543537	1.134205	0.762057
O	0.055194	2.205654	0.656392
O	-1.533048	0.939155	1.482895
H	2.51301	0.0	0.0
