15

C	-0.404026	0.06339	-1.470331
C	0.0	0.0	0.0
Br	0.074141	-1.673893	-2.285779
H	1.091084	0.0	0.0
N	-1.825064	0.243982	-1.641857
H	-2.05378	1.139093	-1.217482
H	-2.042998	0.29439	-2.632733
C	0.409148	1.043792	-2.21787
N	0.943219	1.830573	-2.910535
C	-0.471121	-1.169767	0.698893
N	-0.806852	-2.132551	1.285497
N	-0.353972	1.192497	0.714976
O	-0.575153	2.229295	0.046432
O	-0.236631	1.169773	1.951117
H	2.316256	0.0	0.0
