15

C	-0.230794	-0.06514	-1.518373
C	0.0	0.0	0.0
Br	0.127833	1.856759	-2.247198
H	1.092678	0.0	0.0
N	0.693444	-1.005294	-1.963213
H	0.730194	-1.099173	-2.96981
H	1.622466	-0.812581	-1.534786
C	-1.58984	-0.328448	-1.98196
N	-2.667309	-0.589979	-2.376702
C	-0.515714	-1.187102	0.648195
N	-0.898201	-2.150767	1.204568
N	-0.608595	1.195857	0.64839
O	0.123228	1.900787	1.335798
O	-1.81247	1.369643	0.461014
H	2.601796	0.0	0.0
