15

C	-0.409658	0.033544	-1.464691
C	0.0	0.0	0.0
Br	0.344165	-1.72026	-2.244859
H	1.091021	0.0	0.0
N	-1.80829	0.123351	-1.639799
H	-2.06707	0.06551	-2.618089
H	-2.280446	-0.600839	-1.110871
C	0.264596	1.053044	-2.27396
N	0.683289	1.832303	-3.048019
C	-0.548175	-1.140273	0.690245
N	-0.975757	-2.098127	1.226053
N	-0.328897	1.226787	0.698646
O	-0.235873	2.279058	0.051702
O	-0.499792	1.161844	1.925264
H	2.338892	0.0	0.0
