15

C	-0.392765	0.048641	-1.473133
C	0.0	0.0	0.0
Br	0.067346	-1.702856	-2.26589
H	1.091019	0.0	0.0
N	-1.811047	0.245537	-1.657781
H	-2.025741	1.151609	-1.249735
H	-2.015489	0.287008	-2.651728
C	0.434347	1.01501	-2.22498
N	0.960811	1.770907	-2.956869
C	-0.476692	-1.158875	0.712467
N	-0.807649	-2.120518	1.304208
N	-0.348137	1.20388	0.698854
O	-0.229399	1.199001	1.935129
O	-0.563961	2.232077	0.014952
H	2.313471	0.0	0.0
