15

C	-0.400852	0.009255	-1.436972
C	0.0	0.0	0.0
Br	-2.636172	0.02623	-1.53159
H	1.102936	0.0	0.0
N	0.127158	1.030556	-2.191065
H	0.039056	1.928404	-1.731115
H	-0.162577	1.019662	-3.157374
C	-0.153835	-1.283504	-2.059193
N	0.137997	-2.284653	-2.606289
C	-0.406514	-1.190854	0.7049
N	-0.655999	-2.203848	1.248574
N	-0.309928	1.184865	0.754484
O	-0.345203	1.081645	1.988468
O	-0.334156	2.274173	0.149765
H	2.26318	0.0	0.0
