15

C	-0.235713	0.168655	-1.505887
C	0.0	0.0	0.0
Br	-2.148323	0.597833	-1.891357
H	1.10968	0.0	0.0
N	0.600312	1.15289	-2.143711
H	0.390149	2.037048	-1.690189
H	1.553242	0.908289	-1.845483
C	0.01079	-1.129469	-2.146485
N	0.228877	-2.154857	-2.678099
C	-0.523064	-1.217384	0.563095
N	-0.895868	-2.250028	0.987622
N	-0.348479	1.143999	0.817842
O	-0.51923	0.94977	2.02799
O	-0.30745	2.267921	0.292422
H	2.375756	0.0	0.0
