15

C	-0.269038	-0.099671	-1.495968
C	0.0	0.0	0.0
Br	0.482202	1.581927	-2.421159
H	1.109294	0.0	0.0
N	0.428458	-1.255602	-1.907939
H	0.419736	-1.359197	-2.914913
H	1.392427	-1.178089	-1.562187
C	-1.672753	-0.127504	-1.898028
N	-2.795225	-0.22729	-2.233957
C	-0.425153	-1.186891	0.705385
N	-0.7381	-2.150679	1.304121
N	-0.53046	1.177498	0.68939
O	-1.21913	1.988005	0.062002
O	-0.203585	1.28486	1.874391
H	2.42492	0.0	0.0
