15

C	-0.282732	0.017986	-1.49311
C	0.0	0.0	0.0
Br	-2.313366	0.45671	-1.794197
H	1.108786	0.0	0.0
N	0.53379	0.90982	-2.199323
H	1.281345	1.268384	-1.612173
H	0.881712	0.52607	-3.064103
C	-0.189167	-1.344455	-2.0206
N	-0.032045	-2.400862	-2.514347
C	-0.576217	-1.132177	0.677014
N	-0.989803	-2.103986	1.195299
N	-0.314615	1.249962	0.681747
O	0.065597	2.281044	0.117845
O	-0.809677	1.20108	1.812742
H	2.383488	0.0	0.0
