15

C	-0.501147	0.05071	-1.441872
C	0.0	0.0	0.0
Br	0.482183	1.39655	-2.433882
H	1.09423	0.0	0.0
N	-0.263506	-1.275147	-2.173924
O	-0.991441	-1.507857	-3.134871
O	0.651539	-1.97141	-1.76293
C	-1.924232	0.358916	-1.528539
N	-3.072018	0.614097	-1.511046
C	-0.554737	-1.168496	0.667067
N	-1.040378	-2.08894	1.2176
N	-0.364131	1.257116	0.64563
H	0.438372	1.550774	1.189603
H	-1.171027	1.16379	1.247197
F	2.494921	0.0	0.0
