15

C	-0.475689	-0.005186	-1.442861
C	0.0	0.0	0.0
Br	-2.435227	-0.090363	-1.612514
H	1.094631	0.0	0.0
N	0.016237	1.307286	-2.089674
O	1.195359	1.285356	-2.413362
O	-0.760266	2.242562	-2.18218
C	0.074483	-1.117368	-2.205736
N	0.505489	-2.003367	-2.847259
C	-0.455463	-1.209626	0.671017
N	-0.833767	-2.152888	1.26483
N	-0.375404	1.23377	0.659044
H	-1.215406	1.149587	1.216638
H	0.405612	1.508988	1.241806
F	2.477097	0.0	0.0
