15

C	-0.529891	0.035289	-1.431485
C	0.0	0.0	0.0
Br	0.478361	1.315897	-2.489033
H	1.092464	0.0	0.0
N	-0.353464	-1.319537	-2.123206
O	0.6341	-1.964108	-1.808205
O	-1.197395	-1.627648	-2.960298
C	-1.941716	0.396875	-1.491131
N	-3.07635	0.704957	-1.456553
C	-0.545639	-1.159057	0.691704
N	-1.011532	-2.058391	1.291739
N	-0.342138	1.267063	0.639106
H	0.481877	1.564698	1.147193
H	-1.126596	1.186239	1.272175
F	2.494159	0.0	0.0
