15

C	-0.483919	0.005554	-1.439872
C	0.0	0.0	0.0
Br	-2.446772	-0.028349	-1.595028
H	1.094743	0.0	0.0
N	0.037125	1.301846	-2.094018
O	-0.708196	2.262191	-2.172013
O	1.20892	1.242895	-2.436319
C	0.031183	-1.124128	-2.200776
N	0.440605	-2.035747	-2.819564
C	-0.460725	-1.20864	0.667368
N	-0.835836	-2.152	1.263166
N	-0.364217	1.233323	0.667693
H	-1.190224	1.145777	1.243988
H	0.429067	1.506809	1.23376
F	2.474426	0.0	0.0
