14

C	-0.522063	-0.091389	-1.436033
C	0.0	0.0	0.0
F	-1.874876	-0.212528	-1.452486
H	1.096266	0.0	0.0
N	-0.176863	1.215835	-2.169196
O	0.975569	1.309699	-2.558035
O	-1.079783	2.033435	-2.263647
C	0.067388	-1.203329	-2.184852
N	0.427834	-2.125403	-2.817318
C	-0.452942	-1.185661	0.726702
N	-0.822367	-2.14447	1.295902
C	-0.495052	1.213004	0.646765
N	-0.893312	2.188517	1.166089
Cl	3.077824	0.0	0.0
