14

C	-0.431736	0.100182	-1.47042
C	0.0	0.0	0.0
F	0.01622	1.262631	-1.980522
H	1.097686	0.0	0.0
N	0.20215	-1.04695	-2.277287
O	1.004271	-0.739717	-3.139848
O	-0.204172	-2.160839	-1.971941
C	-1.885006	0.003302	-1.663783
N	-3.050757	-0.039389	-1.80497
C	-0.510441	-1.192043	0.667608
N	-0.934709	-2.122351	1.246855
C	-0.471684	1.197899	0.692823
N	-0.840924	2.159844	1.257545
Cl	3.079492	0.0	0.0
