14

C	-0.415006	-0.074726	-1.476462
C	0.0	0.0	0.0
F	-0.070606	1.071197	-2.095169
H	1.096972	0.0	0.0
N	0.331705	-1.226915	-2.176019
O	0.776782	-0.986635	-3.284619
O	0.342114	-2.283432	-1.564152
C	-1.847525	-0.331869	-1.674434
N	-2.997944	-0.517636	-1.827503
C	-0.525386	-1.103188	0.797681
N	-0.978509	-1.939076	1.487694
C	-0.487439	1.263734	0.551073
N	-0.884838	2.264537	1.020492
Cl	3.081209	0.0	0.0
