14

C	-0.426275	-0.034672	-1.475446
C	0.0	0.0	0.0
F	-0.080773	1.124177	-2.06684
H	1.095902	0.0	0.0
N	0.314168	-1.173487	-2.202598
O	0.179426	-2.274137	-1.689267
O	0.907114	-0.878373	-3.224523
C	-1.861505	-0.281343	-1.669433
N	-3.011157	-0.471051	-1.822756
C	-0.509178	-1.130829	0.769427
N	-0.965258	-1.986395	1.43322
C	-0.483679	1.248704	0.586357
N	-0.885318	2.25266	1.04542
Cl	3.080924	0.0	0.0
