14

C	-0.51108	-0.044271	-1.442111
C	0.0	0.0	0.0
F	-1.862623	-0.1472	-1.476999
H	1.096373	0.0	0.0
N	-0.136769	1.2734	-2.15221
O	-1.057032	1.904559	-2.651223
O	1.054404	1.537917	-2.14592
C	0.075157	-1.14257	-2.214219
N	0.464249	-2.040656	-2.864235
C	-0.465914	-1.20087	0.69097
N	-0.832335	-2.172289	1.239972
C	-0.498803	1.205598	0.657746
N	-0.897237	2.185768	1.167828
Cl	3.105623	0.0	0.0
