13

C	-0.478586	-0.021677	-1.458627
C	0.0	0.0	0.0
F	-0.020763	1.11311	-2.099289
H	1.095695	0.0	0.0
H	-1.575802	0.015601	-1.48678
C	-0.045632	-1.211697	-2.205525
N	0.250798	-2.143821	-2.853655
C	-0.53125	-1.194635	0.664124
N	-1.015669	-2.142329	1.161101
N	-0.415629	1.2029	0.704673
H	0.272474	1.9213	0.519288
H	-1.323149	1.525965	0.389463
Cl	3.262707	0.0	0.0
