13

C	-0.463466	-0.044235	-1.445862
C	0.0	0.0	0.0
F	-1.851122	-0.191324	-1.50064
H	1.095297	0.0	0.0
H	-0.019453	-0.901373	-1.959915
C	-0.117679	1.192777	-2.159497
N	0.147616	2.160538	-2.766285
C	-0.453762	-1.229479	0.669393
N	-0.836725	-2.186979	1.232386
N	-0.460574	1.216755	0.651891
H	0.236671	1.507379	1.323636
H	-1.343569	1.077764	1.123766
Cl	3.250947	0.0	0.0
