13

C	-0.455601	-0.03412	-1.448112
C	0.0	0.0	0.0
F	-1.843607	-0.169691	-1.511764
H	1.102192	0.0	0.0
H	-0.015955	-0.892066	-1.963809
C	-0.099731	1.203598	-2.156614
N	0.121846	2.164839	-2.791415
C	-0.459197	-1.232608	0.661724
N	-0.868599	-2.177233	1.22787
N	-0.461277	1.21414	0.653663
H	-1.370399	1.087503	1.077941
H	0.209169	1.479775	1.36264
Cl	3.251496	0.0	0.0
