18
Coordinates from ORCA-job run
  C   -0.55724915892028      0.09683370866431      0.42436519908435
  C   0.92670946676205     -0.27404751962678      0.21707780338034
  F   -1.05338012636408     -0.87503378516960      1.31052692496043
  H   1.38629006223871     -0.24068448438813      1.21232429398212
  C   -0.70124953913256      1.43848861503532      1.11433145381477
  H   -0.36129080118358      2.25155239040736      0.47028449993251
  H   -0.12014034244959      1.45382437362507      2.03940051473744
  H   -1.75061929649218      1.60506326140399      1.36545599347834
  C   -1.37632279376490      0.01076222609932     -0.84676989905041
  H   -2.40908536856315      0.29290390565084     -0.63262426043811
  H   -0.98247506727785      0.68466684718884     -1.61092177913382
  H   -1.37928609823887     -1.00732094483771     -1.23751315789798
  C   1.57805563786476      0.74155979669419     -0.61039062265818
  N   2.08111323962778      1.54865209689673     -1.29939498045985
  C   1.13740772715158     -1.67171275689815     -0.37355874316844
  H   2.19489936248456     -1.93879791479552     -0.33555042662005
  H   0.81597113199913     -1.71732881897853     -1.41458649587316
  H   0.57165196425848     -2.39938099697154      0.20854368192970
