18
Coordinates from ORCA-job run
  C   -0.59831595367819      0.17476679123847     -0.12865468879623
  C   0.91177782090689     -0.14007873755606     -0.12850223514842
  F   -1.21379364855855     -0.80522353183878     -0.92170141132421
  H   1.40772912815294      0.64006827311935      0.46257661992956
  C   -1.19513604176052      0.06301031332702      1.26177897389874
  H   -1.13907160461152     -0.96262864038518      1.62642412658662
  H   -0.67819264609149      0.72043548535714      1.96538759260851
  H   -2.24766601932936      0.35065981507651      1.22880774967631
  C   -0.89421181320224      1.51763186075785     -0.76720073623809
  H   -0.52426990079268      1.54633679803551     -1.79309754116642
  H   -1.97356539986250      1.68043225770705     -0.78613099922004
  H   -0.42960868657009      2.32822159478164     -0.20007451181320
  C   1.43698952298884     -0.04542378449941     -1.49443192763678
  N   1.86824637491040      0.01611094279242     -2.58454074751955
  C   1.25175178201088     -1.51551591991300      0.45754144800506
  H   0.66591371722048     -2.28751966036802     -0.04224448968600
  H   1.04187807274750     -1.54449590080886      1.52714610554373
  H   2.31054529551923     -1.73678795682366      0.31491667230042
