18
Coordinates from ORCA-job run
  C   -0.31929708321745      0.70361504229750      0.13300048046992
  C   1.04214512405068     -0.01155136124530      0.04649047772587
  F   -0.01028506419139      2.07355060972261      0.16065847505813
  H   1.63638699649086      0.37143822867632      0.88488777891652
  C   -1.20220706055061      0.47451739505945     -1.07648107338225
  H   -2.10823624547320      1.07518464013859     -0.97509546496444
  H   -0.68888313629288      0.77981487103197     -1.98971827839409
  H   -1.49396333057372     -0.57368342361124     -1.16561529744106
  C   -1.03094565779207      0.39172194868804      1.43549096892453
  H   -1.87120061005969      1.07941974181211      1.54841831831485
  H   -1.41873618161879     -0.62792825499503      1.45004553676605
  H   -0.35925510185222      0.53075790135521      2.28613301858726
  C   1.73517414230028      0.38018890292399     -1.18437823151757
  N   2.28065630984394      0.65644819226616     -2.18656397854785
  C   0.96078003429486     -1.53870361637649      0.14028318459872
  H   1.95987046437728     -1.97086771489244      0.06462718567343
  H   0.35545608720258     -1.95212863271820     -0.66798273807499
  H   0.53254031306155     -1.84379447013326      1.09579963728695
