18
Coordinates from ORCA-job run
  C   -0.60789206128895      0.13037759176158     -0.13538231030305
  C   0.92064484171083     -0.07644973947001     -0.11656299432635
  F   -1.14379818802508     -0.89704301283996     -0.92608517412327
  H   1.35257976306068      0.73900080118583      0.47713145294576
  C   -1.21039122147107     -0.01208719716126      1.24976960331361
  H   -1.08037450526362     -1.02615722221495      1.62762131444878
  H   -2.28139117490768      0.19343721626002      1.20163811590438
  H   -0.75381194049876      0.69105936756682      1.95090041877630
  C   -0.99109484564254      1.44366198652467     -0.78879353004163
  H   -0.58541503768001      2.28954429322495     -0.22825167216781
  H   -0.61820640822435      1.48680011761315     -1.81297892909143
  H   -2.07877861073280      1.53316994381388     -0.81480995872580
  C   1.45485553030844      0.05136945202602     -1.47636761252616
  N   1.89430890615051      0.14076045475698     -2.56124429138059
  C   1.35028321576479     -1.42224623307437      0.47941021043622
  H   0.82356401594135     -2.23529929311877     -0.02102606365964
  H   2.42302090280583     -1.57023602122529      0.34659884018973
  H   1.13389681799242     -1.46066250562930      1.54743258033095
