18
Coordinates from ORCA-job run
  C   -0.56260796131929      0.09408457394924      0.41840922597900
  C   0.92961178348901     -0.25290790695154      0.23027298682242
  F   -1.04805507702168     -0.86985054549936      1.31901467013164
  H   1.37979206281560     -0.19435671213958      1.22870351194413
  C   -0.73740167147523      1.44577059589196      1.08106135786523
  H   -1.79131768162703      1.59576941214918      1.32349940055480
  H   -0.41061227880947      2.25258774167613      0.42250503915290
  H   -0.16174723327938      1.49153965701971      2.00852883591610
  C   -1.36879799825647     -0.03167494648156     -0.85767665250631
  H   -2.40728456986957      0.24110001322139     -0.65988571649139
  H   -0.97671335993159      0.62975103765408     -1.63351953750376
  H   -1.35415018498264     -1.05844025401470     -1.22484824189354
  C   1.57013276159475      0.76017790024583     -0.60872829721850
  N   2.06464339939341      1.56482455720648     -1.30670794923606
  C   1.17056193012720     -1.65634701758739     -0.33472899657053
  H   0.61240228564592     -2.38421180482517      0.25457638030416
  H   2.23226678065483     -1.90378201721387     -0.28281715713224
  H   0.85927701285165     -1.72503428430084     -1.37765886011807
