18
Coordinates from ORCA-job run
  C   -0.56756889933469      0.08726105532019      0.41279267404022
  C   0.93031370466473     -0.24204815054564      0.23806763253994
  F   -1.05105585951507     -0.88484003199074      1.30559276289949
  H   1.37236580889127     -0.17649282858070      1.23971351949620
  C   -0.76433641493433      1.43453526033582      1.07820763313668
  H   -0.43465179732670      2.24730020003124      0.42845101435057
  H   -0.20306688916066      1.48050214142383      2.01444815403469
  H   -1.82300466188645      1.57444603999611      1.30553259122084
  C   -1.35935391776251     -0.04365993560976     -0.87169725871333
  H   -0.97209682585630      0.63062153214469     -1.63869508186141
  H   -1.32300341010749     -1.06696612906163     -1.24659033786816
  H   -2.40428626319294      0.20900589733951     -0.68149627181719
  C   1.56528039811796      0.77766394759420     -0.59719408228945
  N   2.05521505584741      1.58632836544004     -1.29386082785169
  C   1.19254902674152     -1.64313027828734     -0.32353881963515
  H   0.63190287990899     -2.37615130909605      0.25680037101238
  H   0.89832000934483     -1.71430893131028     -1.37122076502249
  H   2.25547805556044     -1.88106684514350     -0.25531290767214
