14
Coordinates from ORCA-job run
  C   -0.77306406832891     -0.45383131851225     -0.31316095905094
  C   0.66658085865234     -0.17488166949579     -0.72708564782316
  Br  -1.79975717292296     -1.17229616227212     -1.79472126816959
  H   1.10558741631693     -1.12927312229379     -1.02954197101570
  H   0.62868982762012      0.47142115219287     -1.60662453734314
  N   -1.40881097280913      0.88731270551848      0.08909608062240
  O   -1.81377824442727      0.98920760024396      1.24013552311714
  O   -1.40094325675578      1.75395486304188     -0.77115694771012
  C   -0.86126453580811     -1.37589927289389      0.80941523602807
  N   -0.87886995605992     -2.16974869419240      1.67648022316786
  C   1.47161394884710      0.46888830086374      0.39812681979552
  H   2.50619314165975      0.59770489993165      0.07493966727771
  H   1.47509868295850     -0.14962262029124      1.29804408362967
  H   1.08272433105732      1.45606333815889      0.65605369747429
