14
Coordinates from ORCA-job run
  C   -0.71364902714775     -0.53326777676496     -0.05676844617063
  C   0.77374326126548     -0.38196780328582      0.27705579961194
  Br  -0.99500560203373     -1.23935710763569     -1.83310686619150
  H   1.23106880936285     -1.36451173787130      0.13563970982574
  H   0.82683673398790     -0.14111675387509      1.34312211809908
  N   -1.33380802997849      0.87535220920932      0.06937037007380
  O   -1.41630184045471      1.26400515033123      1.22841788623498
  O   -1.59943452428039      1.49963097407469     -0.94239335660659
  C   -1.39130215718215     -1.39820561813267      0.89870280773438
  N   -1.89572608731442     -2.12269582054773      1.67506017375627
  C   1.48406239135973      0.68343351022616     -0.54759928328513
  H   2.55024256904888      0.66632644673166     -0.31430763090760
  H   1.11228736846442      1.68342943622124     -0.31620197338677
  H   1.36798613490239      0.50994489131895     -1.61799130878796
