14
Coordinates from ORCA-job run
  C   -0.80166272331539     -0.41188517631184     -0.30116830688196
  C   0.64629799547600     -0.21723153060753     -0.73349570247211
  Br  -1.88433692898167     -1.08381387291100     -1.76519771895290
  H   1.02725575845748     -1.19685503090583     -1.03389907617672
  H   0.63447843329980      0.42427463351286     -1.61722358297134
  N   -1.36052749010944      0.96464951126337      0.09626102450229
  O   -1.76719752056142      1.09115134123676      1.24405125014558
  O   -1.29940332565670      1.82704860630347     -0.76612120888467
  C   -0.92632045757540     -1.31917426074871      0.82971337240991
  N   -0.95465069468397     -2.09272433958093      1.71464245993311
  C   1.49993387163530      0.38724310990594      0.37762381255494
  H   1.48483145465316     -0.22834886440921      1.27935016241489
  H   2.53484039327246      0.46173691483498      0.03877726397182
  H   1.16646123408978      1.39392895841767      0.63768625040717
