14
Coordinates from ORCA-job run
  C   -0.75675624313894     -0.46862781096514     -0.07123266299101
  C   0.75180362631179     -0.46622984149284      0.19549488098758
  Br  -1.17462402443163     -0.96241218416840     -1.89188464701471
  H   1.12107544307053     -1.46075471989286     -0.06729134368695
  H   0.87292422948715     -0.34132137673872      1.27581444347819
  N   -1.25427465487898      0.96194456426845      0.22869396096903
  O   -1.51563748526856      1.70638435390512     -0.69948561373193
  O   -1.24951163972328      1.23328796249022      1.42358397278201
  C   -1.45793428077413     -1.37448096948724      0.82778735019185
  N   -1.98387623121169     -2.13580069185944      1.55305164332835
  C   1.50790799539042      0.62141147254718     -0.55619030274109
  H   1.22646020168285      1.61776635657231     -0.21008034484237
  H   1.33318587725051      0.56602055168724     -1.63119010974055
  H   2.57825718623397      0.50181233313411     -0.37907122698840
