14
Coordinates from ORCA-job run
  C   -0.71996947490595     -0.26728816725485     -0.03455646403185
  C   0.51395569153717      0.57764438121375     -0.32153257266558
  Br  -0.97019379549475     -1.65708936276736     -1.37524346987070
  H   0.47750964661092      1.42248985728838      0.37666898060649
  H   0.40323452732417      0.98087017709747     -1.32933312523736
  N   -1.97225289396848      0.62531484350053     -0.11138344599200
  O   -2.81396503410543      0.48148400696174      0.76476513045844
  O   -2.01310579739601      1.39853438417171     -1.05665006994655
  C   -0.67031841387239     -0.88874532280904      1.28005505161196
  N   -0.53912363133804     -1.38238848867475      2.33922616428000
  C   1.82286108685281     -0.18487751051773     -0.16075858590086
  H   1.88242530094244     -1.02337286863111     -0.85558052642139
  H   2.65871860398451      0.48520909539069     -0.36979193945330
  H   1.94322418382901     -0.56578502496943      0.85511487256270
