13

C	-0.18192	0.089628	0.026337
C	-0.657435	0.169486	-1.432092
Cl	1.441695	-0.6409	0.167899
H	-1.637884	0.666786	-1.368587
H	-0.902982	-0.55431	0.541778
C	-0.170675	1.410259	0.646908
N	-0.157999	2.47912	1.133553
N	-0.742286	-1.174143	-1.985102
H	-1.545622	-1.596625	-1.511418
H	-0.98929	-1.098192	-2.966112
C	0.246461	1.002244	-2.234668
N	0.942141	1.668402	-2.906051
Br	-3.407736	-1.207901	0.092821
