15
Coordinates from ORCA-job run
  C   -0.47005851046378     -0.40833695399569     -0.33694731683140
  C   0.59763171274976      0.54592628940488      0.23565800698853
  Br  -0.32533198296899     -0.63948180512987     -2.23373578186809
  H   0.36128266295294      0.71089191157481      1.29009480622667
  N   -0.39922658169650     -1.64991312258352      0.31313998119886
  H   -1.04378791509167     -2.32807730208828     -0.07100179415230
  H   -0.51075774680336     -1.56270476976529      1.31638602861745
  N   -1.81717763553896      0.36762334583952     -0.01732653527437
  O   -2.06077498104980      0.39090238434774      1.18712190360380
  O   -2.47997945248830      0.86338407823260     -0.91130405875109
  C   0.66447532440128      1.81134033846288     -0.47537619448302
  N   0.70606848226406      2.85504334808076     -1.01261806742375
  N   1.94294261527691     -0.14653947410157      0.23327095113912
  O   2.59927598261097     -0.09790889635778     -0.79743974962410
  O   2.23441802584546     -0.71314937192120      1.28007782063370
