15
Coordinates from ORCA-job run
  C   -0.48373716475564     -0.40119994233208     -0.32605583912246
  C   0.61079335819752      0.53681519651895      0.22281821099559
  Br  -0.39116805617348     -0.62453078756927     -2.22695114278203
  H   0.40441801793735      0.69767163220834      1.28414404697683
  N   -0.41136600757868     -1.64694420347020      0.31625689758862
  H   -1.07203113572246     -2.31570998988648     -0.05625740435636
  H   -0.49990900980868     -1.56260323167733      1.32211427787568
  N   -1.81153495883028      0.38993666690499      0.03278497184821
  O   -2.02237907746137      0.41072302225318      1.24346949385310
  O   -2.49162362871126      0.89817278241883     -0.84090521357163
  C   0.67265055334480      1.80588013504488     -0.48220660521308
  N   0.71042287218264      2.85212453786675     -1.01481220830935
  N   1.94721972139793     -0.17025615698758      0.17996412483630
  O   2.57584918724067     -0.12274558086360     -0.86799530023875
  O   2.26139532874096     -0.74533408042938      1.21563168961932
