13

C	-0.550936	0.00427	-1.429237
C	0.0	0.0	0.0
Br	0.182714	1.452418	-2.461365
H	1.095265	0.0	0.0
H	-1.636973	0.095971	-1.462105
N	-0.241045	-1.295659	-2.136412
O	-1.048265	-1.627559	-3.004655
O	0.778146	-1.886477	-1.811619
C	-0.497603	-1.188226	0.698662
N	-0.914552	-2.149492	1.230611
C	-0.475611	1.200895	0.687396
N	-0.87064	2.166762	1.226936
Cl	3.164504	0.0	0.0
