13

C	-0.343088	0.012183	-1.485383
C	0.0	0.0	0.0
Br	0.049454	-1.668571	-2.332663
H	1.097583	0.0	0.0
H	0.242393	0.780666	-1.988008
N	-1.790205	0.339106	-1.75086
O	-2.01516	1.034251	-2.738426
O	-2.624481	-0.114518	-0.975589
C	-0.50681	-1.149756	0.739818
N	-0.872876	-2.081212	1.353995
C	-0.44772	1.256385	0.59979
N	-0.798662	2.284953	1.045884
Cl	3.117238	0.0	0.0
