13

C	-0.556467	0.02736	-1.426704
C	0.0	0.0	0.0
Br	0.255745	1.427761	-2.46728
H	1.095412	0.0	0.0
H	-1.633798	0.18611	-1.452707
N	-0.334745	-1.286882	-2.134117
O	0.59827	-1.985225	-1.765471
O	-1.127301	-1.532479	-3.040871
C	-0.517114	-1.169896	0.71145
N	-0.945746	-2.115181	1.261623
C	-0.453978	1.214066	0.682767
N	-0.839812	2.184565	1.220267
Cl	3.144294	0.0	0.0
