13

C	-0.358827	-0.018828	-1.479688
C	0.0	0.0	0.0
Br	0.086471	-1.696638	-2.307791
H	1.097888	0.0	0.0
H	0.192313	0.761994	-2.001983
N	-1.821349	0.24957	-1.73918
O	-2.08827	0.792752	-2.807884
O	-2.625093	-0.100616	-0.881029
C	-0.494339	-1.141818	0.760928
N	-0.846716	-2.067273	1.391804
C	-0.446814	1.263455	0.584666
N	-0.781965	2.297935	1.028763
Cl	3.126466	0.0	0.0
