13

C	-0.359024	-0.103592	-1.476259
C	0.0	0.0	0.0
Br	0.112839	-1.816783	-2.213291
H	1.094501	0.0	0.0
H	0.179511	0.656078	-2.040305
N	-1.825358	0.130375	-1.749762
O	-2.622582	-0.157311	-0.865114
O	-2.10175	0.585285	-2.856164
C	-0.489152	-1.103153	0.820425
N	-0.834142	-1.994412	1.502354
C	-0.450824	1.292033	0.514909
N	-0.784524	2.352132	0.895041
Cl	3.125222	0.0	0.0
