14

C	-0.552158	-0.001672	-1.412526
C	0.0	0.0	0.0
Cl	0.173255	1.295665	-2.38529
H	1.092761	0.0	0.0
H	-0.350814	-0.90809	0.498031
N	-0.253665	-1.328875	-2.128947
O	-0.711033	-1.451784	-3.259793
O	0.398068	-2.16103	-1.515023
C	-2.007303	0.146781	-1.441691
N	-3.178264	0.239011	-1.39971
N	-0.454836	1.227816	0.652507
H	-0.990849	1.012289	1.480913
H	0.381269	1.724213	0.946982
H	2.822684	0.0	0.0
