14

C	-0.579801	-0.01981	-1.397081
C	0.0	0.0	0.0
Cl	0.070601	1.320845	-2.374769
H	1.091498	0.0	0.0
H	-0.316165	0.946717	0.452534
N	-0.215486	-1.318402	-2.128815
O	-0.889798	-1.576365	-3.124642
O	0.72446	-1.962805	-1.694209
C	-2.040367	0.064516	-1.393981
N	-3.205741	0.198491	-1.317873
N	-0.521713	-1.167722	0.7073
H	-1.028117	-0.890868	1.536539
H	0.27805	-1.723261	0.99232
H	2.848589	0.0	0.0
