14

C	-0.592831	-0.002527	-1.396025
C	0.0	0.0	0.0
Cl	-2.382419	-0.187161	-1.349447
H	1.091256	0.0	0.0
H	-0.316205	-0.941053	0.468437
N	-0.262093	1.333198	-2.083535
O	-1.104302	2.21355	-2.09334
O	0.877289	1.394472	-2.524323
C	-0.0615	-1.076194	-2.230831
N	0.355899	-1.957657	-2.885242
N	-0.405711	1.199182	0.708329
H	-1.142407	1.022081	1.377301
H	0.415414	1.544536	1.196899
H	2.780785	0.0	0.0
