14

C	-0.598723	-0.044045	-1.387594
C	0.0	0.0	0.0
Cl	0.045831	1.26248	-2.414909
H	1.091633	0.0	0.0
H	-0.316537	0.952641	0.438634
N	-0.264751	-1.366724	-2.092193
O	-1.001056	-1.67903	-3.02411
O	0.715512	-1.976806	-1.700409
C	-2.058539	0.057184	-1.356075
N	-3.220037	0.210064	-1.253991
N	-0.510487	-1.157331	0.731805
H	0.294582	-1.698556	1.027539
H	-1.020206	-0.870409	1.554653
H	2.845103	0.0	0.0
