14

C	-0.517734	0.034894	-1.429966
C	0.0	0.0	0.0
Cl	0.160869	-1.265559	-2.400901
H	1.097163	0.0	0.0
H	-0.352083	0.912961	0.4878
N	-2.056123	-0.112306	-1.375015
O	-2.621641	0.825379	-0.81817
O	-2.589221	-1.119014	-1.808837
C	-0.259834	1.317855	-2.079601
N	-0.058054	2.350106	-2.603131
N	-0.480717	-1.212372	0.650757
H	0.339174	-1.746733	0.923379
H	-0.990598	-0.980579	1.493322
H	2.804603	0.0	0.0
