14

C	-0.51449	0.01972	-1.432297
C	0.0	0.0	0.0
Cl	0.168654	-1.285398	-2.393096
H	1.097132	0.0	0.0
H	-0.352179	0.918865	0.479029
N	-2.052973	-0.130826	-1.377005
O	-2.579503	-1.151077	-1.786222
O	-2.624853	0.816784	-0.842578
C	-0.261874	1.299167	-2.092649
N	-0.069406	2.327543	-2.628521
N	-0.476653	-1.208205	0.661503
H	-1.012257	-0.973461	1.486517
H	0.344784	-1.724011	0.959849
H	2.805595	0.0	0.0
