14

C	-0.509881	0.023239	-1.41788
C	0.0	0.0	0.0
Cl	-0.121617	-1.495484	-2.267637
H	1.093095	0.0	0.0
H	-0.356431	-0.917078	0.475179
N	-2.051869	0.114202	-1.427137
O	-2.583752	0.766813	-2.31759
O	-2.634581	-0.510517	-0.550129
C	-0.004092	1.157927	-2.184235
N	0.408278	2.066525	-2.8041
N	-0.465146	1.226782	0.637342
H	-1.141404	1.031446	1.362123
H	0.341602	1.680815	1.052191
H	2.821003	0.0	0.0
