17

C	-0.565531	-0.002013	-1.408512
C	0.0	0.0	0.0
F	0.118531	-0.888549	-2.184058
H	1.08615	0.0	0.0
N	-1.933312	-0.302126	-1.498384
H	-2.240706	-0.187361	-2.456552
H	-2.450319	0.323012	-0.893701
N	-0.210134	1.355159	-2.093691
O	0.683368	2.041531	-1.625308
O	-0.842723	1.588204	-3.123964
N	-0.471248	-1.242987	0.6698
O	-1.303307	-1.152817	1.574205
O	0.00788	-2.286989	0.243434
N	-0.497787	1.140578	0.7943
O	-1.412058	1.839547	0.33663
O	0.041271	1.323808	1.87704
F	2.440612	0.0	0.0
