17

C	-0.138903	0.070986	-1.517917
C	0.0	0.0	0.0
F	-0.047892	1.421068	-1.846778
H	1.090067	0.0	0.0
N	0.85617	-0.702029	-2.09913
H	1.723425	-0.574282	-1.542466
H	0.966288	-0.46349	-3.076629
N	-1.489349	-0.341288	-2.10232
O	-1.699485	-0.000156	-3.263602
O	-2.231227	-1.022751	-1.405037
N	-0.480725	-1.248271	0.642019
O	-1.246591	-1.139325	1.597533
O	-0.024192	-2.295886	0.207374
N	-0.644406	1.14326	0.674439
O	-1.731749	1.522778	0.239332
O	-0.061307	1.610787	1.648797
F	2.541689	0.0	0.0
