17

C	-0.616967	-0.079886	-1.400962
C	0.0	0.0	0.0
F	-0.171693	-1.290258	-1.884072
H	1.088399	0.0	0.0
N	-2.009674	0.025173	-1.572001
H	-2.262187	0.970446	-1.814812
H	-2.492188	-0.304738	-0.748602
N	0.040535	0.966513	-2.334606
O	1.232585	0.812744	-2.543461
O	-0.682657	1.827304	-2.832498
N	-0.46562	-1.208615	0.756219
O	-1.686396	-1.340587	0.914516
O	0.379874	-1.99028	1.170516
N	-0.467031	1.166924	0.749461
O	-0.512285	1.089859	1.974924
O	-0.698236	2.185115	0.092489
F	2.444313	0.0	0.0
