17

C	-0.682789	0.03736	-1.354617
C	0.0	0.0	0.0
F	-2.015591	-0.323039	-1.206771
H	1.087245	0.0	0.0
N	-0.518434	1.243721	-2.053586
H	-0.916727	1.997906	-1.51239
H	-0.969345	1.179677	-2.957442
N	-0.085934	-1.047649	-2.277918
O	-0.872868	-1.854263	-2.765725
O	1.108414	-0.95504	-2.503661
N	-0.430672	-1.246585	0.693302
O	-0.159651	-2.279256	0.084761
O	-0.995231	-1.190599	1.781722
N	-0.390932	1.145406	0.863741
O	0.216313	1.239505	1.922992
O	-1.263334	1.940514	0.487779
F	2.431375	0.0	0.0
