16

C	-0.529764	0.046529	-1.402595
C	0.0	0.0	0.0
Cl	-2.276228	0.321244	-1.470692
H	1.101872	0.0	0.0
H	-0.323844	0.91987	0.491153
N	0.080139	1.171409	-2.236868
O	0.470441	2.149604	-1.618941
O	0.045983	1.025428	-3.451615
N	-0.177422	-1.251862	-2.123593
O	1.004564	-1.351233	-2.416275
O	-1.054614	-2.09293	-2.269038
C	-0.480205	-1.233551	0.758072
H	-0.049472	-2.142276	0.33305
H	-1.568217	-1.332075	0.769909
H	-0.122239	-1.163466	1.786582
Br	3.556078	0.0	0.0
