16

C	-0.466485	0.015229	-1.426724
C	0.0	0.0	0.0
Cl	0.299282	-1.193539	-2.414804
H	1.091165	0.0	0.0
H	-0.348746	0.921033	0.470586
N	-1.994185	-0.150313	-1.452022
O	-2.477333	-1.215431	-1.801811
O	-2.603943	0.822448	-1.0178
N	-0.274416	1.37774	-2.107407
O	-0.722258	1.46077	-3.245354
O	0.275573	2.260416	-1.467583
C	-0.501921	-1.226594	0.755498
H	-0.222403	-2.148836	0.243763
H	-0.027472	-1.240679	1.73794
H	-1.586783	-1.218129	0.89711
Br	3.548051	0.0	0.0
