14
Coordinates from ORCA-job run
  C   -0.52461827591139      0.32884330817977     -0.36581161422878
  C   0.56736415756850     -0.73167466811112     -0.45285729641727
  F   -1.13571360590560      0.35611392135195     -1.63432802248822
  H   0.10327814866491     -1.66272604421960     -0.78731193818646
  H   1.29276878763984     -0.42516143627669     -1.22295338516449
  N   -1.57586316373676      0.05336252597507      0.57413375029414
  H   -2.13924773644371     -0.70361915286029      0.20604615823091
  H   -1.13579127924783     -0.27096017452364      1.42861570844147
  N   0.05370104557926      1.58137047667587     -0.02784248232136
  H   -0.68662394330380      2.25053790396641      0.14088850211226
  H   0.65469137008318      1.91083231990996     -0.77291531355065
  N   1.12715397818836     -0.92434505689380      0.87944762218592
  H   1.79220676978435     -1.68639257801794      0.87916894906531
  H   1.60869374704069     -0.07818134515595      1.15671936202720
