14
Coordinates from ORCA-job run
  C   -0.61067280391774      0.21357194107472     -0.31487953999774
  C   0.66621419740051     -0.59587297453856     -0.51237255597874
  F   -1.32940404403570      0.09710510279040     -1.52052535123444
  H   1.16318266634528     -0.22271279253202     -1.41117706386400
  H   0.38995062071757     -1.64623356399583     -0.69578155612885
  N   -1.33774385388788     -0.30540284874240      0.78918269864231
  H   -1.67002715885556     -1.24106818021428      0.59189743253506
  H   -2.12007921099408      0.30596360214999      0.98514145009461
  N   -0.41941238867585      1.62182431948457     -0.10238324040814
  H   0.33732154436199      1.72300893869876      0.56565193271169
  H   -0.12067459204730      2.03581818187959     -0.97723994118728
  N   1.53076388488812     -0.37795362942418      0.64117294702765
  H   1.09229377013554     -0.78259119369999      1.45892798244888
  H   2.42728736856512     -0.82545690293078      0.50338480533899
