14
Coordinates from ORCA-job run
  C   -0.38132279652085      0.38273438604673     -0.17349032204438
  C   0.98328970987705     -0.15362596291911      0.21529217615786
  F   -0.66239695598036     -0.24239006986552     -1.45336434942557
  H   1.71125252775499      0.21414746786553     -0.52134631217346
  H   1.23297244277541      0.27537934486103      1.18638291629732
  N   -1.35745486999236      0.00054057800500      0.77282146046558
  H   -2.28457512348412      0.08208194151496      0.37357627599558
  H   -1.18411049169282     -0.96718034492878      1.02026694306482
  N   -0.34968414066011      1.79284842614631     -0.35056109397764
  H   0.07156149497054      2.01760317665663     -1.24233867892291
  H   -1.28330496753913      2.18071865109268     -0.31746840262110
  N   0.91392721555120     -1.60699816034118      0.32766199950241
  H   0.83792573617630     -2.00831185151703     -0.59802850681219
  H   1.75292021876427     -1.96754758261723      0.76159589449369
