14
Coordinates from ORCA-job run
  C   -0.56409641101254      0.18744091148051     -0.06003536106321
  C   0.56555742000573     -0.78791036459658      0.24154924201848
  F   -0.87319427846464     -0.01090261727248     -1.45559111521751
  H   0.67127409114458     -0.83431424821053      1.32692965694105
  H   0.24720173542543     -1.77286960886450     -0.11425896705112
  N   -1.71705556072964     -0.11639020724900      0.71815010703710
  H   -2.10373774352366     -0.99871883455694      0.40629067204229
  H   -2.42670862942148      0.59507616780587      0.59084928946501
  N   -0.13185638022814      1.51633855312443      0.14800694420160
  H   -0.83305544522072      2.17060826539279     -0.17818441021448
  H   0.71262821084585      1.63735350621656     -0.39997784798547
  N   1.79850129016396     -0.35281935109762     -0.41278824600388
  H   2.52717523543645     -0.19679350317174      0.26781750407641
  H   2.12736646557883     -1.03609866900077     -1.07775746824628
