14
Coordinates from ORCA-job run
  C   -0.36457854398115      0.41194448029110     -0.13969035535229
  C   0.78940373647544     -0.55514294047539     -0.32426183382308
  F   0.13718615116697      1.39454690309634      0.80399068477539
  H   0.45370084278824     -1.32849050091525     -1.01606717185607
  H   1.61599895711805     -0.00568212862447     -0.79599712524991
  N   -0.68542519946673      1.07048222094576     -1.35806461948895
  H   -1.61019873595617      1.47798563954649     -1.31358630336120
  H   -0.00990291103851      1.80076579240673     -1.54147541959301
  N   -1.48835039061473     -0.24748371732492      0.40501982492066
  H   -1.15642349685957     -0.87152863580094      1.13177945631063
  H   -2.12785695488412      0.42560887539452      0.80948169079843
  N   1.11836016717828     -1.16119264504412      0.96215056364924
  H   1.75161098500642     -1.93880404747722      0.83319735467057
  H   1.57647539306758     -0.47300929601862      1.54552325359960
