14
Coordinates from ORCA-job run
  C   -0.52889797733867      0.12287117103775     -0.36614240471239
  C   0.50386628622981     -0.72364188911686      0.37257018012149
  F   -0.30129361134808     -0.13170612329364     -1.72298257065455
  H   0.27110959261636     -1.77939281862362      0.18125620395625
  H   0.40579253536203     -0.53638287427410      1.44684114578921
  N   -1.85012655884190     -0.31571888247805     -0.05703559209668
  H   -1.96599638170264     -0.49030851651792      0.93147076428331
  H   -2.51688715324153      0.38187197349713     -0.36357554777712
  N   -0.36877457448919      1.54722870556753     -0.22910233910134
  H   0.61106014287247      1.77203064798244     -0.36989745318979
  H   -0.61861670340628      1.81811617668052      0.71402639609806
  N   1.83614419441743     -0.30619451691827     -0.05259207225924
  H   1.98058429698595     -0.61206228194473     -1.00663738169868
  H   2.54103591188425     -0.74771077159818      0.52280067124148
