14
Coordinates from ORCA-job run
  C   -0.52938799720997      0.13976284163546     -0.45010317819580
  C   0.70322695604520     -0.74540823433998     -0.38042991740724
  F   -1.01543064144179      0.05609073713858     -1.76860734880592
  H   1.42835488241341     -0.37325892701940     -1.11931378059722
  H   0.39844594430051     -1.74953893130691     -0.67910611189296
  N   -1.53414497855267     -0.37366184783869      0.41552124186064
  H   -2.27992009893980      0.29356121320929      0.56683494334405
  H   -1.09336882390568     -0.61255450668369      1.29548767634472
  N   -0.15121539075057      1.50111934124681     -0.17472132285363
  H   -0.97785809158513      2.08211955858393     -0.09398801501753
  H   0.40257891321141      1.85973238992155     -0.94537738108051
  N   1.18221182512281     -0.77169958944007      0.99665564130615
  H   1.54238535704615      0.14344615463039      1.23614084994665
  H   1.92512214424610     -1.44971019973727      1.10200670304862
