14
Coordinates from ORCA-job run
  C   -0.48746739581684      0.07930612662481     -0.31605041299044
  C   0.55723641980019     -0.89689424484993      0.20182945524800
  F   -0.61804268363185     -0.05587671768937     -1.68147470173422
  H   0.20309773973163     -1.90296955514558     -0.03135696733120
  H   0.57630221027246     -0.79386045245446      1.30239804180883
  N   -1.77257207521660     -0.26130721311118      0.23990121540409
  H   -1.73156581894785     -0.28345579594081      1.25041852008997
  H   -2.46616079265253      0.41963899541118     -0.04625232835744
  N   -0.00948859611803      1.44491854931943     -0.13235269415592
  H   -0.21830060665920      1.75949908824811      0.80695497489797
  H   -0.48659837976417      2.05083602734168     -0.78954800897199
  N   1.83158557663061     -0.65637916737130     -0.44984105945160
  H   2.07001976220545      0.32025866514163     -0.33193307346915
  H   2.55195464016673     -1.22471430552422     -0.02469296098692
