14
Coordinates from ORCA-job run
  C   -0.40833381988326      0.19564513715098     -0.37262047826978
  C   1.04490865827124     -0.19697747121730     -0.15700833079655
  F   -0.91602723712186     -0.47183644675469     -1.46643392580391
  H   1.42071012089297      0.41095532442851      0.68645131688313
  H   1.59593259358646      0.09979317373640     -1.05159030331801
  N   -1.21176470154127     -0.28205121817255      0.74693773513506
  H   -1.17148357986701      0.38364699166847      1.50857160373498
  H   -2.17512315044854     -0.37025524270754      0.44555020375966
  N   -0.47822309570645      1.59787175391850     -0.69738797782394
  H   -1.44569933698402      1.88711864641778     -0.78082829676469
  H   -0.02969570040229      2.15444378444203      0.01841153691120
  N   1.15084633143404     -1.63134954765556      0.03751131239618
  H   0.52490921568031     -1.89795991497786      0.78697587528835
  H   2.09704370208969     -1.87804497027718      0.29545972866831
