14
Coordinates from ORCA-job run
  C   -0.52942784404613      0.23618727282040     -0.24504889207354
  C   0.48449786129279     -0.73229425710105      0.35092244586116
  F   -0.36886129590757      0.08114129504822     -1.65260810272158
  H   0.39153333842268     -0.68999255887754      1.43847072427015
  H   0.20836129266060     -1.74384120964197      0.01855932664557
  N   -1.91113130493397     -0.05454965711457     -0.00253985018982
  H   -2.12231000476692      0.09636900134474      0.97407355138297
  H   -2.12941509445257     -1.00778461189030     -0.26171385369381
  N   -0.25988231257156      1.54962045851128      0.18508161540440
  H   0.72887513152800      1.74016582273836      0.08440124066384
  H   -0.81850405704961      2.20842074789859     -0.34086923007919
  N   1.83312438081657     -0.32166364488207     -0.02903941819866
  H   2.52375379521076     -0.84532353227936      0.49227040059909
  H   1.96838611379693     -0.51645512657474     -1.01295995787058
