14
Coordinates from ORCA-job run
  C   -0.34680323000301      0.51007756866763     -0.06268819069557
  C   0.71290973313591     -0.55804561504020     -0.30720752024945
  F   0.32059451848096      1.47947882989306      0.73523633390360
  H   1.52821480158475     -0.11732866665884     -0.90157737508584
  H   0.25437632025522     -1.35396364886865     -0.89778858963347
  N   -0.80852410019231      1.06495330927242     -1.28104495212664
  H   -0.04166526317177      1.46175928478229     -1.80769055527175
  H   -1.48187614631023      1.79270456941432     -1.07392157378036
  N   -1.47780263272331      0.09270470604773      0.70522459767670
  H   -2.06421176657057     -0.48995450433164      0.12149503704825
  H   -1.13920780045502     -0.46213367159877      1.48324884765036
  N   1.13770642460905     -1.09654937547935      0.98006236587528
  H   1.70866942831220     -1.92019752371035      0.84625896621002
  H   1.69561971304813     -0.40250526238964      1.46039260847888
