14
Coordinates from ORCA-job run
  C   -0.38994266332677      0.39187975252483     -0.12841610678728
  C   0.99850888247676     -0.19450934351304      0.04241243999887
  F   -0.93170706383402     -0.29734251818322     -1.28592649801465
  H   1.44323625258657      0.28124483673615      0.91722129080561
  H   1.59136852286337      0.08372078261515     -0.84013328991246
  N   -1.18872420541150      0.12695074455194      1.00574076153210
  H   -1.01288144974286     -0.83054838365323      1.28879845283143
  H   -2.16941760194103      0.23195578923036      0.77582595605667
  N   -0.33056664774666      1.78365585804991     -0.41188287669323
  H   -1.22295249959323      2.22523653782489     -0.23351661972721
  H   -0.07696393915004      1.92640219797033     -1.38063183781711
  N   0.88831273635924     -1.63142412273089      0.27239093107788
  H   1.77755561093301     -2.00977041415303      0.56969294948412
  H   0.62317406552718     -2.08645171727015     -0.59157555283475
