14
Coordinates from ORCA-job run
  C   -0.53377661721355      0.25347430105739     -0.41055963130752
  C   0.63299713446627     -0.72694439956573     -0.36460824953288
  F   -1.10100975783041      0.11594305463464     -1.69201790691126
  H   1.36147556703994     -0.44186807763583     -1.13998019868221
  H   0.24762389120721     -1.71689397310442     -0.62071350617106
  N   -1.59471015810978     -0.00949218178817      0.52227604183842
  H   -1.16238289055054     -0.22009866938066      1.41542437163588
  H   -2.09077935501563     -0.83631510616263      0.21216987934635
  N   -0.05789375139946      1.57142774162640     -0.17879492686589
  H   0.54508464415486      1.87272932907729     -0.93407330938150
  H   -0.84874913836064      2.19748333464813     -0.09613265446702
  N   1.15829014464463     -0.75181104096186      0.99526041065370
  H   1.56726883337673      0.15045579215930      1.20359375549426
  H   1.87656145359036     -1.45809010460386      1.08615592435072
