14
Coordinates from ORCA-job run
  C   -0.60459246651015      0.20897285941286     -0.32940948467517
  C   0.68151713766624     -0.59278362125545     -0.49615824689067
  F   -1.29521448769108      0.08580786580131     -1.55034174566614
  H   0.41688080552654     -1.64540383734137     -0.68353709786921
  H   1.19597657506292     -0.21785540349704     -1.38433779938076
  N   -1.35303252733067     -0.31222724289580      0.75933487120255
  H   -2.14407997535923      0.29394069276377      0.93550478444591
  H   -1.67400064425116     -1.25074874652897      0.55692819074962
  N   -0.42670579530382      1.61879452476201     -0.11569529286818
  H   0.31387041947738      1.72645839531651      0.56909081621530
  H   -0.11188850704028      2.03313960395440     -0.98465731490083
  N   1.51838052450911     -0.36697626031063      0.67621670575473
  H   2.41939614134139     -0.81183295852421      0.56098181593482
  H   1.06249279990282     -0.77028587165738      1.48507979794803
