14
Coordinates from ORCA-job run
  C   -0.46743472867333      0.27914920420400     -0.36420041332262
  C   0.93883380235017     -0.18610788752411      0.00312843759471
  F   -0.84276259531105     -0.52475865211492     -1.44632136117577
  H   1.60102553301273      0.04877431961854     -0.84054914101618
  H   1.27729953121653      0.37971429386634      0.87720734886003
  N   -1.47546875584930      0.04030587867483      0.63565680690261
  H   -1.36789242254655     -0.91032891074427      0.97499154494847
  H   -1.32336504978584      0.66898985664200      1.41469899719479
  N   -0.44646235391768      1.63220152895763     -0.81351389456445
  H   -1.39106579604916      1.99609652043070     -0.83246732433520
  H   0.13476687095180      2.21437641489885     -0.22684022528762
  N   0.88196306488969     -1.60059501603303      0.35816090806003
  H   1.76794891364242     -1.90009591453910      0.74316015667641
  H   0.71361398606958     -2.13772163633747     -0.48311184053521
