14
Coordinates from ORCA-job run
  C   -0.19916593760823      0.62410224970751      0.00999365685685
  C   0.64907889735033     -0.57475691581260     -0.40497757216623
  F   0.66604041351416      1.44137990864926      0.74592797739523
  H   0.01495128723183     -1.27880827571140     -0.95353981524457
  H   1.43313313252302     -0.21247359369965     -1.08281920824323
  N   -0.62297947114873      1.35907097245903     -1.13599015749278
  H   -1.35944759995399      2.00146627954139     -0.87141918764608
  H   -0.94642092464172      0.75034399269558     -1.87475848046342
  N   -1.28072188963357      0.32949485685934      0.91350752432220
  H   -0.92537800240072     -0.27285636887957      1.64926021481921
  H   -1.99947225688224     -0.17911075343744      0.41350302593712
  N   1.14186569731635     -1.23423598547795      0.80014084702623
  H   1.84101953814929     -0.64126888494784      1.22928012789568
  H   1.58549711618423     -2.11134748194567      0.56189104700379
