14
Coordinates from ORCA-job run
  C   -0.52940330267338      0.32141545795427     -0.26438925045637
  C   0.90879501368884     -0.16694794169255     -0.11309123653507
  F   -0.99973071218601     -0.24831007292653     -1.46578953086482
  H   1.40142361620908      0.46296424022177      0.63509594657393
  H   1.40355226597272      0.00626483282330     -1.07347267535359
  N   -1.29240544808343     -0.08234784615381      0.85364186939736
  H   -1.21514767528352     -1.08896189260878      0.93904428575544
  H   -2.25900470153990      0.17949469617194      0.70534077961355
  N   -0.68731851849926      1.74040853168252     -0.44077883697954
  H   -0.13472837026604      2.06049048659907     -1.22634466718876
  H   -0.38606034618397      2.21638816011874      0.39918463251998
  N   0.94821495210197     -1.58446679802901      0.24659019965042
  H   1.30005331180178     -1.70799171396881      1.18491364941778
  H   1.54075991494112     -2.10740014019212     -0.37994516555033
