14
Coordinates from ORCA-job run
  C   -0.56106003283562      0.23149640826838     -0.16653348145867
  C   0.53565890098217     -0.72874102349499      0.27731287177048
  F   -0.60113119402504      0.07874364651128     -1.58284735856732
  H   0.22330308555004     -1.74256638049972     -0.01313923337692
  H   0.59877861394823     -0.68666211999790      1.36704672368726
  N   -1.89175025205452     -0.07056207483563      0.26981592882422
  H   -1.96268191216988      0.08028703051166      1.26653722139950
  H   -2.13664210864788     -1.02612710219342      0.04515099352783
  N   -0.24386108592178      1.54727155106409      0.22286700422520
  H   0.71907370091071      1.74521371945734     -0.01736565569016
  H   -0.87644667238492      2.20059715999832     -0.21956350143692
  N   1.81265939510860     -0.30586565899452     -0.29076650336309
  H   2.57515069016454     -0.82304214617470      0.12657429403722
  H   1.80794887137536     -0.50004300962018     -1.28408930357864
