14
Coordinates from ORCA-job run
  C   -0.53651521344885      0.26514051083661     -0.39910994542595
  C   0.61254029919917     -0.73687239647192     -0.37935988007982
  F   -1.13026508538476      0.14398163432440     -1.67020918645179
  H   1.33091798215135     -0.46150355342569     -1.16760246052618
  H   0.20436118067986     -1.71852507558287     -0.63207463903040
  N   -1.58411488352895      0.01767491862734      0.55289410974839
  H   -2.10204440240274     -0.79780919845731      0.24849414474113
  H   -1.13845020958166     -0.20638243810148      1.43623067749192
  N   -0.03183582384698      1.57317232285789     -0.17121173863188
  H   -0.80970074403331      2.21253277578265     -0.06907672336924
  H   0.56000965794835      1.86749068410270     -0.93801578501766
  N   1.16314701504223     -0.77724626272062      0.96990029023445
  H   1.86812439310297     -1.49849262213449      1.04538698687714
  H   1.59382583410331      0.11583870036281      1.17375414943989
