14
Coordinates from ORCA-job run
  C   -0.53617315869352      0.12508868988893     -0.46880023635672
  C   0.66263940959792     -0.80565286783513     -0.42911494691404
  F   -1.06652334977589      0.06449236498806     -1.75460851513158
  H   1.30008370858023     -0.54247773825331     -1.28131837702954
  H   0.30707647818871     -1.83072095277377     -0.55193276956333
  N   -1.52014191971155     -0.33992674964464      0.45180124705365
  H   -1.05230141577749     -0.60908952619576      1.30892581087144
  H   -2.22000038090287      0.36631699515347      0.63906655395341
  N   -0.08345084946905      1.50491349243143     -0.30069257569325
  H   -0.50903070068774      2.08305664308005     -1.01377795617047
  H   -0.35815072252483      1.85105805413862      0.60814644632487
  N   1.30038375554809     -0.66179649201740      0.87741587219604
  H   1.95867761060106     -1.41379375406071      1.03247344531339
  H   1.81691153502692      0.20953184110017      0.88341600114614
