14
Coordinates from ORCA-job run
  C   -0.51992308429121      0.14502787571268     -0.48123474485774
  C   0.78165714168547     -0.63615692333632     -0.50666386137859
  F   -1.20090427815059     -0.14420839279796     -1.66057966874827
  H   0.52496003542098     -1.67789616563479     -0.73190134850275
  H   1.40548451294594     -0.24000712195388     -1.31051607114139
  N   -1.37011646692040     -0.36578411453589      0.59272086199038
  H   -2.30116587047353     -0.52698612296221      0.23075333358470
  H   -1.42310241564966      0.30916547386167      1.34298899255749
  N   -0.22785610129409      1.53999404711657     -0.45467421402603
  H   0.52738986580416      1.69474078131175      0.20232066058584
  H   -1.03861433036199      2.08661631135537     -0.19481913748652
  N   1.45104317112532     -0.43629401045118      0.77646282669445
  H   2.41184442275337     -0.74783333941636      0.72451901993862
  H   0.97830339740623     -1.00137829826945      1.47162335078981
