14
Coordinates from ORCA-job run
  C   -0.34986738202326      0.20753730983713     -0.29861489705323
  C   1.10225211633121     -0.18106235303613     -0.03189921968714
  F   -0.80952542037591     -0.54119892882238     -1.37657298253552
  H   1.44724750245341      0.36173355786488      0.85674134587727
  H   1.69807058382086      0.16160203264619     -0.88079265470996
  N   -1.18599301112563     -0.22953144727603      0.80779705965811
  H   -2.14984510185583     -0.27968945465883      0.49807461892617
  H   -1.12577617429494      0.43639581997502      1.56808171369181
  N   -0.42215424647573      1.58387609473386     -0.70135148585368
  H   0.12194495324203      2.16994337422736     -0.08214103795565
  H   -1.38065549591498      1.91047159465575     -0.71278614872004
  N   1.31836474618484     -1.60061987448054      0.17040315298167
  H   0.65702087720084     -1.91716156825670      0.87065708327980
  H   1.07991605283309     -2.08329615740959     -0.68759654789963
