14
Coordinates from ORCA-job run
  C   -0.57373092888103      0.23499029169369     -0.53249900426717
  C   0.68397378616347     -0.62629243535331     -0.46247584828306
  F   -1.16216926428982     -0.06066989948270     -1.75826273835052
  H   0.39109034067041     -1.66384305022639     -0.66661981673141
  H   1.34632414936313     -0.30016465813653     -1.26688905691112
  N   -1.59232014908673     -0.06816738900499      0.44827254947848
  H   -1.89291649180647     -1.03302440761142      0.37181553522970
  H   -1.22623605867686      0.09990466230389      1.37669478356353
  N   -0.20534733547474      1.60737293652150     -0.50248678351986
  H   0.52442814536072      1.73387635088903      0.18772513527491
  H   -1.01132214373901      2.16905964754267     -0.25820093726054
  N   1.34388131997100     -0.43047525659426      0.82943669232112
  H   1.02920823287625     -1.12264225189218      1.49626745387233
  H   2.34413639754966     -0.53992454064900      0.73622203558363
