14
Coordinates from ORCA-job run
  C   -0.56791614929256      0.23638737534803     -0.53735458739214
  C   0.67970736423172     -0.63809028455418     -0.45319073287833
  F   -1.15446400359723     -0.06559278889262     -1.76253130330959
  H   0.37743702681889     -1.67464488299595     -0.64885490836325
  H   1.34887941432458     -0.32603823666073     -1.25755720334637
  N   -1.59519493896909     -0.04522749498656      0.44142403986409
  H   -1.90606618581841     -1.00742331343211      0.37259488213553
  H   -1.23249964435447      0.12780617158775      1.37028408601674
  N   -0.18411292100709      1.60443696940627     -0.51951144122933
  H   0.54658050732023      1.72936384265111      0.16996498681201
  H   -0.98393351551359      2.17799336010509     -0.28293025883666
  N   1.33757448355417     -0.43545320042729      0.83885695186684
  H   0.99936937626636     -1.10680267505294      1.51564016490995
  H   2.33463918603649     -0.57671484209587      0.75316532375050
