14
Coordinates from ORCA-job run
  C   -0.30313699470730      0.38496400713795     -0.09720988676814
  C   0.87944566861647     -0.51096960108126     -0.44162929959129
  F   0.24160605300995      1.40802771057853      0.76609001962604
  H   0.53055841859895     -1.24156018180000     -1.17329007406596
  H   1.64942885109759      0.10845330628349     -0.91337750502104
  N   -0.85654304993033      0.97546962269289     -1.26030072905482
  H   -0.12160906362256      1.38466139804207     -1.82250742091824
  H   -1.50231217942521      1.71391511266123     -1.00526209632953
  N   -1.30406651230599     -0.33046794498921      0.62396813360805
  H   -2.19531035128398      0.14618873239491      0.57672231600668
  H   -1.02958643768880     -0.40333351127747      1.59420164531694
  N   1.47530073082136     -1.20896801121543      0.68242232893022
  H   1.71841405215650     -0.54604147541387      1.40744133198038
  H   0.81781081466334     -1.87833916401383      1.06073123628070
