14
Coordinates from ORCA-job run
  C   -0.54398728364444      0.11772048635267      0.13896803954441
  C   0.58595366013653     -0.76255919594884     -0.40162620912433
  F   -0.68264674330724     -0.26622415550305      1.49818404342517
  H   0.74580007161506     -0.50326780584794     -1.45110916214168
  H   0.25022331422131     -1.80481958000749     -0.36933923830629
  N   -0.30215493332210      1.53279194224505      0.19008109102284
  H   0.51101967873185      1.73049509821121      0.75735918650192
  H   -0.16425851910675      1.89021157992329     -0.74603583428263
  N   -1.72979396341113     -0.08676752155183     -0.60197125165154
  H   -2.47641529908559      0.46862097597923     -0.20357989489673
  H   -1.99340061732849     -1.06283828417702     -0.61212427871681
  N   1.84798064338661     -0.67515393457533      0.31288205012325
  H   1.68408864990063     -0.81485487378583      1.30175392587844
  H   2.26959134121375      0.23564526868587      0.18655753262397
