14
Coordinates from ORCA-job run
  C   -0.49554843381159      0.23120389726540     -0.40973799651474
  C   0.71031016056404     -0.70871437100577     -0.47850517644034
  F   -1.12139697173378      0.10961324578806     -1.66721909803144
  H   0.34798959525111     -1.69609852467572     -0.77705248837942
  H   1.37120122005780     -0.36077413018755     -1.27993396949014
  N   -1.51430618173275     -0.09081343797025      0.55075872635099
  H   -1.86515830507860     -1.02619207563496      0.39003233923559
  H   -1.14014755570283     -0.02151390381919      1.48699051881211
  N   -0.07124974492612      1.55945479120411     -0.14634764219429
  H   0.55126540895655      1.88614969761207     -0.87416326020127
  H   -0.88179049969037      2.16441349208444     -0.09656635236161
  N   1.47973424307328     -0.82919869698180      0.74878212654852
  H   0.94123500548435     -1.31443112324268      1.45464210019618
  H   1.68886205928889      0.09690113956386      1.10132017246987
