14
Coordinates from ORCA-job run
  C   -0.48631266082566      0.09709792916992     -0.48959629356276
  C   0.76583965449297     -0.77240308409953     -0.52832726041233
  F   -1.13081294284237     -0.04545966713938     -1.70538323486894
  H   0.43340440079166     -1.79260857853030     -0.72843381335024
  H   1.35950663326965     -0.43025244284837     -1.37795776641639
  N   -1.42346192966232     -0.41133092431287      0.49374266928475
  H   -1.07427494907757     -0.22646073324267      1.42582951365677
  H   -2.30695525334390      0.07659345440664      0.39216508397165
  N   -0.12463585194050      1.49986249937328     -0.41878384385490
  H   -0.95687206101996      2.06356988289285     -0.55503898670755
  H   0.24437840052721      1.71146764044444      0.49988194996369
  N   1.60091280836211     -0.77335391824641      0.66048392671873
  H   1.11609618432802     -1.13545343165474      1.46918502065346
  H   1.98318756694066      0.13973137378715      0.86123303492407
