14
Coordinates from ORCA-job run
  C   -0.60949203669753      0.08932720305438     -0.46263067318984
  C   0.70838382532018     -0.69384589086973     -0.51772661010849
  F   -1.16145278739830     -0.06332936965948     -1.73435078057376
  H   1.25003267777440     -0.32789884522756     -1.39443988039583
  H   0.46552090311699     -1.74273685588491     -0.70427709721555
  N   -1.49947320675885     -0.46829280256686      0.49455806246512
  H   -1.02057032656758     -0.83330875831113      1.30328161230942
  H   -2.19599911183500      0.21060832912058      0.77069517292491
  N   -0.49482156007849      1.52149542309148     -0.29647489246368
  H   0.06813229505271      1.92872648138021     -1.03376025364921
  H   -0.08997387179474      1.74537541008986      0.60261395188977
  N   1.58486765509284     -0.61381480364961      0.63873478779627
  H   1.20917235925564     -1.09503560201624      1.44370416240577
  H   1.78567318551772      0.34473008144901      0.88907243780509
