18
Coordinates from ORCA-job run
  C   0.64804416962030      0.20894070807371      0.46901352076586
  C   -0.52066832321849     -0.68312701485653     -0.00967944640158
  Br  1.30197280601609     -0.77400667210952      2.20417495509644
  H   -0.15031633404237     -1.71402679313558     -0.00712003049346
  N   0.17937579194796      1.49285235122417      0.75862824956896
  H   0.88927447205592      2.09916140202652      1.14925141672498
  H   -0.63407840398282      1.42412776943201      1.36225209443000
  C   1.86469664707637      0.22573485011687     -0.43020663252756
  H   1.62281830409147      0.78857490741686     -1.33628554236798
  H   2.70624319203605      0.70762091009099      0.07105236003559
  H   2.16746590992759     -0.78820694926911     -0.69753939318502
  C   -0.98398442505678     -0.26587600976299     -1.39764896002857
  H   -1.30531551162836      0.77861108220897     -1.37461026535273
  H   -1.84134411669753     -0.87770438859396     -1.69614626057498
  H   -0.20706451811842     -0.38265516417195     -2.15318064640753
  N   -1.61934655568884     -0.50469774698007      0.94770369142360
  H   -2.51128532311858     -0.52020976880300      0.47185746978402
  H   -1.60648778121958     -1.21311347290737      1.66948341950997
