18
Coordinates from ORCA-job run
  C   0.60346885139515      0.11358052845108      0.59777367709097
  C   -0.49079552568836     -0.80128170698378      0.02480609578075
  Br  1.24283577352866     -0.68001279019699      2.28260068321011
  H   -0.04109850498388     -1.79234040538491     -0.11106608311823
  N   0.00926369123946      1.40564555606146      0.94181604599897
  H   0.01427240451396      1.99608386793821      0.11556887172392
  H   0.56955076164022      1.86779802296317      1.64766621221695
  C   1.81754229266678      0.22535590954374     -0.31600677108185
  H   2.61202199535080      0.78084219919170      0.18510524946642
  H   2.20267266127557     -0.75997255458579     -0.58860091800933
  H   1.54998952644739      0.76296275823103     -1.23023434360659
  C   -0.97139444732738     -0.29267873829548     -1.34191117006810
  H   -1.40062653992473      0.70935272880156     -1.25329503707390
  H   -0.18690084650743     -0.28372825730716     -2.10237488017123
  H   -1.76383405776758     -0.95309176206283     -1.70435407521722
  N   -1.56357814311021     -0.92189486259434      0.99933588673338
  H   -1.84297072726328      0.01396887325361      1.27319486104903
  H   -2.35841916548515     -1.38958936702430      0.58097569507594
