18
Coordinates from ORCA-job run
  C   0.66262649491599      0.11522570491296      0.54388652518816
  C   -0.66987731078146     -0.57415410929118      0.18283709991160
  Br  1.97539067158039     -1.44810572362232      0.90736413477571
  H   -0.80600649803162     -1.38370232275734      0.90780455741737
  N   0.50410246530972      0.93009251237427      1.67569937342245
  H   -0.10220723276488      0.52743697793073      2.37673900340965
  H   1.38409097659126      1.22779731153589      2.07415319743665
  C   1.31921572885377      0.90021822787470     -0.57805187848814
  H   1.58422767046522      0.26738862683728     -1.42274960077710
  H   0.63589493809426      1.68874840678373     -0.90920624229393
  H   2.23035795485977      1.37751218633618     -0.21141037408006
  C   -0.66395220892655     -1.17994170453118     -1.21859073250067
  H   -1.58188459223162     -1.75617711285839     -1.36497475804281
  H   -0.64080359506862     -0.39571880182433     -1.97955963540388
  H   0.18131256881400     -1.85295682279643     -1.37462810934914
  N   -1.77043845792816      0.36883965192795      0.41897111874508
  H   -2.62830951614712     -0.04218724968393      0.06655151848304
  H   -1.61374005760435      1.22868424085139     -0.09483519785398
