18
Coordinates from ORCA-job run
  C   0.61885729635996      0.40110896576016      0.39671511345964
  C   -0.45927610926470     -0.38652467144999     -0.37728903835725
  Br  0.13966442286395      0.35009489944318      2.32776854410918
  H   -0.09566185014637     -0.36003305174172     -1.41575510633433
  N   0.72326167792340      1.79872344380570      0.05245485661618
  H   -0.17124089786640      2.26806026969056      0.10381640920573
  H   1.09712465880110      1.89005836991444     -0.88620423538644
  C   1.98621302484143     -0.23987430192382      0.24921485119622
  H   2.71975579633026      0.33062067822824      0.81896051339486
  H   2.26991861946683     -0.22249199949516     -0.81018994980273
  H   1.96628930348262     -1.27563046937997      0.57725308704099
  C   -1.84904315233449      0.24974973585924     -0.35087898646203
  H   -2.53179037397638     -0.35659195409794     -0.95196983938009
  H   -1.86286118106182      1.25907148022156     -0.76945854019807
  H   -2.23757267010625      0.28759825559092      0.66917100914664
  N   -0.44224546044073     -1.78937639041043      0.02902387543253
  H   -1.00986254246516     -2.33128884504386     -0.61238376448553
  H   -0.86053056240723     -1.87227441497111      0.94975120080452
