14

C	0.0	0.0	0.0
C	-0.340629	0.425192	-1.461415
Br	2.030694	0.0	0.0
H	-0.138695	1.504703	-1.501112
H	0.382357	-0.055731	-2.122915
N	-0.582745	0.828117	0.974645
H	-1.146941	1.555797	0.555834
H	-1.144707	0.328388	1.650031
C	-0.299589	-1.418327	0.203606
N	-0.522895	-2.565285	0.33473
N	-1.664462	0.130348	-1.92425
H	-1.765992	-0.867366	-2.070115
H	-2.417856	0.383071	-1.281247
Cl	-4.202454	0.0	0.0
