14

C	0.0	0.0	0.0
C	-0.351366	0.409694	-1.460696
Br	2.031303	0.0	0.0
H	-0.173022	1.492401	-1.505356
H	0.37719	-0.061871	-2.123148
N	-0.594839	0.83352	0.965092
H	-1.129799	0.327118	1.656327
H	-1.195253	1.523332	0.533201
C	-0.290779	-1.419296	0.216272
N	-0.512441	-2.564081	0.364795
N	-1.671801	0.091966	-1.918984
H	-2.425083	0.355268	-1.281841
H	-1.767668	-0.909617	-2.041206
Cl	-4.202567	0.0	0.0
