14

C	0.0	0.0	0.0
C	-0.291171	0.011986	-1.531858
Br	2.052165	0.0	0.0
H	0.002162	1.014812	-1.870569
H	0.392934	-0.694043	-2.006802
N	-0.59511	1.04272	0.72394
H	-0.948227	1.7627	0.10801
H	-1.353166	0.723894	1.316634
C	-0.300248	-1.308431	0.579236
N	-0.543523	-2.368542	1.024741
N	-1.63131	-0.284822	-1.938345
H	-1.851756	-1.256815	-1.759286
H	-2.348722	0.228251	-1.427498
Cl	-4.113819	0.0	0.0
