14

C	0.0	0.0	0.0
C	-0.469098	0.366863	-1.408987
Br	1.953491	0.0	0.0
H	-1.553859	0.217939	-1.385445
H	-0.018713	-0.332852	-2.118292
N	-0.540098	0.94147	0.941674
H	-1.563607	0.846622	0.848593
H	-0.28561	0.671455	1.885553
C	-0.344022	-1.408577	0.276935
N	-0.554075	-2.544909	0.493252
N	-0.05963	1.735152	-1.733051
H	-0.313931	2.308408	-0.934851
H	-0.635607	2.04543	-2.508007
Cl	-3.59011	0.0	0.0
