14

C	0.0	0.0	0.0
C	-0.33157	0.170369	-1.521287
Br	1.958987	0.0	0.0
H	0.28482	-0.544219	-2.073921
H	0.026274	1.17426	-1.782881
N	-0.572614	0.960794	0.889689
H	-0.489154	1.885905	0.479779
H	-1.566664	0.744553	0.99925
C	-0.376253	-1.354893	0.422314
N	-0.623735	-2.475081	0.676447
N	-1.697391	0.021755	-1.920619
H	-2.331537	0.639775	-1.425022
H	-2.052259	-0.902	-1.701206
Cl	-4.164647	0.0	0.0
