14

C	0.0	0.0	0.0
C	-0.347775	0.390291	-1.468459
Br	2.030925	0.0	0.0
H	-0.143184	1.468915	-1.536562
H	0.369163	-0.109828	-2.123612
N	-0.579738	0.853626	0.954358
H	-1.122577	0.372344	1.657873
H	-1.15734	1.561201	0.518453
C	-0.301489	-1.412231	0.238121
N	-0.536228	-2.552522	0.397747
N	-1.675527	0.085574	-1.914832
H	-2.427213	0.346884	-1.272732
H	-1.773883	-0.91476	-2.044777
Cl	-4.21742	0.0	0.0
