15

C	0.0	0.0	0.0
C	-0.502341	0.028324	-1.452458
Cl	1.800001	0.0	0.0
H	-0.205094	-0.891162	-1.964019
H	-1.608086	0.034247	-1.330282
C	-0.447167	1.253285	0.730598
H	-0.108117	1.197612	1.766198
H	-1.543494	1.260444	0.693381
H	-0.039157	2.149436	0.258812
N	-0.514172	-1.142361	0.704408
H	-0.333875	-1.97761	0.15415
H	-1.542336	-0.988354	0.688864
C	-0.063508	1.174928	-2.23365
N	0.288531	2.104281	-2.859973
H	-3.101981	0.0	0.0
