14

C	0.0	0.0	0.0
C	-0.420595	-0.014081	-1.594142
F	1.351271	0.0	0.0
H	-1.538206	0.03022	-1.471121
H	-0.44288	-0.960601	0.387593
N	-0.372335	1.175839	0.607442
O	-1.734224	1.476559	0.782641
O	0.42531	2.177153	0.905696
C	-0.055754	-1.273874	-2.200441
N	0.288948	-2.373383	-2.556377
N	0.048051	1.182174	-2.322689
H	1.022794	1.304446	-2.138624
H	-0.466285	1.955925	-1.9138
H	-2.084867	0.0	0.0
