14

C	0.0	0.0	0.0
C	-0.577468	0.023423	-1.405879
F	1.342403	0.0	0.0
H	-1.688463	-0.005115	-1.201023
H	-0.335	-0.910885	0.495428
N	-0.664401	1.070591	0.76508
O	-1.77806	0.604064	1.247498
O	-0.506057	2.258961	0.363476
C	-0.220684	-1.209654	-2.102479
N	0.060028	-2.192456	-2.68378
N	-0.120401	1.176306	-2.186143
H	-0.779127	1.3033	-2.949393
H	-0.217566	1.976032	-1.561154
H	-2.869299	0.0	0.0
