14

C	0.0	0.0	0.0
C	-0.369123	-0.038424	-1.503584
F	1.354251	0.0	0.0
H	0.230047	-0.899882	-1.834606
H	-0.401178	-0.841208	0.561536
N	-0.415143	1.236439	0.750372
O	-0.289693	1.159155	1.972697
O	-0.749654	2.230031	0.115663
C	0.274193	1.112225	-2.18697
N	0.816573	1.9488	-2.80885
N	-1.734896	-0.199827	-1.92773
H	-1.899417	-1.194153	-2.053694
H	-2.415348	0.041157	-1.119559
H	-3.254299	0.0	0.0
