14

C	0.0	0.0	0.0
C	-0.546486	0.034584	-1.405299
F	1.359919	0.0	0.0
H	-1.639987	0.236652	-1.195915
H	-0.393091	-0.83671	0.571336
N	-0.374811	1.224989	0.810349
O	-0.173915	1.093604	2.018202
O	-0.743144	2.247112	0.253367
C	-0.4436	-1.320793	-1.966885
N	-0.312645	-2.367845	-2.487703
N	0.146336	1.023964	-2.218614
H	1.022959	0.645889	-2.557988
H	-0.42943	1.263083	-3.014845
H	-2.888743	0.0	0.0
