16

C	-0.526428	0.022664	-1.436733
C	0.0	0.0	0.0
Cl	0.321053	1.246786	-2.394072
H	1.094479	0.0	0.0
N	-0.262497	-1.335694	-2.118371
O	-1.177834	-1.798849	-2.791683
O	0.845736	-1.809117	-1.941218
C	-1.964396	0.277735	-1.490206
N	-3.111012	0.537122	-1.468659
C	-0.512024	-1.200251	0.655213
N	-0.968539	-2.141747	1.190135
C	-0.418253	1.251659	0.779282
H	0.041079	1.199904	1.767126
H	-0.027632	2.139371	0.280531
H	-1.501898	1.333086	0.888617
Br	3.407106	0.0	0.0
