16

C	-0.408674	0.011765	-1.479668
C	0.0	0.0	0.0
Cl	0.204645	-1.407218	-2.317406
H	1.096404	0.0	0.0
N	-1.953698	0.022439	-1.556976
O	-2.532236	-1.053257	-1.556089
O	-2.470979	1.135795	-1.520904
C	0.055163	1.21925	-2.154748
N	0.418141	2.191257	-2.704643
C	-0.482189	-1.212389	0.651914
N	-0.863293	-2.155425	1.240097
C	-0.444808	1.248626	0.765636
H	-1.529315	1.320103	0.867064
H	-0.066125	2.143154	0.26807
H	0.006828	1.204706	1.757884
Br	3.357574	0.0	0.0
