16

C	-0.441357	0.002827	-1.469706
C	0.0	0.0	0.0
Cl	-2.206703	0.188581	-1.647084
H	1.097484	0.0	0.0
N	0.223824	1.187046	-2.20187
O	1.114253	0.909619	-2.991589
O	-0.190321	2.300034	-1.912584
C	-0.052089	-1.225091	-2.15547
N	0.18834	-2.242978	-2.692959
C	-0.49643	-1.230041	0.60787
N	-0.937369	-2.191045	1.119896
C	-0.42948	1.21621	0.824361
H	-1.511189	1.360607	0.820692
H	0.06336	2.112481	0.452361
H	-0.092345	1.04894	1.8487
Br	3.347169	0.0	0.0
