16

C	-0.461074	0.007082	-1.468238
C	0.0	0.0	0.0
Cl	0.063586	1.474142	-2.284722
H	1.09749	0.0	0.0
N	0.153715	-1.223986	-2.195469
O	1.081218	-1.047833	-2.96088
O	-0.377369	-2.284924	-1.887414
C	-1.912095	-0.119793	-1.591049
N	-3.083544	-0.198506	-1.654297
C	-0.490659	-1.19286	0.685355
N	-0.905661	-2.088643	1.323188
C	-0.473019	1.243052	0.760172
H	-0.173987	1.135104	1.80377
H	-1.559782	1.360781	0.714332
H	0.015828	2.1313	0.362791
Br	3.385925	0.0	0.0
