16

C	-0.480979	-0.016445	-1.449025
C	0.0	0.0	0.0
Cl	-2.266036	0.063608	-1.552779
H	1.098735	0.0	0.0
N	0.058978	1.194416	-2.257651
O	0.832236	1.948163	-1.692408
O	-0.333163	1.265354	-3.413353
C	-0.035949	-1.199766	-2.179185
N	0.271556	-2.143991	-2.80911
C	-0.431331	-1.256563	0.610742
N	-0.781738	-2.246524	1.136816
C	-0.491095	1.178888	0.842514
H	-0.159703	2.11923	0.408197
H	-1.576367	1.17623	0.953791
H	-0.033966	1.0879	1.828845
Br	3.375502	0.0	0.0
