16

C	-0.430672	0.083247	-1.465904
C	0.0	0.0	0.0
Cl	-2.197538	0.350307	-1.640192
H	1.094536	0.0	0.0
N	0.228834	1.262955	-2.218317
O	0.209188	1.17124	-3.436974
O	0.65715	2.192112	-1.559087
C	-0.079833	-1.125923	-2.20633
N	0.149071	-2.122303	-2.785661
C	-0.457366	-1.290691	0.516166
N	-0.863006	-2.291978	0.979208
C	-0.496768	1.110344	0.934513
H	-0.185255	2.085647	0.570265
H	-0.028393	0.944055	1.907809
H	-1.581272	1.081489	1.056763
Br	3.363177	0.0	0.0
