16

C	-0.504331	0.123735	-1.437227
C	0.0	0.0	0.0
Cl	0.302399	1.464817	-2.269153
H	1.109335	0.0	0.0
N	-0.178562	-1.143249	-2.258235
O	-0.856533	-1.307282	-3.2662
O	0.747254	-1.831844	-1.86189
C	-1.952608	0.315578	-1.501563
N	-3.112224	0.508785	-1.470718
C	-0.520721	-1.234962	0.576691
N	-0.985198	-2.195881	1.068611
C	-0.425785	1.200378	0.854725
H	-0.008153	2.115189	0.435334
H	-0.001314	1.070141	1.850812
H	-1.51147	1.289138	0.936605
Br	3.408234	0.0	0.0
