17

C	0.0	0.0	0.0
C	-0.569005	-0.001311	-1.444755
Br	1.959948	0.0	0.0
H	-1.671498	0.088387	-1.199213
C	-0.426267	1.260883	0.743898
H	-0.085976	1.157917	1.775412
H	0.000787	2.161545	0.306277
H	-1.517552	1.274412	0.697367
N	-0.515829	-1.133206	0.712217
H	-0.29334	-1.991705	0.21749
H	-1.543215	-0.963567	0.657086
C	-0.270486	-1.241011	-2.143275
N	-0.074151	-2.274819	-2.666577
N	-0.12992	1.153131	-2.285295
O	0.737044	0.963838	-3.139788
O	-0.664363	2.236469	-2.053656
F	-2.853637	0.0	0.0
