13

C	-0.527871	-0.089772	-1.410355
C	0.0	0.0	0.0
Br	-0.201705	-1.849245	-2.222989
H	1.093105	0.0	0.0
H	0.071943	0.579717	-2.037891
H	-0.296614	1.014646	0.339834
N	-1.964469	0.150355	-1.48654
H	-2.250094	0.220753	-2.457307
H	-2.136815	1.047973	-1.044129
N	-0.496484	-1.056666	0.872874
H	-1.31711	-0.774694	1.389799
H	0.245305	-1.273817	1.524674
F	2.710097	0.0	0.0
