13

C	-0.557401	0.000305	-1.412723
C	0.0	0.0	0.0
Br	-0.327605	-1.776065	-2.215128
H	1.097356	0.0	0.0
H	0.049534	0.665125	-2.028526
H	-0.415641	-0.845651	0.563896
N	-1.955193	0.381712	-1.561349
H	-2.510275	-0.29893	-1.050926
H	-2.009953	1.247904	-1.027445
N	-0.385988	1.308981	0.599498
H	-0.914281	1.16483	1.450889
H	0.493599	1.735845	0.869973
F	2.706001	0.0	0.0
