13

C	-0.607986	-0.064222	-1.38473
C	0.0	0.0	0.0
Br	0.04727	-1.691636	-2.309031
H	1.092985	0.0	0.0
H	-0.233894	0.753594	-2.001586
H	-0.362338	0.952926	0.418392
N	-2.057451	-0.099938	-1.430089
H	-2.319855	-0.696947	-0.648891
H	-2.382492	0.837129	-1.210158
N	-0.567213	-1.097653	0.824379
H	-0.497104	-0.804248	1.792541
H	0.097096	-1.861465	0.739608
F	2.720271	0.0	0.0
