13

C	-0.066719	0.039843	-1.523422
C	0.0	0.0	0.0
Br	-1.891348	0.718498	-2.227961
H	1.099047	0.0	0.0
H	-0.101005	-0.969673	-1.947796
H	-0.468333	-0.904387	0.392059
N	0.976606	0.875413	-1.999517
H	1.80823	0.683361	-1.395064
H	1.184895	0.691101	-2.97202
N	-0.443784	1.187382	0.715698
H	-1.318146	1.514675	0.315999
H	0.248776	1.908463	0.550961
F	2.743953	0.0	0.0
