13

C	-0.019359	0.02206	-1.520733
C	0.0	0.0	0.0
Br	-1.831295	0.447055	-2.29375
H	1.097363	0.0	0.0
H	0.181873	-0.98459	-1.893371
H	-0.466514	-0.902602	0.403549
N	0.962512	0.921625	-2.091185
H	1.822313	0.665124	-1.561309
H	0.727483	1.859689	-1.777988
N	-0.462006	1.199742	0.6846
H	0.28445	1.882626	0.66956
H	-1.27173	1.591503	0.215048
F	2.727605	0.0	0.0
