15

C	0.0	0.0	0.0
C	-0.442295	0.330843	-1.429093
F	1.40456	0.0	0.0
H	0.051194	1.277642	-1.692278
H	-0.326904	-1.00059	0.292133
N	-0.509558	0.951571	0.91184
H	-0.366402	0.671613	1.87181
H	-0.08466	1.856814	0.753192
C	-1.962041	0.479499	-1.557674
H	-2.338325	1.165711	-0.803978
H	-2.223518	0.852006	-2.549528
H	-2.49405	-0.457565	-1.391682
C	0.085934	-0.692034	-2.337338
N	0.48862	-1.545766	-3.035731
Br	-5.125851	0.0	0.0
