15

C	0.0	0.0	0.0
C	-0.322123	0.073601	-1.506767
F	1.380522	0.0	0.0
H	0.1939	0.984818	-1.833368
H	-0.299183	-0.969425	0.421001
N	-0.518318	1.14045	0.684313
H	-1.515243	1.200789	0.487883
H	-0.432376	1.000693	1.68437
C	-1.785459	0.126129	-1.92861
H	-2.276142	1.027896	-1.568301
H	-2.361689	-0.704726	-1.528641
H	-1.849655	0.112826	-3.019305
C	0.350042	-1.052754	-2.165294
N	0.864522	-1.954157	-2.713125
Br	-4.57418	0.0	0.0
