15

C	0.0	0.0	0.0
C	-0.478955	0.085269	-1.445536
F	1.408657	0.0	0.0
H	-1.578565	0.078838	-1.375519
H	-0.332956	-0.945133	0.432918
N	-0.491606	1.074414	0.762066
H	-0.068726	1.952664	0.497736
H	-0.436948	0.919763	1.755406
C	0.037442	-1.081143	-2.288359
H	-0.326855	-1.011	-3.31496
H	1.128882	-1.094793	-2.299846
H	-0.32469	-2.020187	-1.86309
C	-0.047897	1.363596	-2.013931
N	0.321377	2.39259	-2.443594
Br	-3.908922	0.0	0.0
