15

C	0.0	0.0	0.0
C	-0.268351	0.763774	-1.327694
F	1.390557	0.0	0.0
H	0.349725	1.668007	-1.235519
H	-0.343185	-1.034992	-0.061525
N	-0.528062	0.591194	1.175378
H	-0.484507	1.602027	1.123984
H	-1.506765	0.324616	1.26565
C	-1.705174	1.164885	-1.635508
H	-1.726439	1.721763	-2.576166
H	-2.372925	0.309848	-1.702685
H	-2.110258	1.793766	-0.844316
C	0.298363	-0.012886	-2.435985
N	0.727629	-0.661948	-3.315317
Br	-4.431488	0.0	0.0
