15

C	0.0	0.0	0.0
C	-0.292428	0.308543	-1.492211
F	1.390425	0.0	0.0
H	0.220456	1.263473	-1.674709
H	-0.336767	-1.004669	0.266713
N	-0.526816	0.928858	0.933992
H	-1.493552	0.687569	1.136896
H	-0.513105	1.869414	0.557303
C	-1.760731	0.42941	-1.880207
H	-2.317306	-0.480558	-1.666767
H	-1.84223	0.65368	-2.946983
H	-2.257789	1.212284	-1.312399
C	0.379129	-0.690254	-2.330734
N	0.885461	-1.510446	-3.001269
Br	-4.566946	0.0	0.0
