15

C	0.0	0.0	0.0
C	-0.210042	-0.069528	-1.55964
F	1.385378	0.0	0.0
H	0.602571	-0.73515	-1.875148
H	-0.356819	-0.915762	0.472676
N	-0.479328	1.114221	0.730018
H	-1.494325	0.998218	0.804504
H	-0.294509	1.971677	0.224279
C	0.046612	1.297357	-2.20224
H	0.113303	1.196062	-3.287522
H	-0.767519	1.987882	-1.976478
H	0.991191	1.704565	-1.832989
C	-1.388566	-0.684197	-2.181194
N	-2.083857	-1.201604	-2.976759
Br	-3.574894	0.0	0.0
