15

C	0.0	0.0	0.0
C	-0.379511	0.058392	-1.514745
F	1.386885	0.0	0.0
H	0.597941	0.06196	-2.009849
H	-0.292771	-0.966514	0.426068
N	-0.482931	1.133776	0.719336
H	-1.501767	1.119046	0.615436
H	-0.294908	0.986025	1.705416
C	-1.134285	1.30286	-1.990772
H	-0.596645	2.193366	-1.663576
H	-1.18491	1.296943	-3.083332
H	-2.145709	1.30951	-1.58914
C	-1.0073	-1.188396	-1.963729
N	-1.385236	-2.214596	-2.392322
Br	-3.74935	0.0	0.0
