16

C	0.0	0.0	0.0
C	-0.314953	-0.811382	-1.288897
Cl	1.79913	0.0	0.0
H	0.248998	-1.743883	-1.199308
H	0.127533	-0.247495	-2.119059
C	-0.486904	1.436341	-0.083496
H	-0.154329	1.9994	0.794096
H	-0.110596	1.937437	-0.978954
H	-1.581042	1.428448	-0.096038
N	-0.489774	-0.720322	1.150393
H	-0.375213	-0.143794	1.977882
H	-1.496673	-0.817113	1.012391
N	-1.680145	-1.141242	-1.609512
H	-2.315729	-0.35392	-1.54153
H	-2.056659	-1.818356	-0.958981
Cl	-4.17735	0.0	0.0
