13

C	-0.388351	-0.015239	-1.461881
C	0.0	0.0	0.0
Cl	-2.12309	-0.504997	-1.734012
H	1.095727	0.0	0.0
H	0.211091	-0.763939	-1.984588
H	-0.30994	-0.960714	0.426036
C	-0.200589	1.273063	-2.127389
N	-0.073041	2.30569	-2.671833
C	-0.563274	1.164477	0.79337
H	-0.186963	2.113108	0.402288
H	-1.657819	1.193346	0.785148
H	-0.227556	1.088593	1.83052
H	2.927171	0.0	0.0
