13

C	0.0	0.0	0.0
C	-0.292096	0.193279	-1.479917
F	1.372096	0.0	0.0
H	0.167061	-0.612595	-2.049437
H	-0.393668	-0.947241	0.343095
H	-0.385542	0.815816	0.593595
N	0.421355	1.433065	-1.963073
O	0.493298	2.401117	-1.216473
O	0.863129	1.38765	-3.112592
N	-1.685869	0.311991	-2.037936
O	-2.135531	1.439331	-2.196139
O	-2.12425	-0.718233	-2.538131
F	-2.365443	0.0	0.0
