13

C	0.0	0.0	0.0
C	-0.460107	-0.064931	-1.434028
F	1.373978	0.0	0.0
H	0.37561	-0.383298	-2.068837
H	-0.376807	0.897755	0.469812
H	-0.360895	-0.873685	0.526279
N	-0.845915	1.262499	-2.025819
O	-1.033294	2.230518	-1.301138
O	-0.868777	1.290101	-3.258042
N	-1.519544	-1.09911	-1.710273
O	-2.398794	-0.861518	-2.519427
O	-1.239137	-2.206675	-1.259741
F	-2.374918	0.0	0.0
