13

C	0.0	0.0	0.0
C	-0.460747	-0.072942	-1.433155
F	1.37784	0.0	0.0
H	0.37344	0.181089	-2.097531
H	-0.359674	0.920102	0.440886
H	-0.374091	-0.849491	0.554037
N	-1.522684	0.930702	-1.805265
O	-1.242792	2.076398	-1.461344
O	-2.39764	0.61743	-2.593238
N	-0.848974	-1.451813	-1.892957
O	-1.037831	-2.344618	-1.077796
O	-0.874985	-1.597755	-3.116609
F	-2.372947	0.0	0.0
