14

C	-0.381224	0.043947	-1.472385
C	0.0	0.0	0.0
Cl	-2.158965	0.368553	-1.615462
H	1.092198	0.0	0.0
H	-0.353366	0.910636	0.482913
N	0.329729	1.120839	-2.134639
H	1.327947	0.92308	-2.026117
H	0.144478	1.980503	-1.626849
C	-0.106602	-1.188948	-2.221195
N	0.103727	-2.107582	-2.921198
N	-0.54625	-1.124555	0.785997
O	-0.626783	-2.226568	0.246798
O	-0.860907	-0.880892	1.951263
Cl	3.240854	0.0	0.0
