14

C	-0.596244	0.064598	-1.402474
C	0.0	0.0	0.0
Cl	0.173165	-1.087291	-2.530009
H	1.088092	0.0	0.0
H	-0.367434	0.85505	0.570028
N	-2.008465	-0.24902	-1.348853
H	-2.434058	-0.107103	-2.257136
H	-2.465654	0.344619	-0.664712
C	-0.340987	1.417002	-1.938601
N	-0.248611	2.522362	-2.32842
N	-0.520611	-1.198748	0.702954
O	-1.356881	-1.003783	1.590472
O	-0.104877	-2.295903	0.352851
Cl	3.28671	0.0	0.0
