14

C	-0.539446	-0.029564	-1.42146
C	0.0	0.0	0.0
Cl	-2.446097	0.169376	-1.267115
H	1.092108	0.0	0.0
H	-0.388477	-0.837395	0.573375
N	0.04463	0.896218	-2.273302
H	-0.354421	0.919387	-3.199516
H	0.149866	1.8061	-1.847658
C	-0.422707	-1.385513	-1.964898
N	-0.33971	-2.472036	-2.402272
N	-0.421029	1.2244	0.724262
O	-0.814738	1.090678	1.878679
O	-0.307365	2.304623	0.142695
Cl	3.250043	0.0	0.0
