14

C	-0.587797	-0.010905	-1.423993
C	0.0	0.0	0.0
Cl	-0.139804	-1.568699	-2.20109
H	1.087948	0.0	0.0
H	-0.384651	0.885607	0.511284
N	-2.0209	0.150132	-1.542468
H	-2.256473	1.107515	-1.302491
H	-2.464341	-0.45789	-0.861512
C	0.044527	1.079636	-2.176698
N	0.459375	2.005869	-2.767631
N	-0.519625	-1.167705	0.758923
O	-1.730735	-1.156339	1.028462
O	0.252857	-2.070042	1.058139
Cl	3.332718	0.0	0.0
