14

C	-0.391259	-0.034153	-1.483092
C	0.0	0.0	0.0
Cl	-0.148241	1.605768	-2.181527
H	1.088883	0.0	0.0
H	-0.374624	-0.910875	0.472913
N	0.460297	-0.955441	-2.204412
H	1.428163	-0.753938	-1.939968
H	0.246873	-1.9021	-1.902955
C	-1.798252	-0.40488	-1.702975
N	-2.906416	-0.746954	-1.8949
N	-0.606326	1.130611	0.736791
O	0.122033	2.021838	1.156406
O	-1.833135	1.091646	0.86491
Cl	3.315565	0.0	0.0
