14

C	-0.346583	0.198203	-1.47769
C	0.0	0.0	0.0
Cl	-2.098388	0.713372	-1.669068
H	1.090393	0.0	0.0
H	-0.432925	-0.91014	0.402842
N	0.513951	1.160797	-2.069936
H	0.591116	1.028411	-3.067415
H	1.43333	1.124803	-1.632514
C	-0.286374	-1.123806	-2.130839
N	-0.187544	-2.151345	-2.694385
N	-0.481948	1.119139	0.83857
O	-0.059574	2.243948	0.589532
O	-1.274685	0.837879	1.740415
Cl	3.260257	0.0	0.0
