14

C	-0.57863	0.078631	-1.410069
C	0.0	0.0	0.0
Cl	-0.054304	1.56497	-2.26616
H	1.087079	0.0	0.0
H	-0.37347	-0.918118	0.457123
N	-0.099383	-1.056402	-2.147551
H	-0.12913	-1.900599	-1.591672
H	-0.611105	-1.178161	-3.011011
C	-2.057971	0.14051	-1.366935
N	-3.232766	0.115195	-1.405474
N	-0.528739	1.093832	0.852521
O	-1.496448	0.820663	1.570329
O	0.004756	2.194718	0.778678
Cl	3.339371	0.0	0.0
