14

C	-0.58812	0.007078	-1.401494
C	0.0	0.0	0.0
Cl	-0.021335	-1.514843	-2.16711
H	1.088772	0.0	0.0
H	-0.352304	-0.894873	0.513409
N	-2.038264	-0.04774	-1.36311
H	-2.363511	0.843649	-1.002899
H	-2.388745	-0.153529	-2.309121
C	-0.086936	1.111374	-2.240648
N	0.191502	2.018616	-2.933726
N	-0.468299	1.14757	0.82
O	-0.255514	1.079367	2.02422
O	-1.023296	2.096318	0.255236
Cl	3.264382	0.0	0.0
