14

C	-0.563411	0.027805	-1.417141
C	0.0	0.0	0.0
Cl	-0.085177	-1.547267	-2.244021
H	1.086902	0.0	0.0
H	-0.365193	0.886744	0.526307
N	-1.96445	0.283121	-1.461258
H	-2.442827	-0.425132	-0.91855
H	-2.296969	0.2781	-2.417586
C	0.114944	1.089165	-2.172129
N	0.553524	1.982499	-2.796235
N	-0.49107	-1.166465	0.793086
O	0.261832	-1.61725	1.645342
O	-1.641546	-1.573532	0.590103
Cl	3.315692	0.0	0.0
