14

C	-0.609384	-0.047105	-1.400669
C	0.0	0.0	0.0
Cl	-0.142978	-1.666587	-2.037551
H	1.09031	0.0	0.0
H	-0.342533	-0.861051	0.576095
N	-2.054628	0.045077	-1.476462
H	-2.457141	-0.625339	-0.832531
H	-2.323125	0.979955	-1.190858
C	-0.047312	0.961699	-2.306052
N	0.329369	1.766151	-3.072274
N	-0.451418	1.196423	0.753555
O	-0.844411	2.180514	0.119512
O	-0.38451	1.133556	1.976456
Cl	3.245694	0.0	0.0
