14

C	-0.578598	0.053532	-1.410408
C	0.0	0.0	0.0
Cl	-0.239507	1.720516	-2.018906
H	1.091205	0.0	0.0
H	-0.355487	0.846098	0.585517
N	0.038739	-0.875808	-2.300173
H	0.025569	-1.798671	-1.877796
H	-0.433717	-0.886806	-3.197742
C	-2.056122	-0.047476	-1.365345
N	-3.225088	-0.171578	-1.355941
N	-0.43162	-1.212178	0.747484
O	-0.70661	-2.233226	0.111222
O	-0.454549	-1.123121	1.970483
Cl	3.29015	0.0	0.0
