14

C	-0.554289	0.025985	-1.410126
C	0.0	0.0	0.0
Cl	-2.443352	0.021797	-1.241474
H	1.091006	0.0	0.0
H	-0.356674	0.883185	0.530223
N	-0.082815	1.175351	-2.061215
H	-0.162116	2.012611	-1.503238
H	-0.466206	1.298938	-2.9868
C	-0.27303	-1.14379	-2.247557
N	-0.072401	-1.993381	-3.033247
N	-0.467198	-1.158451	0.792298
O	-0.529113	-2.250394	0.234074
O	-0.718751	-0.950132	1.977301
Cl	3.253845	0.0	0.0
