15
Coordinates from ORCA-job run
  C   -0.39325257752286      0.20334493587996      0.25767205411796
  C   0.89193330414220     -0.58677641321078      0.11988820426648
  Cl  -0.31083378078640      1.25287790442822      1.66924855389389
  H   1.01287972676526     -1.26063114836923      0.96591184397521
  H   0.88745216304550     -1.14129328477400     -0.81918375389679
  C   -1.58987329508923     -0.72636076170461      0.36671462069994
  H   -1.63672416604967     -1.37636699452514     -0.50826891462003
  H   -2.50557305426931     -0.13593111942248      0.42702820994381
  H   -1.50653742182928     -1.33028945585077      1.27081961522756
  N   -0.61760599902539      1.03655101515098     -1.01462752634671
  O   -0.50378527549018      0.38809827139962     -2.04946459417458
  O   -0.95351260828135      2.20248588551154     -0.91445724817465
  N   2.10550646209380      0.28302737485280      0.09283821253007
  O   3.09426283802720     -0.13424896053615      0.68636945493077
  O   2.02666368426971      1.32351275117006     -0.55248873237294
