15
Coordinates from ORCA-job run
  C   -0.42446056747528      0.47934936606619      0.25066264148389
  C   1.08588289456468      0.37519331631514      0.34221784213148
  Cl  -0.87892747025342      1.88417040498568      1.25181642642043
  H   1.55554373218916      1.25570085563664     -0.09502985544165
  H   1.39915473845466      0.25978969348013      1.37823603790601
  C   -1.17686418025505     -0.74383837012421      0.71131874332329
  H   -0.86165956125310     -0.99068729017367      1.72688145123486
  H   -0.97639005451951     -1.58316714451845      0.04642036461109
  H   -2.24697986480733     -0.54850935163175      0.71079943060813
  N   -0.82045327332962      0.85850185460267     -1.18010480935471
  O   -1.85854366236234      0.37862997466804     -1.61347208304853
  O   -0.08455623505116      1.64769301195546     -1.75721499785707
  N   1.62096049233701     -0.80694318204085     -0.40050955413829
  O   1.00238094325360     -1.17523939681199     -1.39659088123517
  O   2.66391206850770     -1.29064374240905      0.02456924335623
