15
Coordinates from ORCA-job run
  C   -0.28210773695415      0.46169846259847     -0.07352401463716
  C   0.96645684540948     -0.28431058190651     -0.52999923942053
  Cl  0.17246115469238      2.05199587514852      0.56752601775742
  H   1.55050495959133      0.32013787108501     -1.21775867446434
  H   0.68922619946059     -1.23532216155951     -0.98228009987013
  C   -1.16029626996091     -0.27411514311637      0.91163266163388
  H   -0.62134262492668     -0.44910196457757      1.84038475874216
  H   -1.45676887030133     -1.23943352715638      0.49363343087068
  H   -2.04819674516746      0.32272912677762      1.11238365059472
  N   -1.12466215948289      0.72742293970262     -1.33309622974618
  O   -0.65690362528935      0.37102912887513     -2.41098152988756
  O   -2.20715276167776      1.26587468671313     -1.15654413444221
  N   1.84126131900012     -0.59729653101780      0.63667411218048
  O   1.50474101041267     -1.54932515502372      1.33985827113146
  O   2.83277930519399      0.10801697345736      0.80109101955730
