15
Coordinates from ORCA-job run
  C   -0.35487447159964      0.41265751220558     -0.03182213987376
  C   1.03157870942662     -0.07023149231956     -0.45304610704770
  Cl  -0.20604815294793      1.93417561069955      0.84501048392179
  H   1.51824895930690      0.67310860054911     -1.08172384865595
  H   0.95862248308821     -1.02890191190767     -0.96177043664045
  C   -1.19403252152383     -0.57781459934874      0.75011269279814
  H   -2.18604469465898     -0.15300829119622      0.91257433682483
  H   -1.28096371021364     -1.50891971608472      0.18651672445595
  H   -0.73015054578874     -0.78630060864985      1.71149967313810
  N   -1.12012275668606      0.66339787017475     -1.34516486911715
  O   -0.92588699127855     -0.17990197302346     -2.21722451108474
  O   -1.89874276513675      1.60040734871246     -1.40208646378410
  N   1.90889710455753     -0.27051272127120      0.73517166999734
  O   1.63995856681972     -1.22420146083006      1.46356113961691
  O   2.83856078663513      0.51604583229002      0.88839165545079
