16

C	0.0	0.0	0.0
C	-0.471911	0.033744	-1.442312
Cl	1.852749	0.0	0.0
H	-0.068143	-0.847203	-1.947946
H	-1.56584	-0.065947	-1.336515
N	-0.387826	1.213423	0.668463
H	-0.300494	1.103462	1.671659
H	0.180122	1.997883	0.370891
N	-0.534039	-1.164725	0.616099
H	-1.566106	-1.0158	0.51679
H	-0.321953	-1.150596	1.609098
C	-0.153253	1.314338	-2.19891
H	-0.711531	2.149103	-1.768906
H	0.915327	1.550821	-2.18822
H	-0.46453	1.219657	-3.243339
H	-3.224364	0.0	0.0
