16

C	0.0	0.0	0.0
C	-0.437968	0.039358	-1.458408
Cl	1.866431	0.0	0.0
H	-1.533512	-0.045945	-1.364971
H	-0.043466	-0.851608	-1.960691
N	-0.409255	1.182894	0.675041
H	-0.345404	1.028452	1.672749
H	0.149812	1.979228	0.406959
N	-0.545407	-1.096581	0.730904
H	-1.57553	-0.89445	0.673061
H	-0.383371	-1.949333	0.204534
C	-0.080458	1.302647	-2.226909
H	-0.600463	2.159003	-1.791449
H	-0.410654	1.219044	-3.266901
H	0.995511	1.49774	-2.228415
H	-3.213003	0.0	0.0
