16

C	0.0	0.0	0.0
C	-0.221481	-0.022906	-1.544904
Cl	1.800728	0.0	0.0
H	0.321609	-0.907788	-1.88838
H	0.326845	0.847351	-1.914507
N	-0.494442	1.239552	0.552004
H	-0.307348	1.232965	1.551931
H	-1.519865	1.129582	0.454846
N	-0.495273	-1.222206	0.587115
H	-1.521558	-1.116544	0.484151
H	-0.309372	-1.187219	1.588052
C	-1.603465	-0.028995	-2.185153
H	-2.19632	0.841254	-1.915351
H	-1.449556	-0.046071	-3.275099
H	-2.201065	-0.886414	-1.890144
H	-3.185013	0.0	0.0
