16

C	0.0	0.0	0.0
C	-0.204351	0.062108	-1.550064
Cl	1.812229	0.0	0.0
H	0.326152	-0.807992	-1.947188
H	0.36305	0.939959	-1.881297
N	-0.485345	1.128854	0.748173
H	-0.234509	1.991017	0.272835
H	-1.513074	1.020855	0.701929
N	-0.52612	-1.224838	0.519865
H	-1.546569	-1.124122	0.361371
H	-0.406174	-1.182925	1.529291
C	-1.586192	0.125522	-2.187266
H	-1.437059	0.204707	-3.274018
H	-2.17283	0.970071	-1.835752
H	-2.191042	-0.749857	-1.965532
H	-3.19109	0.0	0.0
