17

C	0.0	0.0	0.0
C	-0.516019	-0.14803	-1.428972
F	1.37766	0.0	0.0
H	-1.588487	-0.374865	-1.340504
N	-0.512557	1.116538	0.648085
H	-0.257441	1.088186	1.628521
H	-1.535739	1.088008	0.553969
N	-0.277466	-1.30889	0.824174
O	0.04215	-1.227653	2.008533
O	-0.750936	-2.299192	0.281689
C	0.226845	-1.194822	-2.268183
H	-0.18676	-1.19647	-3.278652
H	1.28899	-0.953563	-2.331604
H	0.101456	-2.185793	-1.840125
C	-0.379121	1.149065	-2.098351
N	-0.229651	2.138024	-2.71341
Cl	-3.531418	0.0	0.0
