17

C	0.0	0.0	0.0
C	-0.370098	-0.353657	-1.480829
F	1.379516	0.0	0.0
H	0.575083	-0.715872	-1.897235
N	-0.50564	1.14336	0.621024
H	-0.355397	1.943141	0.018682
H	-1.521055	0.9947	0.712253
N	-0.299428	-1.214643	0.903583
O	0.167344	-2.272902	0.485214
O	-0.873118	-1.046015	1.966002
C	-0.804901	0.89128	-2.255781
H	-0.028102	1.66056	-2.20698
H	-1.744584	1.264501	-1.844178
H	-0.95987	0.632917	-3.305078
C	-1.305331	-1.456815	-1.720671
N	-1.884319	-2.392735	-2.134839
Cl	-3.406708	0.0	0.0
