17

C	0.0	0.0	0.0
C	-0.489564	-0.060237	-1.461515
F	1.348667	0.0	0.0
H	-1.56991	-0.254497	-1.397281
N	-0.520333	1.026296	0.810553
H	-1.541059	0.905656	0.82292
H	-0.310615	1.92386	0.388135
N	-0.342272	-1.339705	0.708436
O	-0.945014	-2.207932	0.086848
O	0.081379	-1.440969	1.852976
C	0.232735	-1.068355	-2.359939
H	-0.167544	-1.0037	-3.373398
H	1.303559	-0.858662	-2.397134
H	0.072923	-2.079474	-1.992571
C	-0.298284	1.283478	-2.01426
N	-0.096038	2.347243	-2.470583
Cl	-3.536146	0.0	0.0
