14
Coordinates from ORCA-job run
  C   0.68645958850669      0.28623845998465      0.08150912695520
  C   -0.54206877456106      0.50428012471575     -0.81587751741000
  Cl  2.06959865819758      1.15597882402701     -0.66998925511350
  H   -0.32607694653035      0.02501515425206     -1.77443146379572
  H   -0.64788531520531      1.58128996155407     -0.99779188171722
  C   1.03970950606062     -1.18501639709928      0.23236028523279
  H   1.26996002524935     -1.60032123352062     -0.75102693117371
  H   1.90892208003865     -1.30848790932319      0.87916574524812
  H   0.18291400558907     -1.70999235241702      0.65452190010340
  C   0.42623325692483      0.89344424456935      1.38811455558618
  N   0.15671809412260      1.36646883667537      2.42919582830115
  N   -1.69966596410029     -0.12854082857327     -0.20346774459112
  H   -2.38243616420134     -0.37970410407769     -0.90520898392336
  H   -2.14338205009104      0.50034721923281      0.45392633629778
