14
Coordinates from ORCA-job run
  C   0.49954701635120      0.11842333051861      0.21235804738202
  C   -0.79382015239831     -0.03036274994543     -0.59020280767437
  Cl  1.45629210312422      1.46851309543140     -0.50773192083973
  H   -1.33448482132373     -0.88240223800295     -0.16552588011140
  H   -0.50312168545204     -0.29371507703520     -1.61808872810011
  C   1.34473699152728     -1.14731585489358      0.16029626982261
  H   1.57574980120991     -1.39224549768132     -0.87801611697542
  H   0.79304938078780     -1.97538794107027      0.61254103930105
  H   2.27887060212104     -1.00792982541285      0.70466710087078
  C   0.19411783665525      0.47358139478800      1.59844611555988
  N   -0.02934207755079      0.68070281140725      2.73252543255366
  N   -1.62327961986208      1.15178730009219     -0.46655998668225
  H   -2.57706188276338      0.94512555023682     -0.72961236103509
  H   -1.28125349242637      1.89022570156733     -1.06709620407166
