14
Coordinates from ORCA-job run
  C   0.69705152158438      0.25489771759241      0.09512434438147
  C   -0.51152075693354      0.54704483040881     -0.80812511694591
  Cl  2.12345327346361      1.08374996666235     -0.62083769107530
  H   -0.30545288223126      0.08422169822850     -1.77694121349395
  H   -0.57065887004427      1.63190801896613     -0.96272115410290
  C   0.98656572819927     -1.23320978153880      0.21238521118959
  H   1.21058421681197     -1.63334100194093     -0.77869829816950
  H   1.84228633802303     -1.40917660312394      0.86497214386651
  H   0.10372062881805     -1.73198771951009      0.61206671000153
  C   0.44878592712111      0.83996383666579      1.41412489639184
  N   0.18856182435492      1.29827821604388      2.46414765632170
  N   -1.70108065647480     -0.05241193202452     -0.22391696165832
  H   -2.38562817695670     -0.25718723797467     -0.93875527734235
  H   -2.12566811573581      0.57724999154507      0.44517475063557
