14
Coordinates from ORCA-job run
  C   0.68469562114201      0.28977648027098      0.08506992374080
  C   -0.53610165153885      0.49337239712413     -0.82609932542483
  Cl  2.07149425682824      1.15635764213063     -0.66328565900506
  H   -0.30876166071693      0.00604909941722     -1.77801769308201
  H   -0.64502835229097      1.56810593157684     -1.01946180275888
  C   1.04192947932217     -1.17831103107001      0.25582568222743
  H   0.18293564314890     -1.70183383138887      0.67528184343058
  H   1.90509021820184     -1.29093979145312      0.91262744248319
  H   1.28351586576192     -1.60377539580521     -0.72045315188681
  C   0.41005532211091      0.91058209187091      1.38231196832099
  N   0.12962747588648      1.39461224510558      2.41545991664544
  N   -1.69697002519740     -0.13876529794068     -0.21905698245029
  H   -2.15057111526232      0.49459866091806      0.42704745394321
  H   -2.37091107739601     -0.40082920075646     -0.92524961618374
