18

C	-0.164103	-0.018633	-1.514353
C	0.0	0.0	0.0
Br	-2.068052	-0.045178	-2.093678
H	1.112103	0.0	0.0
N	0.409803	1.197674	-2.048418
H	1.370599	1.238197	-1.704125
H	0.441111	1.135553	-3.060496
N	0.403169	-1.274224	-1.989941
H	0.340199	-1.313796	-3.002115
H	1.391788	-1.254978	-1.727188
N	-0.568104	-1.201811	0.609637
H	-0.371131	-1.974776	-0.017433
H	-0.045202	-1.376939	1.460701
C	-0.538714	1.239302	0.680809
H	-0.11521	2.146946	0.251959
H	-0.282451	1.203603	1.743961
H	-1.627484	1.26305	0.5895
Br	3.589701	0.0	0.0
