18

C	-0.382296	-0.058576	-1.485265
C	0.0	0.0	0.0
Br	-0.102132	1.796844	-2.346709
H	1.102408	0.0	0.0
N	0.498399	-0.99157	-2.100265
H	1.468058	-0.768383	-1.870991
H	0.38674	-1.007973	-3.106945
N	-1.7776	-0.324137	-1.651438
H	-1.977463	-0.6076	-2.603221
H	-1.986108	-1.080705	-1.004509
N	-0.492883	-1.281476	0.565528
H	-0.28959	-1.263791	1.559674
H	0.093132	-2.01153	0.17053
C	-0.5892	1.153375	0.779954
H	-1.672664	1.192816	0.644353
H	-0.366679	1.022146	1.843783
H	-0.151249	2.098363	0.464123
Br	3.630776	0.0	0.0
