18

C	-0.374424	-0.044871	-1.489053
C	0.0	0.0	0.0
Br	-0.10947	1.83027	-2.326672
H	1.099406	0.0	0.0
N	0.520526	-0.955594	-2.110082
H	0.423899	-0.955557	-3.117732
H	1.48522	-0.732258	-1.862338
N	-1.766062	-0.322112	-1.66805
H	-1.969184	-1.084807	-1.025371
H	-1.950516	-0.608768	-2.621779
N	-0.491836	-1.288158	0.550657
H	-0.330339	-1.264667	1.552834
H	0.120631	-2.010672	0.181857
C	-0.59352	1.144477	0.789364
H	-1.677795	1.17847	0.657134
H	-0.366751	1.007729	1.851747
H	-0.162933	2.094203	0.478147
Br	3.628788	0.0	0.0
