18

C	-0.331183	-0.003371	-1.505141
C	0.0	0.0	0.0
Br	-0.072162	-1.928223	-2.229799
H	1.097033	0.0	0.0
N	-1.741638	0.23049	-1.762118
H	-1.966104	-0.028022	-2.71597
H	-1.885385	1.232103	-1.666958
N	0.540376	0.887752	-2.160824
H	0.476565	0.824335	-3.168809
H	1.505324	0.750352	-1.855883
N	-0.532776	-1.100463	0.778437
H	-1.465819	-1.307007	0.436002
H	0.038625	-1.918462	0.60977
C	-0.481285	1.316107	0.609489
H	-0.139566	2.175995	0.030396
H	-1.573897	1.329844	0.685776
H	-0.071093	1.382967	1.617896
Br	3.623846	0.0	0.0
