18

C	-0.431671	0.009159	-1.46716
C	0.0	0.0	0.0
Br	0.128873	-1.857094	-2.231032
H	1.098427	0.0	0.0
N	-1.81906	0.194529	-1.596983
H	-2.290854	-0.4439	-0.965621
H	-2.11302	0.042391	-2.552865
N	0.275343	0.922664	-2.312927
H	-0.02133	1.860673	-2.06704
H	1.273547	0.831099	-2.132509
N	-0.627382	-1.119204	0.710956
H	-0.152377	-1.9692	0.424176
H	-0.424831	-1.00186	1.698362
C	-0.431731	1.297387	0.68056
H	0.018326	1.333664	1.677007
H	-1.518105	1.358057	0.770053
H	-0.065182	2.170125	0.13857
Br	3.638143	0.0	0.0
