18

C	-0.586742	0.023475	-1.416429
C	0.0	0.0	0.0
Br	0.158387	1.674028	-2.400038
H	1.092614	0.0	0.0
N	-0.155452	-1.110685	-2.138988
H	-0.761969	-1.327847	-2.917955
H	-0.104249	-1.878884	-1.477382
N	-2.021238	0.161607	-1.353224
H	-2.404009	0.089619	-2.290081
H	-2.26336	1.083757	-1.00835
N	-0.36449	-1.310784	0.566832
H	0.330804	-1.555806	1.261393
H	-1.276426	-1.265394	1.005798
C	-0.461979	1.165788	0.868142
H	0.081691	1.125718	1.814818
H	-0.243945	2.128421	0.402145
H	-1.53421	1.10279	1.090002
Br	3.64916	0.0	0.0
