13

C	-0.395708	0.000561	-1.477306
C	0.0	0.0	0.0
Cl	-0.920782	1.71663	-1.896701
H	1.089039	0.0	0.0
H	-1.29479	-0.589232	-1.650448
H	-0.393789	0.811609	0.604439
N	0.64424	-0.428837	-2.347001
H	1.545198	-0.308956	-1.880478
H	0.515212	-1.40739	-2.556955
N	-0.407819	-1.249492	0.635731
O	-0.474085	-2.269504	-0.0679
O	-0.585431	-1.244331	1.858382
H	2.699261	0.0	0.0
