13

C	-0.458466	-0.036392	-1.426434
C	0.0	0.0	0.0
Cl	-2.405547	-0.168643	-1.424253
H	1.092113	0.0	0.0
H	-0.21655	-1.014377	-1.839392
H	-0.357285	-0.868145	0.547376
N	0.006744	0.984934	-2.240833
H	-0.36215	0.955594	-3.177269
H	-0.082726	1.889655	-1.803427
N	-0.432808	1.167043	0.744616
O	-0.72896	1.01588	1.937013
O	-0.374312	2.278508	0.191193
H	2.615721	0.0	0.0
