13

C	-0.511424	0.06663	-1.421865
C	0.0	0.0	0.0
Cl	-0.21156	-1.568282	-2.233229
H	1.086614	0.0	0.0
H	0.16983	0.731766	-1.958647
H	-0.353659	0.894057	0.523365
N	-1.858976	0.513602	-1.550552
H	-2.457079	-0.095841	-1.002826
H	-2.151982	0.487381	-2.519009
N	-0.573035	-1.146597	0.754689
O	0.167179	-1.810373	1.472146
O	-1.79099	-1.348386	0.644824
H	2.861538	0.0	0.0
