13

C	-0.555418	0.01684	-1.420289
C	0.0	0.0	0.0
Cl	-0.325156	-1.583242	-2.197347
H	1.087843	0.0	0.0
H	0.078854	0.708587	-1.979663
H	-0.347462	0.919166	0.48128
N	-1.941914	0.407331	-1.576034
H	-2.00519	1.399714	-1.375769
H	-2.486236	-0.074908	-0.868079
N	-0.600675	-1.094164	0.784227
O	-1.752985	-0.907119	1.215529
O	0.036413	-2.129454	0.954438
H	2.833746	0.0	0.0
