13

C	-0.295143	-0.036996	-1.483365
C	0.0	0.0	0.0
Cl	-2.078663	0.072217	-1.818442
H	1.092346	0.0	0.0
H	-0.011383	-1.040582	-1.808035
H	-0.390536	-0.860896	0.538964
N	0.417528	0.912393	-2.300329
H	0.219297	1.830191	-1.920021
H	1.403591	0.736185	-2.086802
N	-0.462601	1.186376	0.705458
O	-0.809331	1.053892	1.884269
O	-0.413259	2.279656	0.127043
H	2.682373	0.0	0.0
