17

C	0.0	0.0	0.0
C	-0.52174	-0.085148	-1.443311
Br	1.955594	0.0	0.0
H	-1.62147	-0.18252	-1.260238
N	-0.604647	1.159156	0.566531
H	-1.65095	0.911367	0.450639
H	-0.416185	1.166852	1.565632
C	-0.311202	-1.233196	0.765329
N	-0.466579	-2.146863	1.491217
N	-0.083228	-1.346601	-2.10841
O	-0.636498	-2.388085	-1.750638
O	0.784179	-1.28522	-2.98453
C	-0.170957	1.119452	-2.283014
H	-0.689951	1.060861	-3.242664
H	-0.493977	2.012707	-1.750732
H	0.901073	1.173355	-2.472527
H	-2.89498	0.0	0.0
