17

C	0.0	0.0	0.0
C	-0.598963	0.016702	-1.398878
Br	1.963914	0.0	0.0
H	-1.711361	-0.134443	-1.106257
N	-0.529132	1.152451	0.676647
H	-1.566309	0.984003	0.591025
H	-0.298081	1.076405	1.663302
C	-0.322923	-1.235908	0.754762
N	-0.530427	-2.11118	1.513527
N	-0.168728	-1.126957	-2.224227
O	0.098104	-2.190397	-1.657417
O	-0.163086	-0.984807	-3.452821
C	-0.424539	1.323689	-2.135946
H	0.627428	1.507237	-2.371912
H	-0.793626	2.130458	-1.506057
H	-0.992202	1.298069	-3.065236
H	-2.8699	0.0	0.0
