17

C	0.0	0.0	0.0
C	-0.641872	-0.023764	-1.371315
Br	1.948636	0.0	0.0
H	-1.775352	-0.13636	-0.990883
N	-0.496587	1.187663	0.65397
H	-1.530981	1.045467	0.605537
H	-0.235853	1.142178	1.634887
C	-0.330063	-1.201392	0.809091
N	-0.535087	-2.037233	1.611913
N	-0.273494	-1.19713	-2.158685
O	-0.368728	-1.122056	-3.393815
O	0.048779	-2.233718	-1.56296
C	-0.485907	1.249736	-2.167169
H	0.552071	1.397444	-2.480224
H	-0.792426	2.091564	-1.550054
H	-1.113894	1.204749	-3.056087
H	-2.83277	0.0	0.0
