17

C	0.0	0.0	0.0
C	-0.534933	-0.03207	-1.447256
Br	1.965255	0.0	0.0
H	-1.613089	-0.281857	-1.240465
N	-0.534396	1.088799	0.757539
H	-0.325342	1.958573	0.277752
H	-1.572507	0.904034	0.685979
C	-0.342932	-1.236737	0.73554
N	-0.505047	-2.191593	1.401972
N	0.077243	-1.128111	-2.238896
O	-0.058157	-2.271805	-1.801758
O	0.672817	-0.851916	-3.286224
C	-0.446376	1.292036	-2.166609
H	0.559338	1.717053	-2.134848
H	-1.163992	1.978878	-1.717318
H	-0.723939	1.157703	-3.211523
H	-2.881842	0.0	0.0
