17

C	0.0	0.0	0.0
C	-0.537952	-0.075913	-1.447746
Br	1.960804	0.0	0.0
H	-1.629163	-0.20925	-1.243941
N	-0.576483	1.084806	0.724995
H	-1.616064	0.860963	0.651213
H	-0.404676	1.94753	0.219185
C	-0.349168	-1.241271	0.721944
N	-0.571006	-2.219605	1.333312
N	-0.054613	-1.292655	-2.153659
O	0.923072	-1.19154	-2.900896
O	-0.670328	-2.339319	-1.945639
C	-0.267096	1.153348	-2.283748
H	-0.829465	1.997192	-1.881944
H	-0.621505	0.979588	-3.30145
H	0.795833	1.395106	-2.328498
H	-2.949102	0.0	0.0
