16
Coordinates from ORCA-job run
  C   -0.68563064852082      0.09589823685695     -0.49001804813125
  C   0.71747558799300     -0.41108901196489     -0.16709112362533
  Cl  -1.00608047007257     -0.39048312463029     -2.18558202925830
  H   0.78216983412502     -1.48619616798360     -0.32476217283099
  C   -1.71147290251181     -0.58738277277625      0.41506005526895
  H   -1.58980477650225     -0.25993792623007      1.44879230092958
  H   -2.71191273416934     -0.31596134954837      0.07798516909958
  H   -1.59844166938723     -1.67129673014599      0.36250455478249
  C   -0.81976312412367      1.54618088979934     -0.36533085561293
  N   -1.04314679375158      2.68805618968756     -0.20031218260263
  N   1.04925072855500     -0.15206207884230      1.27616406919850
  O   0.87453333842162     -1.09427364655503      2.04145857720976
  O   1.42727313058970      0.98042888256982      1.55574450965333
  N   1.82695885430200      0.21188524815262     -0.96845795442770
  O   1.60330542144871      1.24894353739761     -1.57679438829438
  O   2.88728622360423     -0.40171017578711     -0.90036048135868
