16
Coordinates from ORCA-job run
  C   -0.66528449993624      0.03698952525204     -0.44740373855180
  C   0.69104858068238      0.17121928228582      0.25547542211741
  Cl  -0.58335597037413     -1.10962797954558     -1.81080352964812
  H   0.58738306075930      0.77665185368899      1.15683819196368
  C   -1.73713796778425     -0.44897485296706      0.53170799903616
  H   -2.69910593529737     -0.45232890514686      0.01914130144729
  H   -1.79426484131378      0.21915567770043      1.39394819201912
  H   -1.51306063677814     -1.45804779740121      0.87316915385778
  C   -1.04041268150386      1.36527895277321     -0.93760705430779
  N   -1.40204387886138      2.43835650657322     -1.25196683847637
  N   1.77922127858942      0.82073353379064     -0.55613391635218
  O   2.78328034635164      1.08414381982764      0.09619203789718
  O   1.58944573088932      1.02438838516375     -1.74747144352450
  N   1.21868129165022     -1.16610666953535      0.69746921023089
  O   2.00710326616695     -1.73525904484819     -0.04467575475347
  O   0.77950285675992     -1.56557228761148      1.77112076704471
