16
Coordinates from ORCA-job run
  C   -0.71127140363006      0.41065885184426     -0.38624781372229
  C   0.82414545031190      0.30358240601847     -0.27442598304447
  Cl  -1.09755391720028      0.86667040790144     -2.07972436600093
  H   1.30723370316574      1.09768339563033     -0.84441524795546
  C   -1.49906765771143     -0.83856212860594     -0.00392971946566
  H   -1.27188255595536     -1.64856935310736     -0.69412166989336
  H   -2.56311767310411     -0.60956438967117     -0.06897319629414
  H   -1.25551177884950     -1.13312023368632      1.01632597170659
  C   -1.11053686536156      1.54071204392475      0.45714641823039
  N   -1.42862653842309      2.43566300576593      1.14973942663720
  N   1.39846643260276     -1.00173200756171     -0.77925241758671
  O   2.40680567126316     -1.40056545133050     -0.21189650175646
  O   0.85216339505804     -1.49876320152087     -1.75404464172145
  N   1.27521686833342      0.45424707943228      1.14764440010891
  O   2.06097580253957      1.36815286936915      1.37107701404835
  O   0.81356106696078     -0.34549329440273      1.95409832670949
