16
Coordinates from ORCA-job run
  C   -0.69063728445092      0.22189348636132     -0.44077583649081
  C   0.66461257300117     -0.45536073442658     -0.25519089060882
  Cl  -1.13210775548690     -0.02332791125659     -2.16083462472316
  H   0.61356146258798     -1.50130177014081     -0.55251529851922
  C   -1.74110244149651     -0.46260411167560      0.43470496874762
  H   -1.74261810786905     -1.53812335447615      0.25092516401674
  H   -2.72194701979948     -0.05674099713134      0.18699332093092
  H   -1.54211841452605     -0.27511566582733      1.49113575051185
  C   -0.67056825267213      1.65298334371864     -0.14314825578007
  N   -0.77631014693652      2.78499834452012      0.15406639822874
  N   1.07162581338644     -0.42202302706539      1.19123578825384
  O   1.54685319115733      0.63245710737380      1.59882643288531
  O   0.85415134165905     -1.44398198382435      1.83301314275087
  N   1.80399321011202      0.15914248940730     -1.02200764794936
  O   1.65300870900352      1.26879975384584     -1.51300367887892
  O   2.80960312233006     -0.54269496940288     -1.05242473337552
