16
Coordinates from ORCA-job run
  C   -0.65252441071549      0.06516057701567     -0.46232628157958
  C   0.68318194781324      0.15413869006812      0.28567105501366
  Cl  -0.52988587723104     -0.99227882153032     -1.89297472630866
  H   0.55322592169068      0.69757347536501      1.22247698919065
  C   -1.75087660557836     -0.48222677283274      0.45295805856571
  H   -1.83410332771924      0.13015466744260      1.35355629273751
  H   -2.69766183222873     -0.45327194041342     -0.08637481418349
  H   -1.53473174343565     -1.51082867542453      0.73616489555630
  C   -1.01632388478039      1.42217057314773     -0.87658550015488
  N   -1.37300338739243      2.51305237934638     -1.12931564659528
  N   1.79171271152751      0.85701767698468     -0.45041172745546
  O   1.63604474772247      1.13483708497012     -1.63172454672011
  O   2.77558398736276      1.08027775605225      0.24612376404762
  N   1.20280820940097     -1.20933822876934      0.65251824959727
  O   2.01496405992473     -1.72590658900921     -0.10225584875381
  O   0.73358948363898     -1.68053185241299      1.68349978704256
