16
Coordinates from ORCA-job run
  C   -0.68413819306338      0.18900423303511     -0.43480627934344
  C   0.66189091701249     -0.47154101827506     -0.14152412611098
  Cl  -0.99850876120877     -0.14915497179738     -2.17375301866512
  H   0.61877866171637     -1.53938550362648     -0.35078724515323
  C   -1.79567808180080     -0.46021942258355      0.38718294441508
  H   -1.66726092767405     -0.23025746092747      1.44425608145113
  H   -1.78730682517873     -1.54101962351779      0.23136252379697
  H   -2.75714062740254     -0.06853439965347      0.05448601251333
  C   -0.68342359000545      1.63881564053710     -0.25303259819114
  N   -0.78890258421329      2.80268717877415     -0.12921416576356
  N   1.12010117934941     -0.31752035756313      1.28480418285727
  O   0.57327766939123      0.52436805104619      1.98763722209138
  O   2.04316817813321     -1.06116909643186      1.59916904946530
  N   1.78090167793275      0.09130645218692     -0.97309582134289
  O   2.09958613694454      1.24875276693729     -0.72173074772836
  O   2.26665517006701     -0.65713246814058     -1.81195401429174
