16
Coordinates from ORCA-job run
  C   -0.70791981375868      0.14642730330025     -0.41261382967717
  C   0.70157645880543     -0.39547076199043     -0.18023442776026
  Cl  -1.02494008105936     -0.11780945944836     -2.16404714096164
  H   0.75806498999142     -1.44773845931187     -0.45495789648594
  C   -1.73411748111027     -0.65555364323371      0.38510881184841
  H   -1.62424101225689     -1.71931476519531      0.16416264988068
  H   -2.73563402119914     -0.34118653247232      0.09076052585895
  H   -1.60690400574783     -0.47646725915834      1.45211211598085
  C   -0.84331341511621      1.57620503360941     -0.14380349294641
  N   -1.05853220917339      2.71398707498680      0.05677810922899
  N   1.17144279414698     -0.28398659170303      1.24609170399681
  O   2.16773114131759     -0.95227436810724      1.50051296272229
  O   0.56142225662797      0.45787696322368      2.00720022960449
  N   1.74323507429626      0.32427216283830     -0.99137455787072
  O   1.95660857407333      1.48839332598426     -0.66923641781703
  O   2.27752075016279     -0.31836002332211     -1.88645934560228
