16
Coordinates from ORCA-job run
  C   -0.66509079134115      0.45580977447229      0.02463336070161
  C   0.68792285520297     -0.21111394558769      0.31766534790249
  Cl  -0.45436149319777      1.96220160584251     -0.91003254110864
  H   0.58462118357951     -0.92846829874427      1.13303325930879
  C   -1.58979009487551     -0.49902210703570     -0.73388980796133
  H   -1.67627258893663     -1.44593299292010     -0.19362414508818
  H   -1.20641389387380     -0.67612334640723     -1.73738070731581
  H   -2.57887053068901     -0.04740902694525     -0.80813468727587
  C   -1.29382987474833      0.79547782125054      1.30411962109949
  N   -1.87563005922659      1.01007243383554      2.30246849673660
  N   1.72903806110958      0.78876838019760      0.76548766856740
  O   1.42819247717182      1.39925659322675      1.78126296789827
  O   2.75200734409727      0.88742290552623      0.10459131873201
  N   1.24265699059208     -0.97328232053567     -0.84261945918475
  O   1.71851443584730     -2.07171692130241     -0.56239478009521
  O   1.19930597928775     -0.44694055487340     -1.94718591291677
