16
Coordinates from ORCA-job run
  C   -0.61522824197165      0.48320490461761     -0.17922772124307
  C   0.61826067076695     -0.25714042062236      0.35150016484957
  Cl  -0.18734085185174      1.59896959150328     -1.50300544654532
  H   0.31692802485153     -1.01980089115046      1.07075355353221
  C   -1.66026897825294     -0.50768795780485     -0.69851419917618
  H   -2.55139376197749      0.04888633130666     -0.98872060381177
  H   -1.92506204940518     -1.22418322838221      0.08230616117679
  H   -1.27912977795863     -1.04526673649549     -1.56500370004459
  C   -1.19139484822199      1.23552754313153      0.93769260882638
  N   -1.72319354170878      1.76598088874446      1.84159107696782
  N   1.63279159802251      0.60012464658184      1.05980981206664
  O   2.50304268569983     -0.04601568879921      1.63251352025064
  O   1.51802069307933      1.81714028442187      1.01146765322224
  N   1.34892835443652     -0.97377395026014     -0.75040433050251
  O   2.29758014737980     -0.39865638227531     -1.26590335893250
  O   0.89645987711193     -2.07730893451722     -1.03785519063636
