16
Coordinates from ORCA-job run
  C   -0.65286649346776     -0.00148644763445     -0.46694065490582
  C   0.68098398060348      0.19747134663941      0.26292908079537
  Cl  -0.51714324492006     -1.23121065351902     -1.75144333265777
  H   0.54379984608040      0.85777399066531      1.12022587550211
  C   -1.74551685172232     -0.44042608091220      0.51134643793618
  H   -1.51764841792858     -1.42215368026018      0.92282064401495
  H   -2.69232984049492     -0.49095322961189     -0.02632229092349
  H   -1.83613313768978      0.28020616202727      1.32719479764856
  C   -1.03131077293853      1.28725588975979     -1.05112391955217
  N   -1.39830385138758      2.33285156536056     -1.44242144439347
  N   1.78343721028694      0.80988658884064     -0.55844660366728
  O   2.76542626473519      1.12832596988399      0.10278959085372
  O   1.62440629984949      0.93525926511213     -1.76498689088225
  N   1.21332760844187     -1.10092864528961      0.80463701303059
  O   2.02922656365272     -1.70491591711446      0.12212987974502
  O   0.74964483689946     -1.43695612394727      1.88961181745575
