16
Coordinates from ORCA-job run
  C   -0.65258992371288      0.44390084087066     -0.14690803375674
  C   0.66082164320946     -0.20690208931035      0.30378249645405
  Cl  -0.40859943857581      1.48819058630772     -1.57143804543936
  H   0.46732246259755     -0.93268199420491      1.09470459856123
  C   -1.69251898233871     -0.62277506585418     -0.49933229524788
  H   -1.84536399664345     -1.29784672403747      0.34568959668193
  H   -1.37060950651113     -1.19889717523266     -1.36507610410434
  H   -2.63358821606608     -0.12491957686071     -0.73294640929653
  C   -1.15498811506873      1.24165884290177      0.97414895800737
  N   -1.62143038352241      1.80745065163206      1.89254717700573
  N   1.69542165891776      0.73779748808096      0.85463604576309
  O   2.64683615769801      0.16855688111152      1.37771664326716
  O   1.51697247749370      1.94293752713393      0.74342063968752
  N   1.31635940677256     -0.96315761457369     -0.81880387969565
  O   0.89455805075219     -2.10243656393493     -0.98964342409047
  O   2.18039670499798     -0.38287601402973     -1.46149796379712
