16
Coordinates from ORCA-job run
  C   -0.71083202233180      0.43509134594730     -0.33530175211574
  C   0.81565691629179      0.36902620483304     -0.17376421212437
  Cl  -0.98386650832869      0.86474292751097     -2.06152745980418
  H   1.28774616139531      1.27607335103022     -0.54952579061932
  C   -1.48768063389292     -0.83901505180721     -0.02558276684553
  H   -1.18587811434968     -1.63940775114682     -0.69906841780201
  H   -2.54858241598701     -0.63602736580095     -0.17587904404781
  H   -1.31939728217655     -1.14401075134627      1.00521552069693
  C   -1.18528450984197      1.55933653696259      0.47336429316569
  N   -1.57650297453751      2.47106128405205      1.10346192691147
  N   1.41178194479469     -0.78420414893113     -0.92861821030113
  O   1.26653119505163     -1.89183232245474     -0.42003881433598
  O   1.98547860203741     -0.51382448452605     -1.97623636815642
  N   1.28334032026434      0.19770332000038      1.25033474420361
  O   0.45126081528584     -0.00127908247088      2.12676667180941
  O   2.49822850632514      0.27756598814752      1.38539967936539
