16
Coordinates from ORCA-job run
  C   -0.64869740067861      0.44071107164654     -0.17101771063947
  C   0.64088841110545     -0.21264944661723      0.34021571441890
  Cl  -0.32237940353178      1.56357937929198     -1.51755535289280
  H   0.40438743188502     -0.98424177115301      1.07402264866456
  C   -1.63942114642107     -0.62158425431423     -0.65442724979267
  H   -1.24354273067813     -1.14629088740238     -1.52217851230171
  H   -2.57015096087103     -0.12671034786484     -0.93186945000175
  H   -1.84144737818206     -1.34197087956349      0.14140437010768
  C   -1.24689494679796      1.16965589539906      0.94976863521568
  N   -1.79062197093313      1.67708592976877      1.85969363457194
  N   1.61327656281016      0.71613085859517      1.01634137877128
  O   2.53396316739975      0.13375760125670      1.57851991905160
  O   1.42189512865711      1.92285418161582      0.95385280215145
  N   1.39258453373877     -0.89460012829691     -0.76964236453054
  O   2.29140534203855     -0.26653179870605     -1.31186212657965
  O   1.00575536045894     -2.02819540365590     -1.03526633621449
