16
Coordinates from ORCA-job run
  C   -0.69293735486485      0.43824314675647     -0.38873169547922
  C   0.83631368554719      0.28122807478154     -0.26241305021949
  Cl  -1.04534917737609      0.92296346452295     -2.08099613021410
  H   1.35047343792994      1.07520567435241     -0.80486675423216
  C   -1.52712465363672     -0.78643233451737     -0.02430569467344
  H   -1.31956727900227     -1.59911802996710     -0.71711946499359
  H   -1.30512242638052     -1.09637515849995      0.99631257038368
  H   -2.58178571966910     -0.52003128122989     -0.09886075442965
  C   -1.06492478689294      1.57075152411242      0.46433967836506
  N   -1.37695427677793      2.45747710630231      1.17002074362260
  N   1.38468580203864     -1.02574678246606     -0.79185351772051
  O   0.80825336924967     -1.51991365155490     -1.75071580123411
  O   2.41000044602971     -1.42712456764756     -0.25783893438522
  N   1.27222344977682      0.38300484400653      1.16939809311249
  O   0.80451012445171     -0.44681455119593      1.94165962855988
  O   2.04830483670454      1.29368251808460      1.43497085128173
