16
Coordinates from ORCA-job run
  C   -0.68969905979787      0.45535543077850     -0.35222354360847
  C   0.82609725748996      0.36838853300383     -0.11753049983372
  Cl  -0.87231863764227      0.95753749387398     -2.07093036577958
  H   1.32329045114396      1.28527090316264     -0.43207702474016
  C   -1.49051290844630     -0.82305194153633     -0.13460796752890
  H   -2.54120251618002     -0.60354599832103     -0.32720676551123
  H   -1.37487651241608     -1.17281957268728      0.88920749228232
  H   -1.16233715790368     -1.59719708592638     -0.82622250191882
  C   -1.19624578745857      1.55011472025780      0.47710203603033
  N   -1.61234165519732      2.43874510190915      1.12400654733888
  N   1.45024168033379     -0.75947498705290     -0.88799807450866
  O   1.27049958398314     -1.88500255810863     -0.43254947368954
  O   2.07797653325545     -0.45315701688459     -1.89385782305893
  N   1.22030390741575      0.13487655767164      1.31981285613843
  O   0.34367791571854     -0.09278939060830      2.14441801405828
  O   2.42744690570152      0.19774981046789      1.51865709432977
