16
Coordinates from ORCA-job run
  C   -0.67234308191486      0.51147851812146     -0.30661577636191
  C   0.84060503866798      0.33832725966486     -0.10319201055728
  Cl  -0.85342306347788      1.14821800435470     -1.98004752149688
  H   1.37625763029134      1.25227205120619     -0.35728272706700
  C   -1.52861121254087     -0.74208310937723     -0.17081146514152
  H   -1.41673215998768     -1.17130315428883      0.82277567099209
  H   -2.57039138855314     -0.46174826650102     -0.33011966608862
  H   -1.24519388012330     -1.47723511640054     -0.92216158401997
  C   -1.11702850757414      1.56292543427922      0.60983535210229
  N   -1.48327136733205      2.41842441198727      1.32761900368634
  N   1.40203340014434     -0.75632055908823     -0.96488311127411
  O   1.17668687209568     -1.90336819706533     -0.59086048242290
  O   2.02987808932226     -0.40451722081374     -1.95565831257955
  N   1.24163069348554     -0.01970381130471      1.30642893657176
  O   2.45285264166519     -0.02789525104565      1.48945404182312
  O   0.36605029583160     -0.26647099372840      2.12651965183415
