16
Coordinates from ORCA-job run
  C   -0.69169881256594      0.19095473309611     -0.42238705364116
  C   0.65950669288325     -0.47079270830660     -0.15574384258715
  Cl  -1.03696077863455     -0.13938964315360     -2.15704600754679
  H   0.61344977487448     -1.53708607841312     -0.37214513276627
  C   -1.78842912570390     -0.46214702776347      0.41616889059269
  H   -1.78140608021813     -1.54237833500378      0.25638381357176
  H   -1.64251911501489     -0.23559593424259      1.47169416443300
  H   -2.75583714517441     -0.07055720110682      0.10111001311592
  C   -0.68744456498309      1.63995620964338     -0.23459403787810
  N   -0.79071311760680      2.80290396005663     -0.10080661118848
  N   1.14084970984434     -0.32688215637605      1.26370527380193
  O   0.60786959302112      0.51214441078903      1.98045468941293
  O   2.06770318278060     -1.07412158489376      1.55799181727705
  N   1.76397547157915      0.09923178003213     -1.00188601082681
  O   2.23225915780961     -0.64059357203328     -1.85808832877727
  O   2.08939515710917      1.25335314767577     -0.74381163699324
