16
Coordinates from ORCA-job run
  C   -0.70765945120661      0.40865295701835     -0.37202465061257
  C   0.82078528991092      0.32430429950277     -0.23451587174752
  Cl  -1.03204238504646      0.65685920144907     -2.11921615563544
  H   1.28817828555374      1.25677076583856     -0.54573164679069
  C   -1.51299239714906     -0.77581924159256      0.15239972989605
  H   -1.24293987961922     -1.68430196405369     -0.37754278928911
  H   -1.33340210351313     -0.90824388191603      1.22072576832782
  H   -2.57138022521668     -0.56178160839270     -0.00024249969907
  C   -1.12187514383376      1.62713527534896      0.32914994618250
  N   -1.48201914197574      2.58313653132442      0.91068811156248
  N   1.49126151477976     -0.76221806385144     -1.02720511479654
  O   0.85521744919519     -1.76156015417480     -1.33239407428873
  O   2.67568109524313     -0.53951150783946     -1.26087072124958
  N   1.20774955026386      0.09575192668648      1.20450086179806
  O   1.43782959917063      1.10760036887994      1.85675678046643
  O   1.22760794344343     -1.06677490422788      1.59352232587591
