16
Coordinates from ORCA-job run
  C   -0.66028368449109      0.51946137292610     -0.31852837361549
  C   0.84349346318508      0.34070277369172     -0.05983393099523
  Cl  -0.77482471080895      1.20223228227471     -1.97970839263075
  H   1.38739749576981      1.26205965316555     -0.26530184318278
  C   -1.52057476474106     -0.73688921659135     -0.25177167419078
  H   -2.55507232054680     -0.45176882084843     -0.44617165500086
  H   -1.20596077941135     -1.45156956100390     -1.01041708960159
  H   -1.44933670814867     -1.19295124240436      0.73359348412079
  C   -1.14150132183378      1.54563952738551      0.60803407504724
  N   -1.53604002417131      2.38156000632786      1.33389628814294
  N   1.44080355564671     -0.72792874784582     -0.92986146176563
  O   1.20136351775564     -1.88546915249052     -0.59958525474825
  O   2.10858655248975     -0.34703540245374     -1.88299920915371
  N   1.18845401617692     -0.05792877368853      1.35383663310288
  O   0.28103818417750     -0.32659517330848      2.13152311372697
  O   2.39145752895163     -0.07251952513631      1.58429529074425
