16
Coordinates from ORCA-job run
  C   -0.69579573598002      0.09354533466095     -0.47566632149155
  C   0.71336653985531     -0.41302410778469     -0.17975825194726
  Cl  -1.05313929160089     -0.40307250732243     -2.16087119298905
  H   0.77365230556672     -1.48906549635623     -0.33267670822042
  C   -1.70264349292660     -0.58320109110668      0.45533618510433
  H   -2.70974950707337     -0.31184768921340      0.13869872839457
  H   -1.55810084328429     -0.25064565154388      1.48447625308989
  H   -1.59221057155812     -1.66751733098706      0.40578872385410
  C   -0.82594034288502      1.54469204100851     -0.35716226337767
  N   -1.04643152149705      2.68732526500023     -0.19354164171382
  N   1.07629897878484     -0.14589616647780      1.25443989438903
  O   1.45989480025643      0.98830623973973      1.51920324541409
  O   0.91812382053641     -1.08351625143747      2.02888813453204
  N   1.80620984798626      0.20451255045692     -1.00828930404681
  O   2.86734237953543     -0.40935496386962     -0.95853913646336
  O   1.57012263428396      1.23775982523291     -1.61832634452810
