16
Coordinates from ORCA-job run
  C   -0.63739936573983      0.46271178633151     -0.42842849350295
  C   0.86143896732746      0.26714060111043     -0.15025516071346
  Cl  -0.77813880571051      0.75332110733805     -2.19358349472791
  H   1.42125298577370      1.16611779970482     -0.40163766753920
  C   -1.57014376110610     -0.66691027808705     -0.00277087782818
  H   -1.50424772976467     -0.82245150956860      1.07538090726477
  H   -2.59137574733238     -0.37654252055642     -0.25192373372004
  H   -1.31462270220906     -1.58701350332266     -0.51955249405843
  C   -1.03166040969960      1.69937535520352      0.25199285330745
  N   -1.38331290725014      2.67124664168956      0.81205433291097
  N   1.52438130032537     -0.85724600970075     -0.89600818088016
  O   0.84975272648636     -1.80089994280071     -1.28352282872078
  O   2.73912108517940     -0.72061453858962     -1.00934401276877
  N   1.09225524416753     -0.00339391037666      1.31413734819916
  O   0.98778004518289     -1.16777373137037      1.68369198311438
  O   1.33391907436960      0.98193265299493      2.00176951966316
