16
Coordinates from ORCA-job run
  C   -0.69131111110796      0.48354024990851     -0.30903703343297
  C   0.83161779954807      0.32990561807253     -0.17638788098108
  Cl  -0.96802239653131      0.98235011523332     -2.01600413186258
  H   1.34668275404534      1.22158939598590     -0.53194964411623
  C   -1.53077020806516     -0.75657429059080     -0.02559731226219
  H   -2.58156759363182     -0.49237235305537     -0.14926174352254
  H   -1.28427126760169     -1.54928602436810     -0.73001064171705
  H   -1.36166271829928     -1.10411550081422      0.99155481041557
  C   -1.09154780164884      1.60519394806838      0.54224900041677
  N   -1.42299771968912      2.51635490383844      1.20650834273113
  N   1.35138220528827     -0.82937084748247     -0.97687313342220
  O   1.92092254331131     -0.55745389820374     -2.02635659546717
  O   1.15472382749422     -1.94291716052767     -0.49958545584305
  N   1.31143277834992      0.08776403660142      1.23340661931265
  O   0.48341886795596     -0.09029028664669      2.11824046854470
  O   2.53097004058209      0.09368209398054      1.34910433120623
