16
Coordinates from ORCA-job run
  C   -0.71866182064458      0.40975957920180     -0.35218316675787
  C   0.81294079067319      0.32110974526677     -0.25760705661656
  Cl  -1.09139957143380      0.65845267319681     -2.08976283435251
  H   1.27363673189751      1.25060449406234     -0.58702289561989
  C   -1.51330565950701     -0.77193126304482      0.19437783873143
  H   -2.57476187954275     -0.55484953267807      0.06963820424545
  H   -1.30620440988211     -0.90425759078463      1.25763635961147
  H   -1.26033569571994     -1.68176198523698     -0.34149125503637
  C   -1.10760837585224      1.63032631952380      0.35957598575344
  N   -1.42070719083907      2.59515654168394      0.95362566786273
  N   1.45751198746913     -0.77073026667605     -1.06517668638230
  O   2.63813887062212     -0.55616731811013     -1.32393288586713
  O   0.80745710362727     -1.76427233691317     -1.35873368289788
  N   1.24078025933058      0.09645385244537      1.16979776541966
  O   1.50824042599464      1.10824634184673      1.80778066389962
  O   1.25427843380707     -1.06413925378372      1.56547797800669
