16
Coordinates from ORCA-job run
  C   -0.70424869029049      0.47261645270333     -0.29808001323863
  C   0.82200579763376      0.35868232600085     -0.16471297484544
  Cl  -0.99089589493591      1.01227998099545     -1.99076453167259
  H   1.31289035966023      1.27326325343195     -0.49535056461330
  C   -1.50841821233940     -0.79863676516792     -0.05284587220742
  H   -1.23978984943629     -1.56233434236578     -0.78077759089969
  H   -2.56633979279416     -0.56098054226564     -0.16922062524396
  H   -1.32927019622771     -1.17176691031969      0.95338985684750
  C   -1.13827518503412      1.55707889997259      0.58426969981862
  N   -1.49903830949994      2.43695084562995      1.27492222734716
  N   1.37654544934280     -0.76411452379312     -0.99399784681488
  O   1.94110323366805     -0.44832156555751     -2.03381397865557
  O   1.21028055638685     -1.89502479722876     -0.54694478501393
  N   1.30538614937898      0.09289191601877      1.23943904525714
  O   0.48134921775445     -0.13926783350793      2.11535531127998
  O   2.52371536673291      0.13668360545348      1.36013264265503
