16
Coordinates from ORCA-job run
  C   -0.64929216681787      0.47938783092929      0.00834236203102
  C   0.65674969502715     -0.25492735130101      0.34906420808825
  Cl  -0.32380612593276      2.02679413492856     -0.82021118976794
  H   0.47369741447904     -1.01321481886050      1.11163280442916
  C   -1.55200641757756     -0.39581413018972     -0.86391782287343
  H   -1.70827852888837     -1.36704024152599     -0.38616915727713
  H   -1.10611020787083     -0.53174811167895     -1.84777751442652
  H   -2.51731416693331      0.09665675967290     -0.97908182718927
  C   -1.35074640182868      0.77084421533963      1.26158945118394
  N   -1.99007856287955      0.95165316423657      2.23105053223314
  N   1.70004430938461      0.67652683815493      0.92291341303573
  O   1.35458558443767      1.23407553212343      1.95467713376172
  O   2.76592510791517      0.77793440227324      0.33419347295925
  N   1.26036766261813     -0.97061582014727     -0.81657677648028
  O   1.31887289751115     -0.37565766384893     -1.88530563198299
  O   1.66838990735599     -2.10485474010619     -0.57542345772465
