16
Coordinates from ORCA-job run
  C   -0.68593410240887      0.49631883527747     -0.30064588711241
  C   0.83532803592979      0.32187052904434     -0.17502517339393
  Cl  -0.96154168290425      1.02076548154468     -2.00012452420900
  H   1.36038045040931      1.21113158391459     -0.52177541802260
  C   -1.54031171659358     -0.73663506271022     -0.03059882231273
  H   -1.37141891624256     -1.10072134029063      0.98084185177529
  H   -2.58808152872673     -0.45694542565621     -0.14576899821988
  H   -1.30732333948190     -1.52251707141233     -0.74724104905184
  C   -1.06931825261959      1.61164966033324      0.56656858431757
  N   -1.38771839911198      2.51757976774063      1.24416882301326
  N   1.33789761120690     -0.83399190375827     -0.99139837277196
  O   1.90898851784123     -0.55651438789091     -2.03854527765653
  O   1.12758378582817     -1.95078129796385     -0.52779573826334
  N   1.31661300860029      0.05650228697735      1.22979355522998
  O   2.53646686693194      0.04922953883003      1.34205445389767
  O   0.48938966134181     -0.12594119397992      2.11449199278042
