16
Coordinates from ORCA-job run
  C   -0.68331570970953      0.19607778906485     -0.43285525991470
  C   0.65166861962002     -0.48656180529312     -0.13968042688849
  Cl  -1.01792215390242     -0.16157990578331     -2.16442179468000
  H   0.58616167182331     -1.55608139049930     -0.33401432041836
  C   -1.80110212958746     -0.41888127333103      0.40674471057320
  H   -2.75719165080243     -0.01374635052118      0.07463188839770
  H   -1.66101143635750     -0.17542623787737      1.45931384518329
  H   -1.81476035513221     -1.50186714323743      0.26725911498716
  C   -0.65267770055967      1.64810815129721     -0.27337067962975
  N   -0.73537302425518      2.81506561104216     -0.16201683147403
  N   1.12270887298389     -0.32205692856981      1.28120478718310
  O   0.59846106796530      0.54092566352754      1.97557880700819
  O   2.03241077281320     -1.08027139070976      1.59978190457157
  N   1.77544428973607      0.04325392020129     -0.98657763318526
  O   2.12083545337192      1.19612263676073     -0.74998515810459
  O   2.23766341199270     -0.72408134607145     -1.82159295360904
