16

C	0.0	0.0	0.0
C	-0.554184	0.000843	-1.43526
Br	1.923815	0.0	0.0
H	-1.648275	0.068739	-1.290038
N	-0.366124	1.358643	0.695571
O	-0.193567	1.380066	1.908882
O	-0.803912	2.283834	0.021298
N	-0.532286	-1.083996	0.709904
H	-0.256732	-1.037099	1.68293
H	-1.557567	-1.037724	0.638974
C	-0.254831	-1.300673	-2.034228
N	-0.020508	-2.300226	-2.604489
N	0.004271	1.048094	-2.288807
H	-0.523248	1.893755	-2.116207
H	-0.128421	0.779834	-3.255777
Br	-3.747375	0.0	0.0
