18

C	-0.397807	0.082795	-1.487798
C	0.0	0.0	0.0
Cl	-2.1719	0.446603	-1.644933
H	1.092911	0.0	0.0
C	0.398843	1.102763	-2.29393
H	0.146857	2.110226	-1.976489
H	0.177304	0.984319	-3.356398
H	1.461382	0.928621	-2.099827
C	-0.20896	-1.241582	-2.086732
N	-0.083325	-2.29305	-2.595813
C	-0.524635	-1.214834	0.731465
H	-0.0609	-2.105836	0.306869
H	-0.2362	-1.154111	1.780309
H	-1.610854	-1.295415	0.671766
N	-0.430759	1.258766	0.691245
O	0.074651	2.312239	0.313104
O	-1.258927	1.170978	1.597177
Br	3.425978	0.0	0.0
