18

C	-0.535315	0.017628	-1.448692
C	0.0	0.0	0.0
Cl	0.231583	-1.354302	-2.322873
H	1.090458	0.0	0.0
C	-2.049413	-0.146993	-1.545997
H	-2.344827	-1.11649	-1.146325
H	-2.35808	-0.090707	-2.590395
H	-2.547671	0.640532	-0.978462
C	-0.151324	1.242384	-2.154982
N	0.056942	2.255142	-2.713384
C	-0.46374	-1.187134	0.819514
H	-0.120659	-2.103587	0.33959
H	0.018506	-1.130235	1.797157
H	-1.542172	-1.215405	0.965461
N	-0.452895	1.274328	0.655542
O	-1.516327	1.255478	1.286263
O	0.249491	2.268833	0.498882
Br	3.461968	0.0	0.0
