18

C	-0.533205	0.015111	-1.448714
C	0.0	0.0	0.0
Cl	0.226725	-1.36512	-2.319725
H	1.090474	0.0	0.0
C	-2.049276	-0.138587	-1.548477
H	-2.35143	-1.103182	-1.141839
H	-2.354917	-0.08765	-2.594615
H	-2.542924	0.657661	-0.987379
C	-0.142785	1.236505	-2.158432
N	0.064179	2.242682	-2.730385
C	-0.464869	-1.184951	0.823119
H	-1.54462	-1.213902	0.964189
H	-0.11782	-2.1039	0.34961
H	0.012658	-1.120726	1.802667
N	-0.455736	1.276386	0.649598
O	-1.512128	1.25676	1.290902
O	0.243325	2.271567	0.485278
Br	3.458651	0.0	0.0
