18

C	-0.40111	-0.005616	-1.476643
C	0.0	0.0	0.0
Cl	-2.219721	-0.116585	-1.684988
H	1.092826	0.0	0.0
C	0.08574	1.225419	-2.23066
H	-0.422335	2.114945	-1.85817
H	1.162005	1.327608	-2.066441
H	-0.133216	1.114131	-3.29368
C	0.13765	-1.21951	-2.095202
N	0.564558	-2.196077	-2.593177
C	-0.53626	-1.146047	0.823474
H	-0.207661	-2.089151	0.381296
H	-0.114297	-1.085071	1.82865
H	-1.623539	-1.12472	0.886997
N	-0.429091	1.308524	0.59216
O	0.355317	2.256141	0.504064
O	-1.559715	1.383508	1.073255
Br	3.27071	0.0	0.0
