18

C	-0.443313	-0.042346	-1.465037
C	0.0	0.0	0.0
Cl	0.001003	1.514612	-2.250828
H	1.091504	0.0	0.0
C	0.318518	-1.157268	-2.18343
H	0.117057	-1.107913	-3.254338
H	-0.007819	-2.131415	-1.812302
H	1.387363	-1.028772	-1.992354
C	-1.886845	-0.232785	-1.639658
N	-3.018927	-0.47529	-1.840159
C	-0.516024	-1.169638	0.823944
H	-0.169151	-1.044966	1.852125
H	-1.607464	-1.219971	0.81284
H	-0.095993	-2.105098	0.453528
N	-0.488116	1.247048	0.665559
O	-1.685813	1.512363	0.535815
O	0.313039	1.891843	1.333438
Br	3.515946	0.0	0.0
