18

C	-0.400579	-0.005328	-1.476688
C	0.0	0.0	0.0
Cl	-2.218878	-0.120219	-1.686041
H	1.092897	0.0	0.0
C	0.083786	1.227572	-2.229204
H	-0.427116	2.115389	-1.856431
H	-0.133813	1.116689	-3.29253
H	1.159608	1.332423	-2.063892
C	0.141199	-1.217532	-2.096038
N	0.569874	-2.192888	-2.594944
C	-0.535585	-1.146716	0.823002
H	-0.206035	-2.089353	0.38054
H	-1.622883	-1.126388	0.886339
H	-0.113751	-1.085775	1.828243
N	-0.429836	1.307978	0.592648
O	-1.561402	1.382638	1.071641
O	0.355046	2.255418	0.507418
Br	3.270749	0.0	0.0
