18

C	-0.469758	0.005503	-1.459974
C	0.0	0.0	0.0
Cl	0.340132	-1.392114	-2.280495
H	1.090427	0.0	0.0
C	-1.971669	-0.154375	-1.675215
H	-2.196593	-0.136166	-2.743022
H	-2.504555	0.652413	-1.169774
H	-2.299738	-1.111041	-1.266584
C	-0.002334	1.221093	-2.136132
N	0.32071	2.212616	-2.678282
C	-0.568639	-1.118737	0.839299
H	-1.649136	-1.035235	0.971242
H	-0.094065	-1.08884	1.824588
H	-0.32267	-2.080785	0.385942
N	-0.38994	1.291279	0.665855
O	-1.597393	1.505517	0.867583
O	0.473345	2.17073	0.743415
Br	2.925159	0.0	0.0
