18

C	-0.45581	-0.016018	-1.459864
C	0.0	0.0	0.0
Cl	0.049901	1.5333	-2.225994
H	1.091495	0.0	0.0
C	0.240585	-1.165206	-2.190001
H	0.029491	-1.098932	-3.259119
H	1.319007	-1.092343	-2.017326
H	-0.133331	-2.123647	-1.82206
C	-1.910359	-0.134998	-1.618991
N	-3.057741	-0.329836	-1.795376
C	-0.540332	-1.16448	0.815957
H	-1.632996	-1.190094	0.802436
H	-0.143367	-2.11182	0.444399
H	-0.195278	-1.052869	1.846198
N	-0.459841	1.315938	0.566583
O	0.366463	1.990161	1.17707
O	-1.660546	1.608125	0.40492
Br	3.477997	0.0	0.0
