18

C	-0.45615	-0.015814	-1.459666
C	0.0	0.0	0.0
Cl	0.052445	1.53233	-2.226292
H	1.091487	0.0	0.0
C	0.237849	-1.166971	-2.188983
H	-0.138453	-2.124326	-1.820585
H	1.316388	-1.096423	-2.015986
H	0.027198	-1.100771	-3.258204
C	-1.911045	-0.13169	-1.618564
N	-3.058845	-0.323589	-1.795085
C	-0.539827	-1.165139	0.815485
H	-1.632299	-1.192829	0.799474
H	-0.139858	-2.112011	0.446191
H	-0.197863	-1.05162	1.846521
N	-0.460722	1.31518	0.567379
O	0.365894	1.993111	1.17272
O	-1.662585	1.604653	0.40941
Br	3.477501	0.0	0.0
