18

C	-0.478266	-0.004855	-1.455283
C	0.0	0.0	0.0
Cl	0.090582	1.507732	-2.253133
H	1.091489	0.0	0.0
C	0.143013	-1.185343	-2.200585
H	-0.258684	-2.123167	-1.810491
H	-0.104943	-1.118043	-3.261039
H	1.225345	-1.153937	-2.056052
C	-1.938378	-0.050135	-1.59986
N	-3.094453	-0.186352	-1.762902
C	-0.565101	-1.140428	0.826848
H	-1.657891	-1.137102	0.821366
H	-0.20936	-1.034461	1.853719
H	-0.192628	-2.0937	0.452617
N	-0.430617	1.278674	0.661868
O	-1.634241	1.547608	0.635137
O	0.429415	1.967183	1.201193
Br	3.313072	0.0	0.0
