15

C	-0.647558	-0.046122	-1.384741
C	0.0	0.0	0.0
Cl	0.564839	0.419431	-2.698472
H	1.090173	0.0	0.0
H	-0.900639	-1.077747	-1.626567
N	-1.812981	0.782415	-1.437843
H	-1.509257	1.712078	-1.161522
H	-2.158491	0.822138	-2.389565
N	-0.40187	-1.195301	0.73797
H	-1.284305	-1.042033	1.21331
H	0.317298	-1.369807	1.433017
N	-0.310625	1.290757	0.624779
H	0.452583	1.504517	1.261972
H	-1.180377	1.240105	1.145405
H	2.884599	0.0	0.0
