15

C	-0.3792	-0.094548	-1.460171
C	0.0	0.0	0.0
Cl	-2.227905	-0.231917	-1.647519
H	1.104964	0.0	0.0
H	-0.179269	0.859615	-1.956398
N	0.274576	-1.188417	-2.08992
H	0.96165	-1.576234	-1.453285
H	0.745491	-0.889046	-2.93081
N	-0.393736	-1.192545	0.714179
H	-1.344667	-1.082633	1.047787
H	0.231216	-1.311368	1.500781
N	-0.547532	1.219676	0.618789
H	-0.283385	2.010661	0.034008
H	-0.01562	1.34221	1.477522
H	2.947588	0.0	0.0
