15

C	-0.52483	-0.007951	-1.43253
C	0.0	0.0	0.0
Cl	-0.102305	1.522812	-2.28976
H	1.098468	0.0	0.0
H	0.010361	-0.780163	-1.996766
N	-1.96383	-0.147073	-1.419981
H	-2.131542	-0.9314	-0.793609
H	-2.301702	-0.380657	-2.345888
N	-0.461454	-1.283211	0.592516
H	-0.668687	-1.05293	1.557993
H	0.354857	-1.890817	0.614396
N	-0.50086	1.10699	0.792355
H	-1.325924	1.497983	0.352656
H	0.220932	1.817753	0.811009
H	2.963034	0.0	0.0
