15

C	-0.531645	-0.077866	-1.424792
C	0.0	0.0	0.0
Cl	-0.006003	1.425101	-2.36132
H	1.096019	0.0	0.0
H	-0.048474	-0.892281	-1.962815
N	-1.94821	-0.220788	-1.408412
H	-2.335052	-0.16149	-2.341023
H	-2.301722	0.545569	-0.840548
N	-0.38854	-1.202179	0.729978
H	-1.164178	-1.663905	0.275306
H	0.420934	-1.813678	0.764802
N	-0.609193	1.171811	0.649414
H	0.047222	1.942288	0.562123
H	-0.656592	0.927271	1.630933
H	2.976753	0.0	0.0
