15

C	-0.397926	-0.000536	-1.47012
C	0.0	0.0	0.0
Cl	-0.110061	-1.672657	-2.193939
H	1.097588	0.0	0.0
H	-1.474445	0.140455	-1.606635
N	0.35213	1.018442	-2.125286
H	0.284845	0.938647	-3.129981
H	1.329865	0.920599	-1.846525
N	-0.555002	-1.12517	0.739759
H	0.222535	-1.662031	1.108897
H	-1.063414	-0.720833	1.516
N	-0.457309	1.268241	0.599984
H	0.367599	1.688165	1.022547
H	-0.727098	1.904424	-0.142721
H	2.954979	0.0	0.0
