15

C	-0.522915	0.048211	-1.431005
C	0.0	0.0	0.0
Cl	-0.103339	1.606053	-2.234657
H	1.098546	0.0	0.0
H	0.008649	-0.706584	-2.020511
N	-1.963517	-0.087874	-1.426235
H	-2.130792	-0.91612	-0.859173
H	-2.300794	-0.259684	-2.365981
N	-0.45582	-1.307408	0.537825
H	-0.784987	-1.098638	1.47391
H	0.385347	-1.873141	0.645191
N	-0.496317	1.079724	0.833855
H	-1.302975	1.511916	0.395123
H	0.240339	1.770688	0.909087
H	2.955431	0.0	0.0
