15

C	-0.471268	-0.071972	-1.448263
C	0.0	0.0	0.0
Cl	-0.335207	-1.753699	-2.112812
H	1.099087	0.0	0.0
H	-1.535751	0.173373	-1.516206
N	0.292126	0.809703	-2.300241
H	1.274111	0.623959	-2.091705
H	0.11558	1.739341	-1.929996
N	-0.590595	-1.025319	0.864548
H	-0.48413	-1.923818	0.405212
H	0.009654	-1.071606	1.684518
N	-0.390094	1.334132	0.464324
H	0.375519	1.706314	1.016845
H	-1.203654	1.22601	1.060443
H	2.982558	0.0	0.0
