15

C	-0.334337	0.271384	-1.474082
C	0.0	0.0	0.0
Cl	-0.765532	-1.425322	-2.45473
H	1.09599	0.0	0.0
H	-1.296957	0.75358	-1.623767
N	0.722806	0.938057	-2.028018
H	1.643154	0.634862	-1.701464
H	0.663004	1.21607	-2.993881
N	-0.527715	-1.214872	0.601346
H	0.273982	-1.781044	0.865001
H	-1.032098	-1.749125	-0.094384
N	-0.472613	1.193703	0.724105
H	0.3465	1.652322	1.114687
H	-1.023981	0.831376	1.494347
H	2.956981	0.0	0.0
