17

C	-0.376131	0.005576	-1.46961
C	0.0	0.0	0.0
Br	-2.446833	-0.363128	-1.617907
H	1.093955	0.0	0.0
N	0.006663	1.140483	-2.143432
H	-0.267546	1.148434	-3.115332
H	-0.178268	2.003387	-1.653533
N	0.215962	-1.173664	-2.246595
O	0.930286	-1.959351	-1.632856
O	-0.022101	-1.179793	-3.454103
C	-0.499347	-1.179781	0.835509
H	-1.571057	-1.116056	1.024562
H	0.042424	-1.168123	1.782767
H	-0.2713	-2.116793	0.333786
C	-0.448437	1.25807	0.58629
N	-0.814187	2.274075	1.050975
Cl	3.145275	0.0	0.0
