17

C	-0.536806	-0.000659	-1.427716
C	0.0	0.0	0.0
Br	0.41945	-1.431022	-2.462854
H	1.091814	0.0	0.0
N	-1.937566	-0.095794	-1.504818
H	-2.244458	0.002965	-2.464807
H	-2.259724	-0.973003	-1.120496
N	-0.153606	1.280439	-2.174561
O	-0.795294	1.514501	-3.19754
O	0.7566	1.952057	-1.714954
C	-0.446583	-1.240611	0.783823
H	-1.527025	-1.25959	0.953452
H	-0.130194	-2.145072	0.263265
H	0.050838	-1.224409	1.754604
C	-0.493344	1.198549	0.679105
N	-0.893428	2.131836	1.269422
Cl	3.321009	0.0	0.0
