17

C	-0.253704	-0.042123	-1.506977
C	0.0	0.0	0.0
Br	-0.14898	1.836329	-2.282915
H	1.097105	0.0	0.0
N	0.624678	-0.944692	-2.087187
H	0.548972	-0.991178	-3.092909
H	1.581512	-0.781013	-1.764647
N	-1.685352	-0.425427	-1.875056
O	-1.848149	-1.013415	-2.939869
O	-2.569863	-0.098905	-1.092347
C	-0.436516	-1.297704	0.694261
H	-0.067334	-2.151747	0.125858
H	-1.520896	-1.356763	0.797608
H	0.019826	-1.324845	1.685498
C	-0.52926	1.160737	0.696249
N	-0.951464	2.042138	1.348125
Cl	3.274003	0.0	0.0
