17

C	-0.29232	-0.02068	-1.496569
C	0.0	0.0	0.0
Br	-0.093595	1.846629	-2.265286
H	1.098114	0.0	0.0
N	0.515911	-0.972936	-2.106932
H	0.412123	-0.99645	-3.11093
H	1.486922	-0.850438	-1.815216
N	-1.754927	-0.320645	-1.825172
O	-1.98166	-0.877452	-2.894852
O	-2.596304	0.035533	-1.00779
C	-0.441939	-1.296051	0.693922
H	-1.525891	-1.344267	0.809158
H	-0.088799	-2.152889	0.120346
H	0.023882	-1.329544	1.680491
C	-0.503774	1.162175	0.715191
N	-0.889311	2.054167	1.374766
Cl	3.261997	0.0	0.0
