17

C	-0.571061	-0.06598	-1.414182
C	0.0	0.0	0.0
Br	0.256856	-1.507453	-2.428474
H	1.092225	0.0	0.0
N	-1.977216	-0.236346	-1.429161
H	-2.320311	-0.14123	-2.377943
H	-2.40412	0.480005	-0.847917
N	-0.164804	1.218448	-2.205989
O	0.796212	1.861994	-1.812133
O	-0.868104	1.47708	-3.180667
C	-0.412826	-1.222362	0.834097
H	-1.495374	-1.307822	0.937443
H	-0.022151	-2.124303	0.362473
H	0.048189	-1.133504	1.819523
C	-0.519515	1.214402	0.628041
N	-1.020128	2.161774	1.112829
Cl	3.311153	0.0	0.0
