17

C	-0.408169	-0.006596	-1.469199
C	0.0	0.0	0.0
Br	-2.451808	-0.513907	-1.605654
H	1.095844	0.0	0.0
N	-0.106846	1.157345	-2.12683
H	-0.410584	2.000712	-1.664691
H	-0.281266	1.131367	-3.119919
N	0.202016	-1.155098	-2.274915
O	0.255905	-0.983733	-3.488057
O	0.554721	-2.156534	-1.673914
C	-0.481477	-1.13285	0.908705
H	-1.560371	-1.096722	1.062559
H	-0.199191	-2.094899	0.491623
H	0.025191	-1.015005	1.868897
C	-0.439282	1.277893	0.555813
N	-0.807207	2.300434	1.003949
Cl	3.239983	0.0	0.0
