16

C	0.0	0.0	0.0
C	-0.449917	-0.150085	-1.476289
F	1.343225	0.0	0.0
H	-1.340981	-0.779026	-1.50507
C	-0.789746	1.042346	0.663379
N	-0.734564	2.091316	1.237141
N	-0.300042	-1.317665	0.773475
O	-0.912361	-2.234052	0.246261
O	0.184494	-1.334503	1.901786
N	0.567332	-0.922605	-2.282222
O	0.70338	-0.600452	-3.463869
O	1.104485	-1.895164	-1.75948
N	-0.57637	1.162827	-2.053811
H	-0.838939	1.059823	-3.026122
H	-1.345955	1.60673	-1.562188
H	-2.265369	0.0	0.0
