17

C	-0.181877	-0.038339	-1.532611
C	0.0	0.0	0.0
Cl	0.06817	1.717925	-2.150782
H	1.102706	0.0	0.0
N	0.853154	-0.895874	-1.980594
H	0.959929	-0.870288	-2.985198
H	1.730062	-0.631895	-1.492513
C	-1.555921	-0.436718	-2.022063
H	-1.578276	-0.457559	-3.115401
H	-2.300305	0.277891	-1.668667
H	-1.79835	-1.424138	-1.627746
N	-0.509084	-1.283848	0.556057
H	0.056536	-1.987642	0.084299
H	-0.200455	-1.305782	1.525157
C	-0.648585	1.109517	0.668097
N	-1.143209	1.99435	1.263366
F	2.657327	0.0	0.0
