17

C	-0.354589	0.014221	-1.495802
C	0.0	0.0	0.0
Cl	0.00264	-1.609968	-2.18355
H	1.09496	0.0	0.0
N	-1.782626	0.235727	-1.702757
H	-1.971223	0.222904	-2.700817
H	-1.994083	1.173502	-1.367761
C	0.587997	1.000992	-2.177926
H	0.328727	2.019613	-1.869794
H	1.604046	0.780116	-1.832546
H	0.504426	0.930264	-3.264966
N	-0.518332	-1.138946	0.73295
H	0.098248	-1.310988	1.516253
H	-1.457129	-0.970328	1.071334
C	-0.444173	1.280764	0.561469
N	-0.841393	2.285659	1.029991
F	2.6162	0.0	0.0
