17

C	-0.373884	0.021359	-1.484058
C	0.0	0.0	0.0
Cl	0.273873	-1.603507	-2.169514
H	1.098749	0.0	0.0
N	-1.776245	0.106437	-1.668097
H	-2.208376	-0.598358	-1.078721
H	-2.028998	-0.058131	-2.634466
C	0.432982	1.092409	-2.186084
H	1.470617	0.970408	-1.859302
H	0.058216	2.07174	-1.876254
H	0.352059	1.005994	-3.273067
N	-0.618069	-1.163628	0.673728
H	-0.701675	-0.946336	1.659913
H	0.072418	-1.904589	0.605576
C	-0.472511	1.23006	0.621257
N	-0.818544	2.213557	1.165567
F	2.61397	0.0	0.0
