17

C	-0.07363	0.004439	-1.532347
C	0.0	0.0	0.0
Cl	-1.795038	0.179497	-2.117055
H	1.097174	0.0	0.0
N	0.712384	1.105029	-2.059924
H	1.621609	0.981167	-1.592926
H	0.322504	1.97803	-1.715085
C	0.50873	-1.292316	-2.052487
H	-0.074557	-2.14664	-1.713954
H	1.516787	-1.34523	-1.628372
H	0.551659	-1.254091	-3.142213
N	-0.540243	-1.186605	0.636603
H	-0.011343	-1.367993	1.480319
H	-1.5133	-1.052712	0.884522
C	-0.491003	1.256774	0.562145
N	-0.904283	2.240213	1.059665
F	2.634334	0.0	0.0
