17

C	-0.449839	0.006232	-1.471419
C	0.0	0.0	0.0
Cl	0.124581	-1.566974	-2.176754
H	1.09949	0.0	0.0
N	-1.883409	0.04594	-1.679393
H	-2.196078	0.974818	-1.413095
H	-2.281112	-0.606522	-1.006576
C	0.284564	1.115446	-2.195003
H	1.341177	1.027425	-1.92876
H	-0.088584	2.086904	-1.853707
H	0.13293	1.034917	-3.272703
N	-0.588198	-1.162029	0.709468
H	0.057108	-1.925245	0.526528
H	-0.507773	-0.978469	1.704646
C	-0.501832	1.222154	0.61201
N	-0.920492	2.206856	1.101527
F	2.606946	0.0	0.0
