17

C	-0.377728	0.05513	-1.487723
C	0.0	0.0	0.0
Cl	0.038441	1.705355	-2.094171
H	1.09347	0.0	0.0
N	0.446899	-0.89195	-2.212218
H	1.400861	-0.709021	-1.883561
H	0.204076	-1.794563	-1.81133
C	-1.853525	-0.172637	-1.747468
H	-2.135575	-1.149839	-1.347171
H	-2.051946	-0.149487	-2.821096
H	-2.445983	0.600939	-1.253536
N	-0.345268	-1.342788	0.514518
H	-1.120006	-1.306933	1.164628
H	0.47569	-1.669268	1.011087
C	-0.582323	1.057036	0.80881
N	-1.092697	1.859848	1.502896
F	2.587164	0.0	0.0
