16

C	0.0	0.0	0.0
C	-0.388329	0.121607	-1.524107
Br	1.960459	0.0	0.0
H	0.148372	1.013233	-1.872717
C	-0.583163	1.143588	0.807709
H	-0.229462	1.104861	1.839064
H	-0.288238	2.098714	0.364506
H	-1.674998	1.044615	0.799423
C	-0.408347	-1.295665	0.534981
N	-0.704724	-2.352843	0.955862
N	-1.773555	0.269637	-1.851819
H	-2.140816	1.158736	-1.537605
H	-2.381586	-0.423004	-1.417755
C	0.163617	-1.028364	-2.266055
N	0.578345	-1.941322	-2.877015
Br	-4.426481	0.0	0.0
