16

C	0.0	0.0	0.0
C	-0.556422	0.147359	-1.4226
Br	1.966106	0.0	0.0
H	-1.654159	0.122622	-1.271442
C	-0.489744	1.112995	0.915161
H	-1.585437	1.093997	0.896598
H	-0.133991	0.947347	1.933443
H	-0.120901	2.076557	0.55992
C	-0.37047	-1.316573	0.520742
N	-0.625288	-2.368658	0.978935
N	-0.170382	-0.969047	-2.265898
H	0.739112	-0.811138	-2.680884
H	-0.854548	-1.089361	-3.000908
C	-0.194059	1.461435	-1.981468
N	0.087392	2.479879	-2.497478
Br	-3.808616	0.0	0.0
