16

C	0.0	0.0	0.0
C	-0.388141	-0.157866	-1.519708
Br	1.962514	0.0	0.0
H	0.134776	0.667483	-2.020908
C	-0.580899	1.273119	0.586145
H	-0.295375	2.128466	-0.032675
H	-0.215464	1.431071	1.601389
H	-1.672623	1.175123	0.611061
C	-0.407493	-1.174837	0.764447
N	-0.705	-2.127874	1.385661
N	-1.775415	-0.096453	-1.86462
H	-2.36129	-0.739823	-1.336528
H	-2.174512	0.815321	-1.676983
C	0.179742	-1.414383	-2.046035
N	0.569732	-2.43554	-2.474831
Br	-4.427069	0.0	0.0
