16

C	0.0	0.0	0.0
C	-0.403727	0.202614	-1.50857
Br	1.961235	0.0	0.0
H	0.03919	1.16803	-1.788735
C	-0.584077	1.088259	0.880799
H	-0.231408	0.982769	1.907648
H	-1.676551	0.992488	0.869468
H	-0.28977	2.070127	0.500516
C	-0.401157	-1.329763	0.453433
N	-0.67369	-2.40911	0.832294
N	-1.800934	0.222965	-1.821259
H	-2.308292	0.963783	-1.350984
H	-2.283611	-0.624713	-1.538108
C	0.24202	-0.82822	-2.344109
N	0.725143	-1.647486	-3.033297
Br	-4.462726	0.0	0.0
