18

C	-0.081909	-0.082108	-1.517707
C	0.0	0.0	0.0
Cl	-1.797531	-0.400353	-2.125729
H	1.105341	0.0	0.0
C	0.392455	1.220137	-2.135195
H	0.427618	1.130468	-3.225779
H	1.401539	1.368012	-1.737609
H	-0.243388	2.054712	-1.845789
N	0.746813	-1.216561	-1.885016
H	1.63504	-1.037895	-1.387284
H	0.92976	-1.182441	-2.88266
N	-0.533727	-1.209597	0.645737
H	0.185867	-1.532608	1.285622
H	-0.603317	-1.929457	-0.067024
N	-0.566659	1.219946	0.536883
H	-0.023624	1.476732	1.352573
H	-1.501618	0.987714	0.857416
F	2.738998	0.0	0.0
