18

C	-0.392911	-0.025699	-1.485826
C	0.0	0.0	0.0
Cl	-0.060577	1.613108	-2.215821
H	1.098896	0.0	0.0
C	0.53736	-1.000289	-2.195311
H	0.274378	-2.012297	-1.872921
H	0.436661	-0.935502	-3.283462
H	1.560633	-0.779134	-1.870697
N	-1.814821	-0.263014	-1.615557
H	-1.980449	-1.079383	-1.029787
H	-2.038323	-0.49582	-2.577567
N	-0.459777	-1.300921	0.56235
H	0.388606	-1.824175	0.757183
H	-0.861997	-1.06361	1.462081
N	-0.58093	1.091225	0.760521
H	-1.408838	1.428573	0.280639
H	0.095753	1.843019	0.773926
F	2.727371	0.0	0.0
