18

C	-0.092655	0.00191	-1.524994
C	0.0	0.0	0.0
Cl	-1.810551	-0.230782	-2.111615
H	1.104143	0.0	0.0
C	0.455295	1.299427	-2.086062
H	-0.185817	2.150032	-1.847534
H	0.547362	1.212135	-3.169813
H	1.447729	1.417975	-1.636259
N	0.721625	-1.085893	-2.039763
H	1.639097	-0.898562	-1.606659
H	0.38284	-1.918342	-1.561936
N	-0.50632	-1.238534	0.546961
H	-1.492888	-1.121905	0.757166
H	-0.006926	-1.450306	1.401969
N	-0.626903	1.168563	0.641221
H	-0.135447	1.995631	0.314396
H	-0.379727	1.100069	1.625671
F	2.747509	0.0	0.0
