18

C	-0.451937	-0.045534	-1.466192
C	0.0	0.0	0.0
Cl	-0.190344	1.599795	-2.213476
H	1.099033	0.0	0.0
C	0.465639	-1.011953	-2.190022
H	1.493381	-0.769646	-1.901331
H	0.313697	-0.95823	-3.269701
H	0.242429	-2.023478	-1.839851
N	-1.855564	-0.363255	-1.672816
H	-2.385478	0.273603	-1.081382
H	-1.962146	-1.285506	-1.254755
N	-0.411272	-1.280889	0.595921
H	-1.169115	-1.100631	1.245254
H	0.386206	-1.634684	1.110088
N	-0.645214	1.094505	0.743467
H	-0.143002	1.15142	1.625406
H	-0.42712	1.959849	0.261247
F	2.735019	0.0	0.0
