18

C	-0.262643	0.207274	-1.475621
C	0.0	0.0	0.0
Cl	-2.184421	0.909556	-1.663262
H	1.100809	0.0	0.0
C	0.598883	1.303652	-2.048179
H	0.519207	1.352184	-3.137125
H	0.334936	2.272714	-1.629287
H	1.614426	1.033297	-1.729296
N	-0.173872	-0.979883	-2.168553
H	-0.441093	-0.91376	-3.139126
H	-0.638427	-1.716159	-1.649868
N	-0.553287	-1.277979	0.443909
H	0.165237	-1.724163	0.99896
H	-1.320829	-1.068538	1.068542
N	-0.377002	1.117048	0.852221
H	0.450874	1.678455	1.014786
H	-1.094668	1.686636	0.424856
F	2.679565	0.0	0.0
