18

C	-0.662836	-0.013283	-1.378334
C	0.0	0.0	0.0
Cl	0.230089	-1.1609	-2.443149
H	1.097285	0.0	0.0
C	-2.108501	-0.495871	-1.326006
H	-2.557768	-0.449609	-2.323027
H	-2.159797	-1.518384	-0.953733
H	-2.663669	0.165631	-0.652155
N	-0.537183	1.308637	-1.983117
H	-0.913775	1.271149	-2.924366
H	-1.126958	1.923702	-1.430527
N	-0.402509	-1.17028	0.762795
H	-1.218202	-0.973162	1.334129
H	0.377467	-1.417116	1.359307
N	-0.454961	1.261787	0.671135
H	0.212124	1.960506	0.34551
H	-0.204219	1.128135	1.647052
F	2.684911	0.0	0.0
