18

C	-0.398399	-0.012658	-1.483573
C	0.0	0.0	0.0
Cl	-0.041869	1.625297	-2.20419
H	1.098911	0.0	0.0
C	0.517964	-0.995024	-2.20004
H	0.419536	-0.921044	-3.287745
H	1.543463	-0.789554	-1.873563
H	0.240319	-2.00613	-1.887277
N	-1.822744	-0.229681	-1.610286
H	-2.050348	-0.469097	-2.568998
H	-2.001726	-1.034587	-1.012972
N	-0.469852	-1.303006	0.554364
H	-0.8053	-1.073104	1.483506
H	0.369808	-1.859871	0.684163
N	-0.577381	1.084881	0.771841
H	0.109266	1.827114	0.806909
H	-1.395772	1.441324	0.289808
F	2.724883	0.0	0.0
