18

C	-0.440678	0.01021	-1.459629
C	0.0	0.0	0.0
Cl	0.113771	1.677954	-2.175452
H	1.101669	0.0	0.0
C	0.360663	-1.016852	-2.226845
H	0.233043	-0.905442	-3.307542
H	1.406684	-0.878113	-1.939188
H	0.025883	-2.004221	-1.906607
N	-1.848241	-0.110156	-1.580693
H	-2.148343	0.031629	-2.537071
H	-2.274416	0.588316	-0.980938
N	-0.404107	-1.27436	0.571773
H	0.236409	-1.490055	1.325762
H	-1.353318	-1.217541	0.924144
N	-0.640144	1.123265	0.722915
H	-0.198012	1.974375	0.386482
H	-0.335039	1.027657	1.687173
F	2.723468	0.0	0.0
