11

C	-0.519053	-0.048828	-1.426614
C	-0.003768	-0.003558	0.010498
Cl	-0.069904	1.459608	-2.287262
H	1.088879	-0.012411	0.010649
H	-1.610598	-0.085507	-1.458065
H	-0.33352	0.93184	0.47223
C	-0.02921	-1.206438	-2.177494
N	0.259054	-2.150094	-2.814201
C	-0.538345	-1.126563	0.761998
N	-0.963713	-2.042013	1.365239
H	2.70091	0.005804	-0.071821
