14

C	0.0	0.0	0.0
C	-0.226582	-0.096377	-1.522881
Cl	1.769116	0.0	0.0
H	0.29543	-0.992124	-1.857163
H	0.224641	0.789408	-1.965126
N	-0.414754	1.333993	0.58621
O	-0.526176	1.375981	1.801632
O	-0.465072	2.280129	-0.185317
C	-0.509229	-1.11062	0.784423
N	-0.586825	-2.10221	1.41465
N	-1.582794	-0.202612	-2.137697
O	-2.00467	-1.337249	-2.336206
O	-2.077206	0.830703	-2.573277
F	-2.2194	0.0	0.0
