14

C	0.0	0.0	0.0
C	-0.239409	-0.006993	-1.523991
Cl	1.778238	0.0	0.0
H	0.080412	-0.987983	-1.875847
H	0.390141	0.76858	-1.956362
N	-0.380286	1.301802	0.673422
O	-0.562588	1.264062	1.879554
O	-0.332124	2.302141	-0.028234
C	-0.508503	-1.147617	0.730083
N	-0.588342	-2.162947	1.321234
N	-1.580493	0.216275	-2.148095
O	-1.917126	1.378564	-2.339065
O	-2.143103	-0.773232	-2.605734
F	-2.214104	0.0	0.0
