14

C	0.0	0.0	0.0
C	-0.546592	4.1e-05	-1.413925
Cl	1.764554	0.0	0.0
H	-0.200009	0.8707	-1.961865
H	-1.676102	0.009627	-1.168009
N	-0.423793	1.324009	0.658913
O	-0.486614	2.300159	-0.074237
O	-0.554807	1.317063	1.871251
C	-0.468515	-1.093286	0.848904
N	-0.636999	-1.997447	1.580396
N	-0.188981	-1.191054	-2.187774
O	0.187247	-2.20901	-1.60492
O	-0.348345	-1.10605	-3.40771
F	-2.56376	0.0	0.0
