14

C	0.0	0.0	0.0
C	-0.459686	-0.070226	-1.451494
Cl	1.76884	0.0	0.0
H	-0.161078	0.840148	-1.961361
H	-1.564142	-0.185147	-1.335641
N	-0.439554	1.335603	0.601154
O	-0.561249	1.366842	1.814332
O	-0.512166	2.287312	-0.162309
C	-0.456308	-1.085065	0.862908
N	-0.680248	-2.056734	1.485722
N	0.15446	-1.195619	-2.181842
O	0.574839	-0.962312	-3.318432
O	0.163832	-2.303781	-1.649229
F	-2.45456	0.0	0.0
