17
Coordinates from ORCA-job run
  C   -0.64802319000143      0.51911486030841      0.33889974904624
  C   0.65449046587258      0.14400094520601     -0.35999745427381
  F   -0.37767108664330      1.30717044376324      1.44700625779760
  H   0.97730527755494      1.08802284935177     -0.83655046642794
  N   -1.53745697671517      1.12698958860674     -0.56717091795977
  H   -1.21855730384408      2.06272574657372     -0.78235083147935
  H   -2.48709129669220      1.14228363075332     -0.21995387771679
  N   -1.32100862978211     -0.72408521475405      0.91513222161397
  O   -2.41455668406453     -1.05191594013587      0.46971699601400
  O   -0.70592109126454     -1.28486024698916      1.81212749776251
  N   0.31096318319051     -0.90301023237291     -1.30961731307107
  H   1.14417889685027     -1.24453888078478     -1.77081930482206
  H   -0.33003646475104     -0.54569683787571     -2.00702550666405
  C   1.77382595760384     -0.32273173952855      0.55550561344085
  H   1.55184183387732     -1.30832191212252      0.96034207255670
  H   2.70095243413910     -0.38031138489227     -0.02192783402489
  H   1.92776467466984      0.37416432489260      1.37868309820787
