17
Coordinates from ORCA-job run
  C   -0.68159255674246      0.53609958230266      0.10415720494765
  C   0.80725985080427      0.30129988077976     -0.16185279329590
  F   -0.99055746967678      1.84282840659025     -0.14555677691373
  H   1.33938574684070      0.97499623970173      0.51662628297039
  N   -1.53404728974752     -0.27443717989044     -0.66913955036324
  H   -1.50552326826386     -1.23293171505452     -0.34833616993948
  H   -2.48802863770816      0.06020884356924     -0.60019139659705
  N   -0.91220369931669      0.37779652449628      1.63164888622546
  O   -1.52652376383942     -0.61978240976453      2.00537664582399
  O   -0.41176799574074      1.23394175131723      2.35121101644815
  N   1.17084859892439      0.65613005064330     -1.52129223659319
  H   0.57489375129030      0.14647808793680     -2.16489683571205
  H   1.00130989195323      1.64335681753479     -1.67347615376012
  C   1.20400187513973     -1.13875225997379      0.12541402662282
  H   0.93728738095392     -1.45514166783431      1.13592771454856
  H   0.73243805161740     -1.81804052091179     -0.59053594126315
  H   2.28281953351170     -1.23405043144264      0.00391607685090
