17
Coordinates from ORCA-job run
  C   -0.76899344331528      0.56255729439688      0.24170003573231
  C   0.68760352585131      0.35370682882674     -0.17052740974743
  F   -0.97149206347041      1.93254690686916      0.35544162842969
  H   1.27476317783438      1.04483680284682      0.44749373889387
  N   -1.70237391510966     -0.02765354814308     -0.59534662929756
  H   -1.28151247333519     -0.39253404404041     -1.43676624033143
  H   -2.34456434158125     -0.64945738100173     -0.13147946343351
  N   -0.92424723912560      0.06646487677840      1.68607879147143
  O   -1.66675342523156     -0.88884695605260      1.89696686110580
  O   -0.25002462735919      0.65324325136602      2.52322317615418
  N   0.74723732105198      0.64140680045540     -1.60132232849935
  H   1.67956090472826      0.45336333343557     -1.94854058440140
  H   0.54846141208144      1.62241943513779     -1.76360308103935
  C   1.14748578929325     -1.07333248233300      0.08054908115765
  H   1.15642824975705     -1.31018223704377      1.14559176578600
  H   2.16748127767534     -1.20225070837805     -0.29033001591823
  H   0.50393987025513     -1.78628817312015     -0.43812932606265
