17
Coordinates from ORCA-job run
  C   -0.68597358496839      0.12701359969980      0.45206766580254
  C   0.40882127441076     -0.14347719435286     -0.56532382754807
  F   -0.39363191895870     -0.59842610387407      1.59477834510190
  H   0.06519426400371      0.29661958464963     -1.50241309328796
  N   -0.93117122183125      1.48700395737410      0.71711574539466
  H   -1.67195125145429      1.58838268291455      1.40179166208339
  H   -0.09749819679496      1.94105278219766      1.06464625404006
  N   -2.00101099709497     -0.44863760990432     -0.07509815533698
  O   -2.27537109466715     -0.17666034197071     -1.23515640228717
  O   -2.69096713751247     -1.08181918884432      0.71304161731836
  N   0.45015733280612     -1.58854601918997     -0.73935388700976
  H   0.94649003621637     -1.82580440704336     -1.58767097736812
  H   0.92309132805866     -2.02454283239830      0.04260912876112
  C   1.73019518797184      0.49759681153380     -0.14199023677871
  H   2.51449244440154      0.19564087264943     -0.83922777481666
  H   1.68911090369031      1.59017161004784     -0.15678500451318
  H   2.01902263172288      0.16343179651111      0.85796894044458
