17
Coordinates from ORCA-job run
  C   -0.67562475925033      0.56489671551849      0.41320759840850
  C   0.59884651977050      0.28748689270999     -0.38733812002462
  F   -0.37641523730027      1.46509626212571      1.40409249489718
  H   0.98608272460278      1.29751597697438     -0.56743401748573
  N   -1.75726828170359      0.96791665343416     -0.36887909892458
  H   -1.49901120135723      1.11653003876665     -1.33301104058173
  H   -2.30436081898198      1.70244265546198      0.05161148071053
  N   -1.07900020909429     -0.72071494743007      1.17327744664355
  O   -1.20878790404589     -1.70926609300278      0.45685724596726
  O   -1.24766163843900     -0.67550620711832      2.38339877549695
  N   0.25368693857703     -0.26730982741341     -1.68883097000640
  H   1.07355475646979     -0.28261759548557     -2.28222624622469
  H   -0.08052579901447     -1.21708673620029     -1.57446235429368
  C   1.62956296785773     -0.48677200949800      0.43097103852974
  H   1.76216454060432     -0.04789823702604      1.42304282941720
  H   1.33039571770571     -1.53059931539879      0.54447246277824
  H   2.59436168359917     -0.46411422641810     -0.08074952530772
