17
Coordinates from ORCA-job run
  C   -0.62067797797933      0.17452534181634      0.52989685024520
  C   0.45683114326430     -0.14809933509535     -0.51768794356718
  F   -0.28592422271563     -0.43464876314387      1.69749046604365
  H   0.14701909577708      0.35383933953929     -1.43972231800806
  N   -0.94917840431457      1.52998529723071      0.81632217094587
  H   -1.20502750320822      2.02123209762426     -0.02990100007925
  H   -0.16945318117938      1.98930384854236      1.26736084497505
  N   -1.91162410444818     -0.46711139028042      0.03593991283474
  O   -2.38534292126325      0.06273415342600     -0.96692664530962
  O   -2.34544677355508     -1.44813614450554      0.61980532160779
  N   0.57466907127662     -1.56806611412566     -0.80664852212780
  H   -0.23094873828657     -1.91369339188140     -1.31272998796635
  H   0.65998617717211     -2.09634177485472      0.05374620711501
  C   1.80708197584068      0.39313667181031     -0.06608815309047
  H   1.78826028256491      1.47313257988945      0.09382185253561
  H   2.54486522541581      0.17090340460847     -0.83661371793962
  H   2.12391085563872     -0.09169582060026      0.85993466178543
