17
Coordinates from ORCA-job run
  C   -0.63802250008350     -0.00059619099318      0.61941469675702
  C   0.33894029326838     -0.01162067746782     -0.55456777884868
  F   -0.27639117316550     -0.99000821858893      1.48161752732202
  H   -0.01528470569247      0.75773488732723     -1.24721530031135
  N   -0.82473463676572      1.19380438457909      1.36882592607841
  H   -1.16200199971220      1.93713929090999      0.77185457067063
  H   0.03522320757959      1.46707923708605      1.82466501457572
  N   -2.01082967331703     -0.35282303010002      0.05917569153740
  O   -2.52449824494995     -1.40767658689876      0.38451470085082
  O   -2.47907662785351      0.50391093162080     -0.68597832858788
  N   0.18870888005368     -1.29666249732407     -1.22188846750350
  H   0.66696831434076     -1.29052655154768     -2.11332582835421
  H   0.58605888273150     -2.03482807357677     -0.65287549397939
  C   1.75514840015448      0.32271809846892     -0.08884654522479
  H   1.82846703221258      1.32432611893495      0.34302371821041
  H   2.43624903304785      0.28491091041335     -0.94176771430440
  H   2.09607551815107     -0.40488203284316      0.65137361111176
