17
Coordinates from ORCA-job run
  C   -0.59876281831199      0.53123248543143      0.33215424999606
  C   0.70735108801557      0.21601648867695     -0.41777928433251
  F   -0.29139852708147      1.41920063622800      1.34466508511647
  H   1.09104413470082      1.21400936346025     -0.67067093314923
  N   -1.62772788845926      0.99753815615451     -0.50730478981256
  H   -1.30079650226241      1.78497677395317     -1.05397681849493
  H   -2.43632164456894      1.28311630708913      0.03374744716023
  N   -1.14728433194089     -0.70428337451816      1.04479551592195
  O   -1.18928347315106     -1.73330402889973      0.37754586465297
  O   -1.51777812889999     -0.57857556527988      2.20501960715209
  N   0.57956034480757     -0.53293623571928     -1.65106524170330
  H   -0.08343203555454     -0.08290697356898     -2.27039301910218
  H   0.19945003231552     -1.44731896149086     -1.43852036677970
  C   1.71247833783729     -0.46053880929055      0.50443646338894
  H   1.81342192890100      0.07306692512044      1.45017125825918
  H   1.40911114249252     -1.48977722614723      0.71193502776237
  H   2.68136834116026     -0.49151596119921      0.00623993396415
