17
Coordinates from ORCA-job run
  C   -0.64457093386143      0.19350166675455      0.47955998226855
  C   0.48647177130617     -0.14680443082680     -0.47899668167621
  F   -0.41517512841217     -0.37616612454816      1.69319140738602
  H   0.22533795968898      0.31038220554620     -1.43841640690846
  N   -0.84361716363084      1.58106394725859      0.66369792942086
  H   -1.13967329966531      2.00733572767720     -0.20500990891936
  H   -1.54434741647608      1.74501137216844      1.37748255823515
  N   -1.91623485542252     -0.49202595919452     -0.06934737093157
  O   -2.44906268144473     -1.37729018339674      0.57920001728133
  O   -2.29798842013516     -0.03206361339253     -1.14260756718432
  N   0.45508699945293     -1.59093577719170     -0.66838167583135
  H   1.03303051572829     -1.85197556406770     -1.45633581116566
  H   0.82060148379134     -2.05509894505566      0.15509517048995
  C   1.80670334536051      0.42203280832807      0.03210416714893
  H   1.76127516147074      1.50502074049156      0.15173689957340
  H   2.05582274801661     -0.01873549431917      1.00015466224553
  H   2.60533991423267      0.17674762376837     -0.67212737143280
