17
Coordinates from ORCA-job run
  C   -0.72750563947681      0.45402351847699      0.30592859389737
  C   0.71775505120558      0.24008761993917     -0.15209349765811
  F   -1.00676866248818      1.79649969856529      0.07803363934247
  H   1.33804477520506      0.89120952507640      0.48183108780583
  N   -1.62784810095308     -0.41313350888045     -0.31933396651023
  H   -2.58696175530004     -0.13174103081916     -0.15514532989069
  H   -1.42160470331274     -0.41542995184665     -1.31227486892907
  N   -0.90898548913313      0.29867221660405      1.81862715707117
  O   -1.60516793006407      1.13136604870032      2.38666721469790
  O   -0.37771941847908     -0.67412991345160      2.34097395799965
  N   0.70720788052470      0.64890747125588     -1.55993750240360
  H   0.64976419001570      1.65647949242065     -1.63604453038839
  H   1.56232368679519      0.34436458343581     -2.00718700680606
  C   1.22197459984758     -1.19183404927589     -0.07332803437163
  H   0.60836839080916     -1.84013387587006     -0.69990945943196
  H   1.20617925035790     -1.57138810764375      0.94335881519737
  H   2.25194387444626     -1.22381973668701     -0.44116626962203
