17
Coordinates from ORCA-job run
  C   -0.57055375976161      0.72229035340748      0.40529386592860
  C   0.62611168919960      0.26870568461838     -0.43533954022582
  F   -0.14406937084162      1.58668170605874      1.36863806102398
  H   1.07386124254039      1.21684968375562     -0.75136263278390
  N   -1.56806573314159      1.29705921469917     -0.37754174404227
  H   -2.45370834065163      1.40414548189990      0.09585286774463
  H   -1.64412387261279      0.79930502073193     -1.25523809767973
  N   -1.07136917273855     -0.51509795919624      1.20457780569000
  O   -0.92668873566168     -0.55065230119147      2.41862035356023
  O   -1.56275140856085     -1.40237498810719      0.50706311186061
  N   0.15009306543374     -0.40397564494164     -1.63897704384840
  H   0.88034506532289     -0.41312081998835     -2.33916207667341
  H   -0.10182266654888     -1.36200193359157     -1.42589185101915
  C   1.63505052895103     -0.51081761391744      0.40321695800967
  H   1.24335818627367     -1.49851100772376      0.66171092259978
  H   1.88201095515671      0.01565836884471      1.32714428461695
  H   2.55432232764115     -0.65414324535828     -0.16860524476176
