17
Coordinates from ORCA-job run
  C   -0.58450318839062      0.71592576762524      0.39484781514037
  C   0.63404913825976      0.27423056985173     -0.41988731613089
  F   -0.18616591830053      1.57959005523936      1.37090310908682
  H   1.08257405062889      1.22667689336731     -0.72151855953754
  N   -1.56791846327809      1.28676636170365     -0.40832344727192
  H   -2.46429684698095      1.38959005597363      0.04528565652216
  H   -1.62123784968649      0.79222716007446     -1.28946753597652
  N   -1.09621359422444     -0.52724983840227      1.17844107359299
  O   -0.99308075585594     -0.55954382829511      2.39673159112521
  O   -1.55523753736564     -1.41991370653306      0.46605768869508
  N   0.19073397187251     -0.39677946928092     -1.63701473975545
  H   0.93733601242851     -0.39798208979461     -2.31985785455011
  H   -0.05899464170615     -1.35739913739668     -1.43324402605675
  C   1.62938887528477     -0.50140877336411      0.43836028721690
  H   1.23924694298891     -1.49264331556500      0.68524510791114
  H   1.85225411145986      0.02420233430472      1.36894635175595
  H   2.56206569286563     -0.63628903950832     -0.11350520176742
