17
Coordinates from ORCA-job run
  C   -0.57623629363915      0.22947128409689      0.55912330480281
  C   0.49959684527409     -0.10921949678799     -0.46861020600133
  F   -0.35157085919097     -0.39291333553637      1.73713123491300
  H   0.37142230832053      0.59502292715729     -1.30096948393092
  N   -0.69134229584992      1.61967829714951      0.79934984392670
  H   -0.96531067033888      2.10941869246831     -0.04208117604047
  H   -1.35692069333598      1.80270413128786      1.54115387573302
  N   -1.91206849797767     -0.34730457162111      0.03819979455233
  O   -2.60613092917362     -1.02198586175152      0.78167765651890
  O   -2.19150588160485     -0.00053545994463     -1.11003621334240
  N   0.31907557690033     -1.49683853008844     -0.87469557919531
  H   1.21160444434395     -1.93301983321977     -1.05958254500113
  H   -0.24766462810271     -1.55903575118021     -1.71001503441972
  C   1.86897617229858      0.09339725823380      0.16163712069719
  H   1.94705143323807      1.07918038531088      0.61906262754756
  H   2.64516349995756     -0.00249213660845     -0.60136337920514
  H   2.03586046888064     -0.66352799896603      0.93001815844491
