17
Coordinates from ORCA-job run
  C   -0.72458480157838      0.37867803391376      0.23871028990043
  C   0.75242016348370      0.39497438031242     -0.15176861314774
  F   -1.19812909685153      1.69673982063526      0.13349309524247
  H   1.21511890077782      1.16306703918628      0.47135630588044
  N   -1.49221711059280     -0.53962486393895     -0.47939076622780
  H   -2.44052712076295     -0.59050990622903     -0.13201789306655
  H   -1.47949101473022     -0.31650593033078     -1.46416167151114
  N   -0.91013797547666      0.09377138023744      1.72700055049643
  O   -1.92628812635400     -0.50353300098057      2.06830449390120
  O   -0.05651717197156      0.55247484299512      2.47847975875015
  N   0.94388023304173      0.78014004879458     -1.54182895230348
  H   0.67636032719434      0.03842590109342     -2.17665061255585
  H   0.43699891977326      1.62640401036142     -1.76723325035923
  C   1.42003539868564     -0.94475301405198      0.10493456510121
  H   2.46599205787161     -0.87808859508965     -0.19732775150724
  H   1.38237645063794     -1.21639301353596      1.16023203615234
  H   0.93270996685206     -1.73426713337278     -0.47113158474562
