17
Coordinates from ORCA-job run
  C   -0.72973334884036      0.43331340890942      0.28813124878756
  C   0.71610864604631      0.27736052942193     -0.16034824566058
  F   -1.03290478964337      1.80697668593751      0.22301911139085
  H   1.31048626139545      0.94662855519581      0.47111986126597
  N   -1.60083662681528     -0.37037837882000     -0.43172755450318
  H   -2.56916343632266     -0.20554390815169     -0.19643222676936
  H   -1.40645798368434     -0.26141728485368     -1.41941191050358
  N   -0.91717098541770      0.15516655456536      1.77465885836703
  O   -2.05480700555114     -0.12341337094813      2.13753875092899
  O   0.05861860508597      0.30068419066490      2.50485648893060
  N   0.71934514375653      0.66152347495444     -1.57566360338220
  H   0.65305164359351      1.66907510255203     -1.65721520475236
  H   1.59050431646072      0.37226457095673     -2.00250674967698
  C   1.21506032729314     -1.14992397802345     -0.01502755336268
  H   1.16269144068683     -1.48318209093428      1.02104155444337
  H   2.26142603052821     -1.20626124698857     -0.32772994364374
  H   0.62378176142820     -1.82287281443832     -0.63630288185972
