17
Coordinates from ORCA-job run
  C   -0.74041915210544      0.57087927129939      0.19557678181731
  C   0.71697008805562      0.41171488687308     -0.21676193545443
  F   -1.12222288917672      1.86917708485292      0.13432938490909
  H   1.27999626363570      1.11070409761913      0.40939400417826
  N   -1.63155457909905     -0.20398638293452     -0.57962215569637
  H   -2.56635457843409      0.17833509041970     -0.49982101570950
  H   -1.64681052374697     -1.16069442970132     -0.25072564509562
  N   -0.81125449887974      0.21795698880032      1.71268668282724
  O   -0.25760048908677      0.99822316495596      2.47678750529551
  O   -1.37036513517448     -0.83187008810107      2.02321710894897
  N   0.80972735223209      0.86883918369870     -1.59360407526816
  H   1.77794965409069      0.87349435928297     -1.88856874247229
  H   0.28807741971148      0.24068304774691     -2.19301418005392
  C   1.21225821158787     -1.01412405531399      0.03171857566512
  H   1.15723969528419     -1.31170448009650      1.08177645649110
  H   2.25772898828910     -1.08556837462147     -0.27618790561658
  H   0.64463417281653     -1.73105936478020     -0.56818084476573
