17
Coordinates from ORCA-job run
  C   -0.74078089720641      0.61560317425521      0.19590747986745
  C   0.69043532873018      0.30451889035241     -0.23981440531864
  F   -0.89687250688130      1.99523900327920      0.14032490474222
  H   1.32349513218947      1.04716449341494      0.26217568545822
  N   -1.72579395656300     -0.04263004829099     -0.52300317937579
  H   -2.36633706418572     -0.57776085959743      0.04053834827259
  H   -1.35133622568446     -0.52566956212769     -1.32594928058609
  N   -0.85116665493515      0.31310944213583      1.69694148038968
  O   -0.12367299634591      0.97585289157826      2.42583557072780
  O   -1.61537094284300     -0.57850867331671      2.05665128354981
  N   0.69962181480428      0.40610014004309     -1.69701804882317
  H   1.61027260766580      0.14111544838350     -2.05150750477227
  H   0.52587278942979      1.36533060400378     -1.97613152504502
  C   1.11609620773210     -1.09488330727142      0.17454516939018
  H   1.16141306969991     -1.19546559560053      1.26001409098388
  H   2.11532522911889     -1.30631659858220     -0.21452283903775
  H   0.42979906527452     -1.84379944265923     -0.22498723042310
