17
Coordinates from ORCA-job run
  C   -0.77999071455362      0.53319820236034      0.27323756592216
  C   0.66454956187955      0.37994806184843     -0.20167967588297
  F   -1.03121836506890      1.89473069114032      0.39141464361856
  H   1.24991065143321      1.09733183923440      0.38745643614982
  N   -1.72503690248536     -0.09698515623209     -0.52062701252063
  H   -1.32702383109948     -0.44632849630856     -1.37962031306003
  H   -2.31972579675257     -0.74319451434930     -0.02776885014904
  N   -0.85204972867216      0.03816513408826      1.72426388511526
  O   -0.16706434665444      0.65630698200717      2.52955612317665
  O   -1.54416025144270     -0.94631220941115      1.96992082522918
  N   0.65041211563984      0.66191199718120     -1.63476591481232
  H   0.41030000692534      1.63444144004229     -1.79201422997829
  H   1.57237010214571      0.50428732872694     -2.02241510261610
  C   1.19096550480118     -1.02652122724494      0.03471814747629
  H   0.55331127073619     -1.76727915453533     -0.45123897747138
  H   1.25674542393497     -1.25587249026928      1.09940239916325
  H   2.19770529923324     -1.11782842827871     -0.38083994936041
