17
Coordinates from ORCA-job run
  C   -0.67555887999009      0.13214096089975      0.30770846092004
  C   0.57015619195409     -0.19064404612551     -0.51740350339508
  F   -0.57042013023958     -0.52626397644195      1.53502750938480
  H   0.36041179655931      0.13754516363557     -1.53733507982871
  N   -0.96120403614348      1.49698416693297      0.43940089138640
  H   -0.19141715224681      1.99658824529911      0.86072537092729
  H   -1.80563865854441      1.63182603837057      0.98326328904214
  N   -1.94228001991282     -0.47528097661300     -0.30253521869595
  O   -1.86408677711479     -1.03522049878248     -1.39145401001408
  O   -2.96230913274560     -0.33345542505343      0.36290115318444
  N   0.89572603929129     -1.60575514194302     -0.56033878068487
  H   0.96125841648477     -1.97325010595634      0.38112750482171
  H   0.17147653789593     -2.11321133298947     -1.05091686332407
  C   1.76911565093504      0.58140827645257      0.02668739004878
  H   2.65758123241423      0.23480364238443     -0.50019110422393
  H   1.90838896239235      0.38493249053262      1.09341556023616
  H   1.67879995901056      1.65785251939761     -0.13108256978507
