17
Coordinates from ORCA-job run
  C   -0.70291199564689      0.49917711583243      0.13554334053611
  C   0.77989861035230      0.34257457350544     -0.20932947134150
  F   -1.09657396595730      1.78354309328678     -0.11126871707122
  H   1.30973900777786      1.05505041503743      0.43028618999896
  N   -1.55023484677561     -0.36737116754794     -0.58133238709444
  H   -1.45973142082568     -1.31646743247984     -0.24423633313050
  H   -2.51503298464064     -0.07763059300906     -0.47110656975731
  N   -0.84119065288481      0.34875018468278      1.67481589340476
  O   -1.37395578724968     -0.67806719865435      2.09206250272397
  O   -0.35444348703849      1.24287451146407      2.35650042731591
  N   1.04800712794322      0.69601577351992     -1.59120712659014
  H   0.81583084622684      1.67007373809512     -1.74566857275970
  H   0.44626076044667      0.14494252517533     -2.19407409378897
  C   1.27129331955390     -1.06872208922782      0.07325684242607
  H   0.79294361027376     -1.78569416326997     -0.60014793757394
  H   2.34374424520400     -1.10790103603361     -0.11666041975868
  H   1.08735761324054     -1.38014825037673      1.10356643246060
