17
Coordinates from ORCA-job run
  C   -0.64755589761532      0.25828438523898      0.56450191589719
  C   0.40345570578762     -0.20446996613394     -0.45071293219470
  F   -0.14795274891571      0.19767048806032      1.81734136515306
  H   0.00158411303047      0.05295594307969     -1.43988026326966
  N   -1.23278384634127      1.54768589450028      0.38646344755700
  H   -0.61627836772636      2.26333184025241      0.74574953013841
  H   -1.45730385843997      1.72107290639949     -0.58365995467647
  N   -1.80775122227665     -0.73032553858575      0.48552184134828
  O   -2.29213371727711     -0.83285473276269     -0.64158909828458
  O   -2.17267567538439     -1.30541490342872      1.49482385510897
  N   0.60446529034965     -1.63710339107180     -0.28282045668600
  H   -0.01257035953485     -2.16182149150021     -0.88915169085563
  H   1.55699674925912     -1.89741564023305     -0.49810446652521
  C   1.70621483378027      0.54462363432189     -0.21816614008051
  H   1.55799021081334      1.62585439044171     -0.21915336365183
  H   2.13713110169832      0.25008971731696      0.73997731895780
  H   2.41816768879284      0.30783646410442     -1.01214090793612
