17
Coordinates from ORCA-job run
  C   -0.76280993803610      0.51313399323868      0.25979888299432
  C   0.71712207792320      0.42163526497151     -0.14839744801204
  F   -1.08173118498414      1.85442116513688      0.26553501791666
  H   1.24325217008615      1.10219284383343      0.52851780468658
  N   -1.69999821516432     -0.20857712540797     -0.49263913975670
  H   -1.36852142763718     -0.41763095031341     -1.42138813580432
  H   -2.02287453254674     -1.03408336728394     -0.00996068010611
  N   -0.86083018002003      0.07896835345679      1.72324620457539
  O   -1.35442474661694     -1.01915644398228      1.97088281425506
  O   -0.36329257120912      0.84495311731429      2.53743774862758
  N   0.93999639838309      0.88929346023952     -1.50407257761949
  H   0.47336137293731      1.77140625649708     -1.67257736149701
  H   0.64749732660797      0.21187069402830     -2.19720164372591
  C   1.26392599174359     -0.98516990926727      0.01534361899618
  H   1.23881134911960     -1.31685787352340      1.05428380947080
  H   0.69110904411665     -1.70115704012212     -0.58127980872959
  H   2.29940706529701     -1.00224243881610     -0.32652910627142
