17
Coordinates from ORCA-job run
  C   -0.67843094717407      0.67743227860342      0.21773097355850
  C   0.72081374213886      0.24425366246188     -0.21751502659758
  F   -0.69427474599780      2.06684210389239      0.22747564333798
  H   1.41763861844476      0.89475273299295      0.32614815868518
  N   -1.71319040852407      0.15643092148457     -0.54250317890500
  H   -1.37695317271187     -0.32336233096388     -1.36407473216732
  H   -2.41329941816066     -0.33664878983461     -0.01249323231939
  N   -0.84152748275341      0.31707447657079      1.70110229302310
  O   -1.69556190918999     -0.51014842069665      2.00891501749395
  O   -0.06324782063986      0.86881097993990      2.46899051771414
  N   0.76249005950342      0.41288558573511     -1.66807553995266
  H   1.64794091969820      0.07532561224616     -2.02485088470625
  H   0.69004692176222      1.39697973698446     -1.90182114442203
  C   0.99787293624686     -1.20887357683756      0.13291965864761
  H   1.01487632528913     -1.36505191688080      1.21264400851684
  H   0.24713669670346     -1.86537380213285     -0.31075303812670
  H   1.97766968536483     -1.50032925356528     -0.25383949378037
