17
Coordinates from ORCA-job run
  C   -0.68187897199407      0.63204838834473      0.21853543147626
  C   0.75780406422820      0.34793451998405     -0.18911276131881
  F   -0.92996000141304      1.96360699794394      0.22249784231852
  H   1.37995796344787      0.95531486362871      0.47550248063276
  N   -1.63552633569387     -0.00841966135276     -0.60466678920119
  H   -1.76065008964636     -0.97019514948421     -0.31579636908064
  H   -2.52489321016231      0.46965534827406     -0.52074342579371
  N   -0.80869973084984      0.20865935418224      1.71347406493888
  O   -0.19568024837899      0.89177996350508      2.52388281446921
  O   -1.46698599603947     -0.79944364690097      1.96159106959627
  N   0.91315178725661      0.86077634063842     -1.54081227995139
  H   0.34187206413794      0.31478493203531     -2.17462274453019
  H   1.88131892693853      0.78344581193707     -1.82600956096854
  C   1.10502798316206     -1.13086031532004     -0.00898948024947
  H   1.01059372923860     -1.47198935102260      1.02486377037157
  H   2.14099113390270     -1.29212294567626     -0.31503386187073
  H   0.47355693186544     -1.75697545071676     -0.64556020083881
