17
Coordinates from ORCA-job run
  C   -0.67709738785432      0.56731927223381      0.40829643522922
  C   0.59805422940399      0.28651834631028     -0.39026280810440
  F   -0.38038445127040      1.47815309086926      1.39024517272622
  H   0.98192650131410      1.29595138365295     -0.58044468646513
  N   -1.75969801859547      0.95793759345004     -0.37746524632910
  H   -1.50462892666841      1.09966227846579     -1.34328399707785
  H   -2.31710939211534      1.68748366561626      0.03783294634201
  N   -1.07508834361982     -0.71240666517365      1.18154969034157
  O   -1.24121344016276     -0.65618382906799      2.39169466938224
  O   -1.20317371440619     -1.70817547259024      0.47479128584000
  N   0.25428828149313     -0.28160266176031     -1.68659221338194
  H   1.07401116450992     -0.29773019590313     -2.28019541149192
  H   -0.07480135587743     -1.23210284570522     -1.56365518821028
  C   1.63130183710602     -0.47706071136986      0.43461117452573
  H   1.76265909150421     -0.02941872455284      1.42292113993992
  H   1.33487914318620     -1.52066781346654      0.55718781175372
  H   2.59607478205257     -0.45667671100861     -0.07723077502000
