17
Coordinates from ORCA-job run
  C   -0.72735852095483      0.59264372380599      0.29353683844504
  C   0.69755413733939      0.32342042451004     -0.18870285114449
  F   -0.85191842098552      1.96673078683205      0.46008042871911
  H   1.34606820778748      0.96120155720828      0.42529094035343
  N   -1.72507129115549      0.08070537803795     -0.52042318844079
  H   -2.37856390497355     -0.52388710377413     -0.04971369214598
  H   -1.36037043973985     -0.27333743852675     -1.39209933595684
  N   -0.84776270931202      0.05580441795477      1.72635173655421
  O   -0.10762393706139      0.57698738450840      2.55126697924645
  O   -1.63195268401584     -0.86516246402420      1.93926742122200
  N   0.71223216786754      0.65769553521211     -1.61048828704822
  H   0.56114564681122      1.65301040503150     -1.73163994933510
  H   1.61705233480004      0.43185032078734     -2.00469753273806
  C   1.09071940039498     -1.13350814767050     -0.00484647685262
  H   2.08572255950236     -1.30249852106577     -0.42427508783475
  H   0.38851692637773     -1.79350377729877     -0.51748909832035
  H   1.13161052731776     -1.40715248152830      1.05058115527698
