17
Coordinates from ORCA-job run
  C   -0.58202262477000      0.71954837562567      0.39121873543669
  C   0.63413417908389      0.27051016554525     -0.42301984147507
  F   -0.18029375673764      1.58821933693183      1.36149746607337
  H   1.08302613073149      1.22044961311159     -0.73192665932101
  N   -1.56567027925787      1.28777744087092     -0.41356569146148
  H   -1.62165387377674      0.78865149028976     -1.29192507227433
  H   -2.46109413008027      1.39408848681210      0.04115846380614
  N   -1.09498850095938     -0.51757128293526      1.18331806219939
  O   -1.55960125849057     -1.41286151157052      0.47776221565836
  O   -0.98784559582023     -0.54369393044224      2.40147792628636
  N   0.18688060810651     -0.40774820275904     -1.63473174069672
  H   0.93363288539759     -0.41870227683423     -2.31734540562567
  H   -0.06785707975697     -1.36534055314526     -1.42298259138248
  C   1.62973463280651     -0.50128137060153      0.43826951281794
  H   2.56128750304448     -0.64133507053407     -0.11421037488636
  H   1.85512788557394      0.02958749566438      1.36523395447745
  H   1.23820327490527     -1.49029820602934      0.69177104036743
