17
Coordinates from ORCA-job run
  C   -0.53072327147686      0.68227744817242      0.31319370848067
  C   0.75208679533311      0.22869115066674     -0.40248484265939
  F   -0.22791467771170      1.62393767072129      1.24219931407251
  H   1.22322356477512      1.18224762205119     -0.66570619387315
  N   -1.50276448082105      1.21031004436798     -0.56706651029460
  H   -2.24167493821291      1.66140078385049     -0.03982306752196
  H   -1.89732561620131      0.47245335597958     -1.13422955279101
  N   -1.07784701847477     -0.52201979367823      1.11180803971283
  O   -0.95205164420005     -0.54974648384798      2.32737728798875
  O   -1.56886165501333     -1.40825857413590      0.40934170184697
  N   0.55248996789897     -0.51209706104811     -1.63062859118910
  H   0.01637001793298     -1.35459246690264     -1.46295163280530
  H   0.08236661970126      0.05212783872565     -2.32621820484629
  C   1.66774431274216     -0.54131516354839      0.53731864913883
  H   1.79453642736116     -0.02286128024643      1.48897362407896
  H   1.26895818112361     -1.53973258860342      0.73839350771699
  H   2.64038741524363     -0.66082250252426      0.06050276294431
