17
Coordinates from ORCA-job run
  C   -0.60012406981551      0.62046071801365      0.40981366323990
  C   0.68746353324479      0.25557033138459     -0.36473105706085
  F   -0.25657896545171      1.51300166036018      1.37558846708097
  H   1.10133464806201      1.23640696282091     -0.63380325933038
  N   -1.70816477053305      1.14352686685406     -0.31033316963492
  H   -2.11336176911490      0.43608433845286     -0.90708538691350
  H   -1.42622106490090      1.94913238878987     -0.85467226374424
  N   -1.10287617195163     -0.63215776613224      1.10747430990203
  O   -0.90626649934077     -0.75284971235157      2.30621855313984
  O   -1.62097925729263     -1.46528244344737      0.36227613666301
  N   0.49234268402473     -0.48991497170689     -1.59200828308379
  H   0.04805008387692     -1.37989996105401     -1.40000525131000
  H   -0.08745645813079      0.01934320929579     -2.24639553420054
  C   1.68474136291989     -0.47094672096167      0.52678615115725
  H   2.64050081058349     -0.54090278860708      0.00752993051367
  H   1.34351984171912     -1.48906102389725      0.73667363095410
  H   1.82507606210092      0.04548891218617      1.47667336262746
