14
Coordinates from ORCA-job run
  C   -0.88027952804042      0.13921885354526     -0.20443378616780
  C   0.43635573110322      0.17031885029591      0.19428257791474
  N   -1.54288099252166     -1.02085738880568     -0.75817619148084
  O   -2.70914996257621     -0.86159401690626     -1.11533714536623
  O   -0.91790620332990     -2.07873184490953     -0.83881984912121
  C   -1.67909911015837      1.30756077389134     -0.08707326057245
  N   -2.21310336503029      2.34534833585801      0.06849639300134
  C   1.39159538328323     -0.98271160194851      0.10220249119521
  H   1.44951425229135     -1.35842283341820     -0.91766817287914
  H   2.38413787198258     -0.67413427451437      0.43563833817383
  H   1.04853343408913     -1.81007730328852      0.72244149637177
  N   0.92794062972745      1.29150702103758      0.76790169793012
  H   0.38184892102298      2.14020215167960      0.76923575557179
  H   1.92349293815691      1.39237327748339      0.86130965542887
