14
Coordinates from ORCA-job run
  C   -0.79531359893474      0.00538203370535     -0.38525231688606
  C   0.39489994029798      0.01933970300865      0.31270414538952
  N   -2.08061902176774      0.25258125342047      0.22424003977599
  O   -3.07422236360148      0.16884440014746     -0.49205563396791
  O   -2.11248434393182      0.53701640406641      1.43051359423507
  C   -0.83633212265694     -0.31637861032893     -1.76867636755626
  N   -0.80596884739007     -0.58812566617794     -2.91316782338030
  C   1.67979112622760     -0.24147525298730     -0.42110508781371
  H   2.10267617244012      0.70738930529971     -0.76183472202782
  H   1.52916016239305     -0.87656054547177     -1.29163269089227
  H   2.40452260224722     -0.72082782541797      0.24081648994022
  N   0.51595333791003      0.35194219211516      1.60517002795233
  H   1.39800079515840      0.21307947821172      2.06640406058811
  H   -0.32106383839162      0.48979313040899      2.15187628464307
