14
Coordinates from ORCA-job run
  C   -0.85782300170335      0.16828458202016     -0.27501822157025
  C   0.44208582928604      0.16916025555899      0.17789554785253
  N   -1.54244631124209     -0.99183237583414     -0.80010341866665
  O   -2.72719381732889     -0.83779486920801     -1.09288225086149
  O   -0.91508669525416     -2.04418862990598     -0.92524475361892
  C   -1.62351346138155      1.36265026556358     -0.20692411582175
  N   -2.12138576815404      2.42244247525260     -0.08212979634934
  C   1.34734820572286     -1.02638443564858      0.19948230299148
  H   1.52817534510010     -1.38481010416518     -0.81335955541662
  H   2.30120083228240     -0.76785063009732      0.66301770600597
  H   0.88937917091043     -1.85019674249280      0.74488025295554
  N   0.99747741055800      1.32979111415021      0.59173076990460
  H   1.85780707212898      1.29929982138673      1.10996566832634
  H   0.42297518907527      2.15142927341974      0.70868986426855
