14
Coordinates from ORCA-job run
  C   -0.80605586552121      0.16940693742762     -0.40800843561047
  C   0.41912064591699      0.16720268715964      0.22039882136810
  N   -1.53214632850431     -1.02281875511998     -0.78050810245505
  O   -2.52043168807876     -0.85999393617321     -1.49562409895019
  O   -1.13951260490457     -2.11079037248855     -0.35499995749432
  C   -1.42127082147705      1.40409828486860     -0.74539230783869
  N   -1.80070909813382      2.50052006198970     -0.94872966841025
  C   1.20484361172390     -1.05984664067124      0.57811411635675
  H   0.73556767497423     -1.55974024334487      1.42638213250499
  H   2.22408899846256     -0.78454925732773      0.85689228407203
  H   1.22265151701020     -1.77639151121278     -0.23800544108587
  N   0.96745043393418      1.33984317710828      0.59950038757199
  H   1.92377633331028      1.37115721162069      0.90204129196689
  H   0.52362719128739      2.22190235616382      0.38793897800409
