14
Coordinates from ORCA-job run
  C   -0.86001536884460      0.17321223417731     -0.26141991518790
  C   0.43852098327339      0.16228248188248      0.19516933883598
  N   -1.52522472442774     -0.95840243771951     -0.86730554049593
  O   -0.89742676957085     -2.00786978175954     -1.01217831007837
  O   -2.69616891783033     -0.78537164390775     -1.20207538711917
  C   -1.63978268411131      1.35324124842914     -0.13333200092750
  N   -2.15670395230222      2.39672188196925      0.04225006234383
  C   1.36093386253592     -1.01881740291074      0.13901816765447
  H   1.51759135760278     -1.33094250810459     -0.89304161813866
  H   2.32429166254038     -0.76527192387362      0.58530256295965
  H   0.93084560805885     -1.87355864815161      0.65870989334541
  N   0.97528315562361      1.30048803932893      0.68819246851150
  H   1.83866800831328      1.25026027588106      1.19974335660500
  H   0.38918777913886      2.10402818475919      0.85996692169170
