14
Coordinates from ORCA-job run
  C   -0.84672784446832      0.11995113828494     -0.33865037995399
  C   0.39137758562016      0.18451029124184      0.25572644038611
  N   -1.45304187875690     -1.09626993243014     -0.82880381914853
  O   -2.39279136073719     -0.96168379917220     -1.61090781473115
  O   -1.01231183430904     -2.17540513492343     -0.43054973716642
  C   -1.54908006981627      1.32241471338219     -0.62189464075192
  N   -1.97673497849984      2.40441902763297     -0.80457326347799
  C   1.29201383474209     -0.99051785922890      0.49942752517482
  H   0.96523854103573     -1.52744750718621      1.39099446099729
  H   1.26505940460751     -1.69598812492049     -0.32472926039675
  H   2.31482768375051     -0.64343836350703      0.65579025139523
  N   0.84357038186674      1.37178771012202      0.72149250887785
  H   1.82312200373362      1.46901690942549      0.92541527318887
  H   0.33547853123120      2.21865093127895      0.51126245560658
