14
Coordinates from ORCA-job run
  C   -0.81104750081550      0.11302404496613     -0.34343306351302
  C   0.40752024087037     -0.03040125180308      0.28888894488831
  N   -2.06893827213717      0.19474126498200      0.36019212426014
  O   -3.08499542429345      0.35724363212102     -0.30963387074551
  O   -2.05610974629942      0.09724150616268      1.59626179452936
  C   -0.90608183319830      0.18929042054542     -1.75928913385295
  N   -0.92426472136298      0.24607513162124     -2.93448882956582
  C   1.66142439782590     -0.14559948045181     -0.53147227693770
  H   1.53734048611317      0.26717959918081     -1.53018074737432
  H   2.48259610270701      0.37750247577433     -0.03606784372460
  H   1.93420516868772     -1.20044253876411     -0.62947854547888
  N   0.57170454509372     -0.11117876809697      1.61463322035418
  H   1.49157008385014     -0.24537485828850      1.99665150696826
  H   -0.23592352704122     -0.11030117794919      2.21841672019260
