14
Coordinates from ORCA-job run
  C   -0.87330794653423      0.15517507723361     -0.22601259464355
  C   0.42489057942009      0.15085370793469      0.23137463799260
  N   -1.49718371007430     -0.94193727919529     -0.93163070137425
  O   -2.64678120696613     -0.75155174442674     -1.32560249452642
  O   -0.85898378416293     -1.98289991019922     -1.09240215986336
  C   -1.68579220445950      1.30219072992170     -0.02417087220014
  N   -2.23113327507478      2.31770652106809      0.21683579258496
  C   1.39383108042380     -0.98094640698324      0.06129933336049
  H   2.36934967308030     -0.70617690152041      0.46718202578064
  H   1.03234376330004     -1.87152956043402      0.57492518225700
  H   1.49807667566099     -1.25042055027493     -0.98836728187326
  N   0.88020317462952      1.20941709751968      0.93735862981904
  H   0.32702509416656      2.05147043841706      1.00057454118875
  H   1.86746208659056      1.29964878093902      1.09963596149750
