14
Coordinates from ORCA-job run
  C   -0.77353635038432      0.15141643044036     -0.40026024923661
  C   0.37982360683176     -0.07407618112899      0.32331761024637
  N   -2.04576618646339      0.46607837544184      0.20348713746992
  O   -2.09706974454567      0.58032423412272      1.43726787294321
  O   -3.01027686047216      0.60484408207886     -0.54324390320351
  C   -0.78725116367630      0.03920077031391     -1.81666979228154
  N   -0.73285971648745     -0.06623637171337     -2.98736260345873
  C   1.65534654356716     -0.38537975814432     -0.40752970473946
  H   1.46772438517381     -0.89169848465924     -1.35240835500964
  H   2.18900894299213      0.54463637153442     -0.62204327510851
  H   2.30052833945410     -1.01747297132789      0.20684809143115
  N   0.48126547108434      0.05366492224100      1.65260608759330
  H   1.32739902996209     -0.23338722188945      2.11246902096751
  H   -0.35333629703611      0.22708580269017      2.19252206238652
