14
Coordinates from ORCA-job run
  C   -0.79827602625964      0.04972647715401     -0.37426994730026
  C   0.40772643574505      0.03429539688900      0.29667308735109
  N   -1.99081041392640      0.67846219365884      0.14063672622833
  O   -2.99394615536115      0.65939207396379     -0.56688937690945
  O   -1.94063377913256      1.19801561220710      1.26532902473023
  C   -0.92767850613258     -0.52364613718273     -1.66797889329495
  N   -0.97164544016382     -1.01870801546778     -2.73458200483212
  C   1.58388669641296     -0.66080172596477     -0.32845085353717
  H   1.58519382350880     -1.71372796382882     -0.03419573889055
  H   2.51829065720805     -0.20905103553934      0.01157117608159
  H   1.54933377307014     -0.61576193608729     -1.41535445002036
  N   0.59807281372218      0.51947867694892      1.53039983173322
  H   1.53037119948110      0.57170532558578      1.90167754206210
  H   -0.15088507817215      1.02962105766328      1.97443387659828
