14
Coordinates from ORCA-job run
  C   -0.76944272754786      0.06312706716491     -0.43116211411908
  C   0.37433071192004     -0.02660107476762      0.33572593417004
  N   -2.09732021356585      0.16864076650032      0.12545799901791
  O   -2.22080022406688      0.13315950358229      1.35857716750816
  O   -3.03407968333160      0.28784635147710     -0.65907201350686
  C   -0.70597393063383      0.10643794031823     -1.85002014488819
  N   -0.59126937461249      0.13808536582670     -3.02069699311312
  C   1.70927389191029     -0.14501450803424     -0.34327390642428
  H   1.97174099227962     -1.20189494345356     -0.44356661088258
  H   2.48191042918306      0.34509899124945      0.25347321867045
  H   1.70221223947504      0.29761613598467     -1.33724523750522
  N   0.38965741474412     -0.11102023864542      1.67265143664567
  H   -0.47596158180282     -0.00012498642333      2.17915045754979
  H   1.26672205604915     -0.05535637077951      2.16000080687731
