14
Coordinates from ORCA-job run
  C   -0.83373249498549      0.09028922790136     -0.29298922478561
  C   0.42525513873648     -0.02518591941314      0.26013495286734
  N   -2.05076878949453      0.06892101400568      0.48501651992209
  O   -3.11289528738693      0.18428562187848     -0.11970409508987
  O   -1.95902109567570     -0.06206730977887      1.71435921801613
  C   -1.02294808741619      0.22454790312032     -1.69546076346943
  N   -1.12415789789152      0.33118635355170     -2.86298664848956
  C   1.63644955595940     -0.03029413893350     -0.62863635655181
  H   2.40321239319236      0.62783679932524     -0.21292855702337
  H   2.04441183272496     -1.04400271526758     -0.68013877110495
  H   1.40695244272211      0.29598871166387     -1.64033015475612
  N   0.67321489933646     -0.13602875567083      1.57189459988272
  H   1.61300451863606     -0.30177003639821      1.88694289989922
  H   -0.09897712845747     -0.22370675598449      2.21482638068322
