14
Coordinates from ORCA-job run
  C   -0.77585209013388     -0.08943851961587     -0.41589489523658
  C   0.37765325506558      0.05817845615838      0.32648512254252
  N   -2.10069422896012     -0.08143046072921      0.15932926648073
  O   -2.20370649070290      0.00659400748093      1.39150511296270
  O   -3.05394693823534     -0.17038396384060     -0.60880345749051
  C   -0.73494330275061     -0.19856459526622     -1.83260597822063
  N   -0.63784281238417     -0.28696323847591     -3.00180674343060
  C   1.70994760204614      0.03322783864184     -0.36807870132730
  H   1.63545531349959      0.35499531583782     -1.40476022762975
  H   2.10706778629994     -0.98546763291158     -0.35579697988760
  H   2.41768221541328      0.68270508410378      0.15241589111911
  N   0.41957126907657      0.12676676259074      1.66403587588908
  H   -0.44670816414844      0.19244471813734      2.17731828191794
  H   1.28731658591435      0.35633622788856      2.11565743231090
