14
Coordinates from ORCA-job run
  C   -0.87002722630348      0.16888981042557     -0.22506514201187
  C   0.44092052696907      0.16049057191142      0.19441277186182
  N   -1.52757394524466     -0.94027423367962     -0.88069106641743
  O   -2.70279339645636     -0.76425880509339     -1.19784050759603
  O   -0.88907635792223     -1.97408414471729     -1.08079046730416
  C   -1.67656852955372      1.31381616547040      0.00743687924126
  N   -2.21721469300730      2.32645554038334      0.27001446665611
  C   1.39314873475217     -0.98308706902658      0.01760707695939
  H   1.02732864007390     -1.87766350320761      0.51946033711200
  H   2.37652609821909     -0.71735327952051      0.40989779762463
  H   1.48643839670822     -1.24396380710919     -1.03694965871951
  N   0.95873411299002      1.27279177031931      0.76047586834986
  H   1.84419620869969      1.21604998343140      1.23095451911413
  H   0.35596143007559      2.04319100041278      1.01007712512980
