14
Coordinates from ORCA-job run
  C   -0.79608412988907      0.15433933692688     -0.43233562615244
  C   0.41500234593723      0.16991334715212      0.21446495494354
  N   -1.48111969088794     -1.04904380522642     -0.86902112185849
  O   -1.16049325019804     -2.12577848449582     -0.36493697912544
  O   -2.35685364420616     -0.89971936347450     -1.71990078396083
  C   -1.46541373355413      1.36915958854436     -0.73561020855492
  N   -1.91954353074164      2.43936452562389     -0.92434318871562
  C   1.24619259439038     -1.02933735744194      0.56354814414010
  H   1.02551208717607     -1.32517804176132      1.58995005863415
  H   1.04908808573937     -1.87420869507084     -0.08450144887298
  H   2.30217524809477     -0.75677730663758      0.50907878523017
  N   0.96969427122102      1.35883089904176      0.55460413823746
  H   0.41755400012072      2.20245058689865      0.51953188009025
  H   1.75728934679741      1.36498476992074      1.17847139596506
