14
Coordinates from ORCA-job run
  C   -0.78367698852980     -0.01669159697451     -0.40456604315253
  C   0.39057882350957      0.06471234032681      0.31592165644297
  N   -2.04918468744429      0.48840336984361      0.07042850401123
  O   -3.01702980644043      0.39173310590627     -0.67873918632758
  O   -2.09207072598226      0.98885275154104      1.20415675951275
  C   -0.80510307232564     -0.56948045255534     -1.71332055986134
  N   -0.75696090514191     -1.03759884111562     -2.79178499232008
  C   1.64921261579070     -0.50555082819464     -0.27436277049351
  H   1.66913722911995     -0.40204326023022     -1.35788138436502
  H   1.71290004651524     -1.57104063547549     -0.03742249284857
  H   2.52737782301033     -0.00768287209088      0.14204247244510
  N   0.48498277402697      0.53557347519334      1.56633213932411
  H   1.39342838061127      0.67257151070269      1.97325121666839
  H   -0.32459150671968      0.96924193312293      1.98494468096409
