14
Coordinates from ORCA-job run
  C   -0.80588505127749      0.18532252970553     -0.32465260945498
  C   0.41092429321123     -0.06393137310238      0.27603227011773
  N   -2.03825653464410      0.35299419781404      0.41057908447673
  O   -2.00100454466803      0.26220718164072      1.64627808012316
  O   -3.05778815035657      0.57840017828180     -0.23501455606356
  C   -0.93584282354908      0.26747578587214     -1.73784180684427
  N   -0.98652383056127      0.32580327783491     -2.91193977867508
  C   1.63582518893045     -0.26804169437776     -0.56968002706210
  H   1.48356246590812      0.04904127073973     -1.59868594346227
  H   2.47212512334836      0.29515313505574     -0.14891450574283
  H   1.90371569416416     -1.32864792478985     -0.57354786517501
  N   0.60733298817679     -0.13088442758997      1.59998269630875
  H   1.50360657063670     -0.42027759368648      1.95091402067992
  H   -0.19079138931925     -0.10461454339819      2.21649094077385
