14
Coordinates from ORCA-job run
  C   -0.78803182573367     -0.02751723257340     -0.41321396977549
  C   0.38411632054214      0.02924852465397      0.31353712879851
  N   -2.10060493481176      0.00869356755565      0.18911180598111
  O   -3.07106956854859     -0.03221819685497     -0.56177466064202
  O   -2.17767233317264      0.07751065534989      1.42455756623451
  C   -0.78365324108557     -0.11434776957821     -1.83202268347542
  N   -0.72391447437924     -0.18515830038108     -3.00502057115493
  C   1.70996743631506     -0.02647962822520     -0.39130783357907
  H   2.32937986777780      0.81718064429907     -0.07567916846053
  H   2.22760782383962     -0.95048757144666     -0.11796237594589
  H   1.60616315939867      0.00350419530830     -1.47322733568715
  N   0.44803301631364      0.11718611746698      1.64776913263553
  H   -0.40279387357120      0.13836555177666      2.18871948381747
  H   1.34245884561437      0.14451395978688      2.10451361681719
