14
Coordinates from ORCA-job run
  C   -0.81872686960709      0.09979048350644     -0.40327832630089
  C   0.41378714465258      0.21033637521272      0.19738715968703
  N   -1.43040597665196     -1.15835911076035     -0.76799248237630
  O   -0.97000991405027     -2.19662820263005     -0.28967351276702
  O   -2.38959468594481     -1.09932719015897     -1.53410723905343
  C   -1.55988539750636      1.26918621758591     -0.71511849235212
  N   -2.06354874117948      2.31703812081606     -0.89991338379719
  C   1.29626095501160     -0.94281752238628      0.56892129347499
  H   0.86946733225053     -1.48242793782396      1.41536242028388
  H   1.37608928519669     -1.66033264130055     -0.24431840833785
  H   2.29285390967778     -0.58270505596264      0.83183136918575
  N   0.90987127690175      1.43688456266330      0.46663741073768
  H   0.33940714058727      2.25929922467435      0.34098573430092
  H   1.73443454066177      1.53006267656403      1.03227645731457
