14
Coordinates from ORCA-job run
  C   -0.85451492917168      0.12479663799664     -0.30569945592916
  C   0.37856381391659      0.13251724395502      0.30699709778560
  N   -1.25678147054293     -0.81521642663574     -1.32601013172324
  O   -0.43466174375585     -1.63047738706265     -1.74355334495096
  O   -2.41948620249252     -0.72391665802926     -1.71709190257536
  C   -1.84417473636549      1.05531743974972      0.10924414722878
  N   -2.53771190629932      1.88908889764792      0.56868691438071
  C   1.51093421450271     -0.78964548875201     -0.03148065136435
  H   1.78635657885361     -0.68789394805001     -1.08006729937681
  H   2.37719907483207     -0.57347645514727      0.59617751604027
  H   1.21395162500305     -1.82720277219194      0.11510752665817
  N   0.60789389405625      1.00143670234139      1.31404503070164
  H   1.54162611358107      1.12607458587458      1.66124113920860
  H   -0.06819432611757      1.71959762830362      1.53240341391611
