14
Coordinates from ORCA-job run
  C   -0.78160194129759      0.02598096675868     -0.40845821120942
  C   0.38559657367068      0.01721883481052      0.32787821952348
  N   -2.07780939211791      0.32229036371621      0.15177188898553
  O   -3.03865596883969      0.33118816543057     -0.61243057265822
  O   -2.15250488215628      0.54632810405462      1.36903079429210
  C   -0.76669232623392     -0.21481492239650     -1.80853044812843
  N   -0.68572050470611     -0.42051494943756     -2.96435235700631
  C   1.67841067241879     -0.31951176383206     -0.36009154750041
  H   1.69358528151858      0.03996069292356     -1.38753053925121
  H   2.52336472155019      0.11650963827532      0.17662420382677
  H   1.80774881696405     -1.40486295814352     -0.38255087842047
  N   0.45070264963917      0.19878274062548      1.65316367507459
  H   1.34835474416218      0.29296015351649      2.09462478439047
  H   -0.38577844457214      0.46948493369820      2.14885098808153
