14
Coordinates from ORCA-job run
  C   -0.77741278090490     -0.12472584422246     -0.41486585797975
  C   0.46643843619539      0.09895196838478      0.13897285903829
  N   -1.09755433775358      0.15641152355644     -1.79577578662039
  O   -2.24264576863371     -0.07847118336151     -2.17076219338000
  O   -0.20488693467078      0.61482721137115     -2.52310681006792
  C   -1.85630913843036     -0.63768835822317      0.35588129700718
  N   -2.70802385694623     -1.07452547956392      1.04001183531209
  C   0.71452562891125     -0.22064161408882      1.58608920349453
  H   1.48121460231373     -0.99614862747532      1.66043391997082
  H   1.07844567217434      0.67262707652120      2.10180565537478
  H   -0.18140168147282     -0.57076871544754      2.09290240303715
  N   1.53268150142843      0.54755907921762     -0.53788907129094
  H   2.37407919233623      0.77443488688775     -0.03692794527121
  H   1.42184946545298      0.83915807644381     -1.49676950862461
