14
Coordinates from ORCA-job run
  C   -0.83275595071573      0.12712060201923     -0.35577939479897
  C   0.41049158560627      0.18951290214512      0.23148110703834
  N   -1.46755375805187     -1.09293461191705     -0.80302451060305
  O   -2.56014578813679     -0.96592878266476     -1.35398945845788
  O   -0.89667202422197     -2.16657560895185     -0.60769992652130
  C   -1.56606496851332      1.32248420576142     -0.58184980713246
  N   -2.04867951845419      2.38855337067875     -0.71189962596602
  C   1.29969012669312     -0.98987431027394      0.49038452719055
  H   1.48225858951055     -1.54794467210410     -0.42638349303387
  H   0.82392388279435     -1.68140512851720      1.18509383338660
  H   2.25084223050956     -0.65834733073833      0.91057709075893
  N   0.87522684957550      1.38018565966932      0.66935787781929
  H   0.38377554196474      2.23160321647883      0.44050192961050
  H   1.84566320143975      1.46655048841454      0.91522985070932
