14
Coordinates from ORCA-job run
  C   -0.78841776299094      0.05585966691177     -0.40010002272859
  C   0.39227463777048      0.00666963000150      0.31231925196482
  N   -2.03394678348194      0.53241681471779      0.15414327322255
  O   -3.00208658907146      0.59709081236060     -0.59773692351937
  O   -2.05935112028360      0.84778812191632      1.35286454732096
  C   -0.84194401801896     -0.31062169917129     -1.77232832573625
  N   -0.82797528697272     -0.63148655877621     -2.90436350313066
  C   1.63829265957092     -0.50393461053410     -0.35406267445725
  H   2.50930815839341      0.04918797584821      0.00458685426661
  H   1.59010713507648     -0.41392942272208     -1.43708335646166
  H   1.77682248185059     -1.55938826312375     -0.10459470943569
  N   0.50950885918452      0.30348889502095      1.61335689443651
  H   1.42365530147924      0.34932317542240      2.02825789791501
  H   -0.28724767250602      0.67953546212788      2.10474079634302
