14
Coordinates from ORCA-job run
  C   -0.83813037428130      0.14904825046815     -0.32886656070384
  C   0.41904675402735      0.17367455869321      0.23272714021600
  N   -1.43200889972936     -1.01051165085716     -0.95806622457739
  O   -0.74155172428570     -2.01228006479047     -1.14221518092747
  O   -2.61546628063220     -0.90131772526833     -1.27911168472381
  C   -1.63436184350677      1.32477152014896     -0.32213765940751
  N   -2.17673622331469      2.36808679048634     -0.26259199504725
  C   1.34266142060736     -1.00512385901876      0.32213851026763
  H   2.20139634625378     -0.76855836928836      0.95295412856762
  H   1.69723774765915     -1.26586862083717     -0.67597218122988
  H   0.82687273054750     -1.88145974095966      0.70499422732141
  N   0.89966138766439      1.33596556872875      0.72188544264450
  H   0.31753311760164      2.16007969460493      0.75457485888578
  H   1.73384584138885      1.33449364788957      1.27968717871421
