14
Coordinates from ORCA-job run
  C   -0.85713417954159      0.14674999519463     -0.31183650416626
  C   0.38789096637632      0.14173414182475      0.27217600693663
  N   -1.46938095185072     -0.97203191564395     -0.99827585395064
  O   -0.84755343706608     -2.02857609499294     -1.11104154446094
  O   -2.60813790788875     -0.78170472718216     -1.42453334657730
  C   -1.58999927380631      1.36339454405791     -0.36176307122753
  N   -2.07038402899406      2.43805312649911     -0.31822755623657
  C   1.29604105066887     -1.04694805664119      0.38831225721737
  H   0.76143353728625     -1.98270662696351      0.32157509106125
  H   1.82251457461311     -0.99169083657845      1.34353401389577
  H   2.04901200191269     -1.01756263621702     -0.40551662788824
  N   0.86588122895868      1.26898930670753      0.85146323480880
  H   1.84680359382556      1.30573385021679      1.05625219571281
  H   0.41301282550603      2.15756592971849      0.69888170487483
