15

C	0.0	0.0	0.0
C	-0.623418	-0.085774	-1.382039
F	1.383146	0.0	0.0
H	-1.665561	-0.404641	-1.13398
H	-0.335621	0.946661	0.428802
C	-0.457692	-1.153211	0.869931
H	-0.009725	-1.069174	1.864606
H	-0.136444	-2.102918	0.428213
H	-1.54843	-1.084146	0.910695
C	0.069298	-1.050029	-2.226422
N	0.586169	-1.851436	-2.914436
N	-0.666393	1.257576	-2.00775
H	-1.516233	1.653801	-1.610115
H	-0.854435	1.140576	-2.998649
F	-2.893567	0.0	0.0
