15

C	0.0	0.0	0.0
C	-0.323516	-0.141619	-1.518341
F	1.391729	0.0	0.0
H	0.412845	-0.885264	-1.855896
H	-0.34147	0.962568	0.387879
C	-0.571052	-1.132575	0.806793
H	-1.662514	-1.003493	0.755147
H	-0.225219	-1.076052	1.843812
H	-0.26227	-2.096052	0.386092
C	0.070869	1.122722	-2.180737
N	0.359026	2.132293	-2.707486
N	-1.643828	-0.538988	-1.955013
H	-1.685204	-1.54926	-1.881291
H	-2.358799	-0.192544	-1.239153
F	-3.16161	0.0	0.0
