15

C	0.0	0.0	0.0
C	-0.368324	0.063606	-1.478465
F	1.400114	0.0	0.0
H	0.10178	0.995209	-1.844143
H	-0.347351	0.895008	0.513058
C	-0.404586	-1.262654	0.724962
H	-0.064248	-2.127734	0.152676
H	0.084777	-1.27786	1.706492
H	-1.490805	-1.231064	0.799209
C	-1.798965	0.157456	-1.861915
N	-2.533632	0.26863	-2.786065
N	0.20386	-1.111701	-2.159874
H	-0.08082	-1.077691	-3.130467
H	1.213761	-1.040755	-2.114551
F	-2.630813	0.0	0.0
