15

C	0.0	0.0	0.0
C	-0.372859	-0.213403	-1.49469
F	1.391284	0.0	0.0
H	0.511504	-0.709601	-1.916721
H	-0.337648	0.978876	0.342911
C	-0.528643	-1.078739	0.906252
H	-0.137068	-0.921604	1.916692
H	-1.619345	-0.97496	0.888593
H	-0.229306	-2.065734	0.548237
C	-0.429944	1.111469	-2.165995
N	-0.478804	2.132895	-2.746374
N	-1.538459	-1.046664	-1.703164
H	-1.796528	-0.999515	-2.683049
H	-2.320475	-0.640422	-1.096561
F	-3.087872	0.0	0.0
