15

C	0.0	0.0	0.0
C	-0.378455	0.012117	-1.508702
F	1.388126	0.0	0.0
H	0.508063	-0.404984	-2.004726
H	-0.337885	0.916899	0.485068
C	-0.529383	-1.200321	0.737382
H	-1.619813	-1.092766	0.737455
H	-0.23343	-2.12397	0.236354
H	-0.135155	-1.195451	1.758915
C	-0.453918	1.42213	-1.97249
N	-0.516851	2.517656	-2.39545
N	-1.536329	-0.793219	-1.836009
H	-1.793299	-0.610388	-2.799906
H	-2.320862	-0.482619	-1.1799
F	-3.086063	0.0	0.0
