15

C	0.0	0.0	0.0
C	-0.601636	-0.393408	-1.362398
F	1.384111	0.0	0.0
H	-1.387375	-1.124673	-1.142216
H	-0.325305	1.0217	0.199083
C	-0.463607	-0.936075	1.093144
H	-0.168209	-1.96291	0.849578
H	-1.553468	-0.835529	1.118008
H	-0.003292	-0.660558	2.046699
C	0.393412	-1.018499	-2.237971
N	1.135087	-1.579961	-2.955223
N	-1.220504	0.800328	-1.960677
H	-2.052721	0.847022	-1.338509
H	-1.566778	0.541091	-2.881018
F	-2.880402	0.0	0.0
