15

C	0.0	0.0	0.0
C	-0.390828	-0.129205	-1.500183
F	1.38822	0.0	0.0
H	0.506156	-0.55152	-1.971557
H	-0.335666	0.958229	0.398769
C	-0.520014	-1.124911	0.854806
H	-0.223363	-2.091571	0.444213
H	-0.1181	-1.017496	1.867788
H	-1.610342	-1.021694	0.852197
C	-0.533774	1.229991	-2.082436
N	-0.644137	2.276728	-2.606527
N	-1.518039	-1.007394	-1.741599
H	-1.776383	-0.933793	-2.719754
H	-2.309328	-0.641036	-1.125996
F	-3.057419	0.0	0.0
