15

C	0.0	0.0	0.0
C	-0.575497	-0.205143	-1.38971
F	1.3953	0.0	0.0
H	-1.67489	-0.25914	-1.140555
H	-0.32946	0.991645	0.322286
C	-0.477732	-1.044394	0.981104
H	-1.571329	-0.96985	0.961335
H	-0.07669	-0.832122	1.976974
H	-0.134288	-2.036309	0.67199
C	-0.095868	-1.45744	-1.978401
N	0.285678	-2.467044	-2.443518
N	-0.325617	0.902418	-2.318843
H	-0.972404	1.641831	-2.067246
H	0.616615	1.248673	-2.163729
F	-2.88094	0.0	0.0
