17

C	0.0	0.0	0.0
C	-0.593116	-0.067895	-1.407288
F	1.389174	0.0	0.0
H	-1.690383	-0.198566	-1.137479
C	-0.478323	1.219816	0.76511
H	-0.128357	1.155081	1.798376
H	-1.573429	1.18359	0.707105
H	-0.058743	2.121053	0.311537
C	-0.386371	-1.232356	0.727202
N	-0.575199	-2.246748	1.28744
C	-0.046363	-1.206007	-2.134944
N	0.395278	-2.097366	-2.761727
C	-0.398515	1.225142	-2.201042
H	-0.694697	1.070771	-3.241359
H	-1.038815	2.002771	-1.782906
H	0.64338	1.560203	-2.18699
F	-2.832808	0.0	0.0
