17

C	0.0	0.0	0.0
C	-0.435292	-0.017577	-1.493858
F	1.3925	0.0	0.0
H	0.512707	0.085214	-2.040905
C	-0.403857	1.242461	0.77784
H	0.011389	2.119631	0.273665
H	0.024634	1.175584	1.781661
H	-1.495134	1.250889	0.790516
C	-0.416998	-1.220274	0.712065
N	-0.537659	-2.216331	1.323103
C	-1.22353	1.162439	-1.862636
N	-1.70167	2.135396	-2.312698
C	-1.145159	-1.2952	-1.944354
H	-0.512601	-2.166937	-1.756747
H	-2.063752	-1.335746	-1.35876
H	-1.364257	-1.241647	-3.014388
F	-2.595985	0.0	0.0
