17

C	0.0	0.0	0.0
C	-0.318005	0.085774	-1.538519
F	1.389849	0.0	0.0
H	0.612497	-0.279415	-1.988077
C	-0.552786	1.106105	0.856988
H	-0.177822	2.068156	0.499069
H	-0.23843	0.95484	1.893743
H	-1.649946	1.007469	0.74291
C	-0.412293	-1.32197	0.511634
N	-0.577882	-2.402601	0.940308
C	-0.418934	1.486844	-1.952014
N	-0.463448	2.5963	-2.334876
C	-1.478781	-0.736709	-2.107577
H	-2.385477	-0.466735	-1.542689
H	-1.546006	-0.553948	-3.184642
H	-1.267983	-1.796663	-1.94797
F	-2.90582	0.0	0.0
