17

C	0.0	0.0	0.0
C	-0.251414	0.12747	-1.548806
F	1.389723	0.0	0.0
H	0.535615	-0.515484	-1.963089
C	-0.604871	1.07239	0.857005
H	-0.30074	0.924827	1.896775
H	-0.269492	2.053837	0.515245
H	-1.700705	0.925809	0.730912
C	-0.417539	-1.345492	0.439069
N	-0.593717	-2.446153	0.807419
C	0.116616	1.490971	-1.947016
N	0.417803	2.570605	-2.299114
C	-1.587643	-0.285449	-2.167226
H	-1.703577	-1.366474	-2.055426
H	-2.420737	0.153586	-1.600997
H	-1.565702	-0.038056	-3.23426
F	-3.021757	0.0	0.0
