14

C	-0.521978	-0.057386	-1.418426
C	0.0	0.0	0.0
F	-1.917122	-0.16906	-1.387269
H	1.092683	0.0	0.0
H	-0.129989	-0.93459	-1.932897
C	-0.180163	1.162213	-2.15707
N	0.080305	2.121315	-2.780023
N	-0.386868	-1.345338	0.630601
O	-0.13546	-2.358895	-0.01429
O	-0.901241	-1.324766	1.74638
N	-0.492041	1.119812	0.710713
H	0.098885	1.305978	1.508632
H	-1.444062	0.980009	1.019725
Br	3.393644	0.0	0.0
