14

C	-0.529384	-0.025451	-1.416532
C	0.0	0.0	0.0
F	-1.921344	-0.167022	-1.378817
H	1.092682	0.0	0.0
H	-0.123982	-0.880879	-1.958183
C	-0.222535	1.223258	-2.120938
N	0.01638	2.214053	-2.700646
N	-0.372912	-1.366126	0.597049
O	-0.880051	-1.380443	1.716583
O	-0.116941	-2.360625	-0.076129
N	-0.496417	1.093508	0.74672
H	0.094697	1.259253	1.548379
H	-1.445965	0.938392	1.051346
Br	3.393308	0.0	0.0
