16

C	0.0	0.0	0.0
C	-0.495425	0.069381	-1.435672
F	1.42099	0.0	0.0
H	-1.567146	-0.168043	-1.424049
H	-0.313861	1.0516	-1.865062
C	-0.474233	1.222725	0.75015
H	-0.044665	2.128478	0.316539
H	-1.566222	1.245614	0.709849
H	-0.153363	1.151197	1.793221
N	-0.454879	-1.17596	0.639892
H	-0.206944	-2.002571	0.116574
H	-0.100276	-1.224998	1.58419
N	0.215285	-0.886493	-2.325565
O	0.210821	-2.079381	-2.018963
O	0.763792	-0.432586	-3.329451
Cl	-3.891419	0.0	0.0
