16

C	0.0	0.0	0.0
C	-0.424885	0.077053	-1.474414
F	1.399319	0.0	0.0
H	-0.157143	1.035636	-1.91435
H	-1.50205	-0.107169	-1.526585
C	-0.450188	1.261857	0.706389
H	0.036814	2.130128	0.257443
H	-1.53537	1.360262	0.645772
H	-0.147711	1.182391	1.75179
N	-0.453711	-1.149711	0.716814
H	-0.324474	-1.974079	0.140556
H	-1.459705	-1.032636	0.845526
N	0.285535	-0.941386	-2.288972
O	0.088154	-2.129693	-2.025849
O	1.043836	-0.545212	-3.174323
Cl	-3.667845	0.0	0.0
