16

C	0.0	0.0	0.0
C	-0.469387	0.162751	-1.444331
F	1.386917	0.0	0.0
H	-1.544799	0.358242	-1.44673
H	-0.208962	-0.737508	-1.997616
C	-0.405783	1.152822	0.90372
H	0.024464	2.094237	0.560184
H	-1.493178	1.226922	0.928456
H	-0.028507	0.941605	1.909307
N	-0.479645	-1.288884	0.422292
H	-1.497948	-1.26008	0.311346
H	-0.311307	-1.369112	1.421043
N	0.232097	1.28429	-2.114549
O	-0.156013	2.429933	-1.87852
O	1.167319	1.004464	-2.865617
Cl	-3.643188	0.0	0.0
