16

C	0.0	0.0	0.0
C	-0.487491	-0.217114	-1.423434
F	1.421011	0.0	0.0
H	-0.281899	0.653059	-2.042075
H	-1.562919	-0.430588	-1.374246
C	-0.46152	1.356431	0.486545
H	-0.022674	2.151082	-0.122403
H	-1.553637	1.386762	0.446303
H	-0.134646	1.493899	1.52151
N	-0.467807	-1.014504	0.862324
H	-0.125638	-0.879514	1.802372
H	-0.257565	-1.938743	0.516027
N	0.216507	-1.346692	-2.087739
O	0.172305	-2.454198	-1.55223
O	0.802725	-1.112191	-3.144123
Cl	-3.895796	0.0	0.0
