16

C	0.0	0.0	0.0
C	-0.426629	0.004907	-1.475629
F	1.399349	0.0	0.0
H	-0.161119	0.941014	-1.962668
H	-1.503767	-0.181214	-1.513241
C	-0.450072	1.296065	0.642716
H	0.033998	2.142058	0.14938
H	-1.535314	1.386345	0.577324
H	-0.147523	1.270461	1.691105
N	-0.456074	-1.111539	0.771777
H	-0.325791	-1.962936	0.23708
H	-1.46237	-0.987895	0.889486
N	0.279721	-1.051734	-2.242667
O	1.02651	-0.699537	-3.155783
O	0.089655	-2.2252	-1.917867
Cl	-3.657481	0.0	0.0
