13
Coordinates from ORCA-job run
  C   0.55188728131847      0.11359968626374      0.21578267806735
  C   -0.79393955029856     -0.06983986532431      0.26952453590290
  C   1.19837110589346      0.28539804417821      1.48405392853283
  N   1.76880912054606      0.47159226095757      2.49841272525545
  C   1.45144123179370      0.09612126235181     -0.98843445340897
  H   1.00037518135284      0.60582444892794     -1.83396927337592
  H   2.40783541454033      0.55038231080059     -0.73349060348032
  H   1.64050987959894     -0.93964960429188     -1.28769895884821
  C   -1.52553029024025     -0.03317022557996      1.49415051213064
  N   -2.11126660189767     -0.00202547726702      2.51476226704890
  N   -1.64545670031117     -0.29692103359439     -0.91991899089857
  O   -1.14316241986129     -0.13839205766598     -2.02630680067072
  O   -2.79987365243488     -0.64191974975633     -0.68786756625535
