13
Coordinates from ORCA-job run
  C   0.48825708665892      0.26427824256596      0.05090360907038
  C   -0.80862956796330     -0.10629921547273     -0.06224619997971
  C   0.91326759168774      1.63143446029757      0.00015606940174
  N   1.43708600126193      2.68563261341937     -0.02767582475118
  C   1.59842567666868     -0.73220218925207      0.23214306973427
  H   1.23362283799692     -1.75801177251858      0.21430981493921
  H   2.10595784633115     -0.54449421100849      1.18237292019347
  H   2.33703692183996     -0.59676828331771     -0.56182607162608
  C   -1.21668720019515     -1.47254613638839     -0.03306061919457
  N   -1.48797226527616     -2.61725612768615     -0.00506230131777
  N   -1.92160780581987      0.85312126898782     -0.27414172814705
  O   -3.00231683006838      0.34865492369452     -0.56404522904750
  O   -1.67544029312245      2.04445642667889     -0.15282750927522
