13
Coordinates from ORCA-job run
  C   0.48750279682279      0.26496639353986      0.05904090270577
  C   -0.80507794848793     -0.10531181188718     -0.09739574304747
  C   0.88351707645987      1.61988715168802      0.30070454630215
  N   1.38305016151077      2.66539530059183      0.51023547960144
  C   1.62029091080886     -0.72080328048601      0.00208026827719
  H   1.26564718972966     -1.74210799568156     -0.12763789313927
  H   2.20170684142862     -0.65482364628266      0.92528724906689
  H   2.29109177240579     -0.46184801790507     -0.82173720115686
  C   -1.18919382504936     -1.46180698509447     -0.31235376856302
  N   -1.44024553556481     -2.59839849567850     -0.48521472183381
  N   -1.94638703216470      0.83978813457259     -0.00858070358153
  O   -3.05650236196321      0.31940991730810      0.04854523653142
  O   -1.69340004593637      2.03565333531506      0.00602634883710
