13
Coordinates from ORCA-job run
  C   0.54645649535500      0.26786593140232     -0.02613007510270
  C   -0.78139736225092      0.18767915249947     -0.28154953380995
  C   1.23249433806396      1.41701689434346     -0.53616870199748
  N   1.83459934920136      2.34857026351230     -0.93403899313562
  C   1.37083326072950     -0.71474405720494      0.75249688864143
  H   0.87670133895239     -1.67649564032115      0.86237384941082
  H   1.55839731557157     -0.31360143308722      1.75247569895575
  H   2.33482825592461     -0.84836080870168      0.25865497242896
  C   -1.51151997029613      1.13519008598130     -1.05258346361436
  N   -2.11444611028489      1.93121508893134     -1.67616324863371
  N   -1.58172607082502     -0.96165229246388      0.18273283151135
  O   -2.34870994211044     -1.44330876567166     -0.64454810754775
  O   -1.41651089803099     -1.32937441921967      1.34144788289327
