13
Coordinates from ORCA-job run
  C   0.55144333038050      0.25700304690605      0.00074467007371
  C   -0.76811860091137      0.21252536978027     -0.30262588736191
  C   1.27711026823405      1.41087866617305     -0.44103297159742
  N   1.91326054255974      2.34137761739979     -0.78192520494444
  C   1.32874318568069     -0.76406652306903      0.77722655558826
  H   1.51837269020659     -0.37935736348673      1.78382290585587
  H   0.79694762370522     -1.70687217566426      0.87336541997037
  H   2.29517442870893     -0.92775381519749      0.29706445546917
  C   -1.45399583994779      1.19960376033816     -1.06463134469476
  N   -2.02330846766512      2.02598606717241     -1.68046404156772
  N   -1.60478931968305     -0.93889268818061      0.08900792143407
  O   -2.32679623592326     -1.38925718947360     -0.79351868416275
  O   -1.50504360534513     -1.34117477269800      1.24296620593754
