13
Coordinates from ORCA-job run
  C   0.49321102477348      0.35336700770681     -0.00635086797283
  C   -0.83385986172396      0.11578974412123     -0.13620022492033
  C   0.93663952817251      1.69346524090199     -0.24966929812233
  N   1.34666911553921      2.78240165022209     -0.43498894298567
  C   1.55082064557701     -0.63781048121551      0.38167078694717
  H   2.41832838826292     -0.50951479828662     -0.26846535971874
  H   1.20015366026871     -1.66507799220278      0.33054454379662
  H   1.87035246866547     -0.43523120467613      1.40746782936037
  C   -1.78922898113334      1.09015610960529     -0.54089699092973
  N   -2.57908428394882      1.90347634966145     -0.85786078913979
  N   -1.39582404378942     -1.23225596158449      0.07606832478522
  O   -1.03464388825811     -1.83987049651218      1.07857797420818
  O   -2.18353377240565     -1.61889516774112     -0.78089698530815
