13
Coordinates from ORCA-job run
  C   0.50776021062846      0.22552348082803     -0.02281158522940
  C   -0.80801018054766     -0.09165631828250     -0.02817056471292
  C   0.94701625283725      1.58524624947661     -0.09871438669854
  N   1.43458179256821      2.65705163932267     -0.12695037916559
  C   1.59750082985826     -0.80494478670371      0.06264482237914
  H   1.19671245005796     -1.81254239913402      0.16733798195265
  H   2.24694802428425     -0.58207282782421      0.91170357687273
  H   2.20867691510504     -0.75547330332353     -0.84263007822079
  C   -1.28572527357667     -1.42719178277940      0.08816216730944
  N   -1.64180777092234     -2.54629514744224      0.16837694416156
  N   -1.87114066238187      0.93608772444310     -0.08641517415826
  O   -2.87083084742029      0.69365090713201      0.58295283114413
  O   -1.66268174049059      1.92461656428719     -0.77748615563415
