13
Coordinates from ORCA-job run
  C   0.55177207433767      0.12225042316840      0.22226796606503
  C   -0.77587939821084     -0.15990956965089      0.29285566599881
  C   1.20962467080452      0.31423912986921      1.48074006232088
  N   1.79352455874505      0.48315160339866      2.49016740184686
  C   1.40138662114304      0.26048311838067     -1.01203092015197
  H   2.41897965741065      0.51941914579203     -0.72353797284250
  H   1.00295387612465      1.03157141603202     -1.67261661355525
  H   1.40985660527662     -0.67061684275727     -1.58036875808125
  C   -1.48202049720949     -0.26304242044580      1.52708850239898
  N   -2.03068891987347     -0.33612261143455      2.56638027281544
  N   -1.61909473819895     -0.37927797003552     -0.90266094551386
  O   -2.81392687054250     -0.55825915909434     -0.69015451486615
  O   -1.06848763980694     -0.36288626322262     -1.99813014643504
