13
Coordinates from ORCA-job run
  C   0.51573399590875      0.35364236178032      0.01114744582020
  C   -0.80990662473236      0.13468444871984     -0.16164081043607
  C   0.98727133216735      1.67583204534996     -0.26219406116542
  N   1.38396997144496      2.76746953741302     -0.46420996306913
  C   1.52767305595749     -0.66773837576175      0.43202591220616
  H   1.88478869102612     -0.44676759752543      1.44151974249759
  H   1.10976090787349     -1.67073337506189      0.43701472887076
  H   2.38872599145192     -0.62962302858316     -0.23708636637310
  C   -1.74673600514472      1.11601064012990     -0.59063816148120
  N   -2.54224442988920      1.91946457990683     -0.92081707308276
  N   -1.40944887958042     -1.19453385320948      0.05166878086502
  O   -2.15239040130120     -1.59116531929477     -0.83928654378656
  O   -1.13719760518218     -1.76754206386338      1.10249636913450
