13
Coordinates from ORCA-job run
  C   0.51887184190890      0.00529893956208      0.20647439654861
  C   -0.81294212883732      0.01033439207549     -0.03270292214076
  C   1.06387710138551      0.42770253075033      1.46092495481870
  N   1.64907409012350      0.77235865365717      2.42290622615938
  C   1.52838210522655     -0.40620336584141     -0.82644206823522
  H   2.16882226126378     -1.19164688804785     -0.41788738916097
  H   1.05543209890848     -0.76360398973911     -1.74104754095734
  H   2.17001919152820      0.44640643558892     -1.06446106920031
  C   -1.37578448092279     -0.35886859411797     -1.28817604041774
  N   -1.80070765041503     -0.69051970640268     -2.33481850743396
  N   -1.80651888925719      0.46671030324862      0.96621675225254
  O   -1.52082166206832      0.33796355783690      2.14890430412854
  O   -2.83670387884426      0.94406773142951      0.50010890363852
