13
Coordinates from ORCA-job run
  C   0.54125788135336      0.12664752557670      0.25486306416979
  C   -0.79088197735558     -0.12543846049609      0.28548313381782
  C   1.17383063339602      0.36627574679016      1.51740020609960
  N   1.73372799440172      0.57456020824026      2.53301128503607
  C   1.41192014573025      0.21338977531426     -0.96504464749732
  H   2.44038944129141     -0.03156538713274     -0.69821466697536
  H   1.38900935061317      1.23516531861857     -1.35550421428632
  H   1.06872857121629     -0.44242425465304     -1.76128664845458
  C   -1.55865579257467     -0.22778018435102      1.48072078822762
  N   -2.18927835474895     -0.28599727629060      2.47329074758685
  N   -1.55142650236273     -0.39612107171530     -0.95062324880369
  O   -1.22551861219902      0.22624386320744     -1.95607380154466
  O   -2.44410277876128     -1.23195580310859     -0.85802199737582
