13
Coordinates from ORCA-job run
  C   0.55004302316097      0.07947024900588      0.24114537670115
  C   -0.79424185997459     -0.07054616486085      0.30347974111183
  C   1.23026879147999      0.31519474855090      1.47972520199183
  N   1.82522490582358      0.50129899562971      2.47900401103986
  C   1.40616074678499      0.02846648581610     -0.98866963498816
  H   2.04703281650832      0.91201279773099     -1.01143577778855
  H   0.82243045937842     -0.02899587773729     -1.90440381722804
  H   2.05382652199316     -0.85161669163948     -0.94077747995451
  C   -1.56107322476178      0.02849052412643      1.49792617285995
  N   -2.19213408911432      0.10084064184328      2.48944542992438
  N   -1.59533386300145     -0.28866296998813     -0.91636159328596
  O   -2.57490752272194      0.43879009024380     -1.04255235879668
  O   -1.21829670555533     -1.16474282872136     -1.68752527158710
