13
Coordinates from ORCA-job run
  C   0.58032069624717      0.19283510966074     -0.07096878340426
  C   -0.69930143905299      0.01714437545380     -0.48167674319824
  C   1.46528195884754      0.84233184511729     -0.98995455596839
  N   2.22580681827538      1.37352300222167     -1.71640456863719
  C   1.14913653808358     -0.20511946428404      1.26159216602169
  H   0.98281182889781      0.59749726552060      1.98504488882852
  H   0.67620811519902     -1.10427093269298      1.65396981361774
  H   2.22254274934837     -0.36917388790856      1.16459879217188
  C   -1.19224650669574      0.38856920690232     -1.76393973777915
  N   -1.59362548912261      0.71637618306654     -2.82124984442153
  N   -1.69196554396922     -0.64958643014092      0.38300765476648
  O   -2.46043190569632     -1.42064922276590     -0.18244522900240
  O   -1.66353782036201     -0.37947705015057      1.57942614700486
