13
Coordinates from ORCA-job run
  C   0.49865555880950      0.23451360094685      0.09364614491413
  C   -0.79899089148308     -0.10615447324480     -0.07908876306862
  C   0.89984462259594      1.60138255889528      0.23513091342074
  N   1.35868594786510      2.68108931996154      0.33810822427149
  C   1.60812222368275     -0.77612930452792      0.13612959855186
  H   2.12972609599832     -0.69947288820996      1.09392058776009
  H   2.33572236623011     -0.55869583840016     -0.65048161423542
  H   1.23500490850814     -1.79238118086490      0.01254725807655
  C   -1.23916837487386     -1.44656510494178     -0.26558570214659
  N   -1.57576474153116     -2.56820627829615     -0.38837738441762
  N   -1.88176294538059      0.90141197583160     -0.15226466786415
  O   -1.77369312850123      1.89810737954150      0.55025719319788
  O   -2.79638164191994      0.63110023330890     -0.92394178846036
