13
Coordinates from ORCA-job run
  C   0.43047934974991     -0.35414696453202     -0.01888888536234
  C   -0.77014971487855      0.26698617246551      0.05290617249832
  C   0.59020081306744     -1.75864133034982      0.20689249262011
  N   0.90357356937875     -2.88211183754585      0.36908891316152
  C   1.70293560887308      0.38052227750498     -0.33457460560700
  H   2.17255750656681     -0.06373917697855     -1.21572435223046
  H   1.52925649193252      1.44121306248479     -0.51209454254533
  H   2.40106160671150      0.26377357224923      0.49871065748109
  C   -0.91831023713750      1.66988635128158     -0.14650695303656
  N   -0.99626142583452      2.83227761331681     -0.31497714495454
  N   -2.03450016236004     -0.43420580067986      0.38690019524020
  O   -2.03372926438422     -1.65598000623464      0.34998537318488
  O   -2.97811414168518      0.29416606701781      0.67928267955011
