13
Coordinates from ORCA-job run
  C   0.50562640541079      0.21014621507390     -0.10805063798948
  C   -0.80569680681363     -0.09731946901915      0.01913246948268
  C   0.93089213766769      1.49977206765743     -0.56028356800266
  N   1.41124119034185      2.52221417990893     -0.89311195718852
  C   1.60515605154862     -0.75371593529319      0.23399679922611
  H   1.21266744943012     -1.71055965472490      0.57728768063564
  H   2.24014182151388     -0.32442858080015      1.01335275568029
  H   2.23193059890056     -0.91688493458821     -0.64677071982602
  C   -1.26861670592844     -1.35218018844681      0.50725108596735
  N   -1.61695678726199     -2.40736086395683      0.89609156581015
  N   -1.88175903142450      0.87422149485111     -0.27970510513009
  O   -1.69351385772940      1.65815236145891     -1.20070471498194
  O   -2.87211246565557      0.79694330787894      0.44051434631647
