13
Coordinates from ORCA-job run
  C   0.50363030587135      0.27863472302900     -0.19632085534053
  C   -0.83633481128328      0.10016216648134     -0.05458248187293
  C   0.89587328331953      1.41743396650763     -0.97237149939106
  N   1.26710206620140      2.34135703076296     -1.60252373264903
  C   1.61218074323003     -0.57256607666940      0.36111915363436
  H   1.55794561903531     -0.61218023987286      1.44996741041398
  H   1.52786689282540     -1.59957854418777      0.00345764839189
  H   2.57402845936197     -0.16014756039103      0.05971278143407
  C   -1.80146994946774      0.97627802425568     -0.63193016757186
  N   -2.57018548515107      1.72070107709251     -1.12304017648640
  N   -1.42477744548254     -1.01995737850287      0.71242489503029
  O   -2.65028851222927     -1.05996857861472      0.74744792576355
  O   -0.65457116623108     -1.81016860989047      1.24663909864368
