13
Coordinates from ORCA-job run
  C   0.54975549531046     -0.14819462149388      0.21744217897257
  C   -0.80286278962026     -0.09298275823888      0.27120224341392
  C   1.21809302749775     -0.73098252466917      1.34201251901789
  N   1.81425607196623     -1.19999486458399      2.24378302568331
  C   1.42081148121585      0.32468908141459     -0.90936131225513
  H   1.76109541076213     -0.53789384140597     -1.48932267856751
  H   0.89751979757775      0.99788154281449     -1.58321264467613
  H   2.30123563797209      0.82176531719160     -0.49917568613343
  C   -1.58213378519434     -0.51331594820507      1.38558998513394
  N   -2.22378829645115     -0.86646726479264      2.30736181215781
  N   -1.58750976800360      0.50120216824870     -0.82785179913103
  O   -1.28909085665923      0.17243725562138     -1.97161568108439
  O   -2.47638142637367      1.27485645809884     -0.48785196253182
