13
Coordinates from ORCA-job run
  C   0.49067951485407      0.24284660203845      0.10763202500170
  C   -0.79880047545618     -0.12836621693460     -0.06449103081887
  C   0.84904293509507      1.61279932451501      0.31517412223598
  N   1.27391816847228      2.69962076997786      0.47459573650340
  C   1.63271083711906     -0.73063636099722      0.06139969938868
  H   2.21252461414803     -0.65604340031753      0.98479459469907
  H   1.28532387615291     -1.75610017174663     -0.06357042177042
  H   2.29875423891623     -0.47479580613260     -0.76705215691148
  C   -1.19906776060993     -1.47095079021295     -0.31699917715897
  N   -1.49461699471818     -2.59495429674084     -0.50476146279722
  N   -1.90874127380137      0.84982536055458     -0.06844198013714
  O   -2.80444052318106      0.62042717817931     -0.87525254235514
  O   -1.83828715699093      1.78532780781715      0.71797259412040
