13
Coordinates from ORCA-job run
  C   0.48628197230131      0.24010592889240      0.13064263198052
  C   -0.79517007050410     -0.11596660142214     -0.11696791215004
  C   0.85942047853743      1.60907011756534      0.31876784840677
  N   1.30265586181153      2.69062995820536      0.46295971077374
  C   1.60914720995991     -0.75430906484120      0.20164414355425
  H   2.08900330284160     -0.68901028914533      1.18181060385130
  H   1.25907915566969     -1.77351017214484      0.04045036780244
  H   2.36450252139094     -0.50939974179463     -0.54957559587137
  C   -1.19886884219516     -1.46049278378828     -0.35480182871286
  N   -1.50202124502527     -2.58439583239865     -0.53003947134041
  N   -1.88804517143608      0.87646580407766     -0.22806079925773
  O   -2.75993628351359      0.60573671760115     -1.04785464562043
  O   -1.82704888983819      1.86507595919317      0.49102494658381
