13
Coordinates from ORCA-job run
  C   0.49279244198605      0.24361697919903      0.09500828125463
  C   -0.80036506190092     -0.11978862505240     -0.06595827303168
  C   0.87046140783166      1.61514856075467      0.25265428185826
  N   1.31539610624868      2.69970003881145      0.36540201776319
  C   1.62307233263827     -0.74527913997314      0.09922169676664
  H   1.26778683996355     -1.76689192325358     -0.03351290695154
  H   2.32660536510773     -0.50156786555601     -0.70101726785397
  H   2.16467913853641     -0.67350739247759      1.04608929501234
  C   -1.21243295088811     -1.46740786552652     -0.26928273051456
  N   -1.51966693149199     -2.59465558833027     -0.41377608974664
  N   -1.90291402208728      0.86694374273849     -0.10899582839103
  O   -1.80128574731305      1.85692709198980      0.60363964196331
  O   -2.82512891863097      0.58976198667606     -0.86947211812896
