13
Coordinates from ORCA-job run
  C   0.49996328140416      0.23460902186783      0.09394420945526
  C   -0.79917198242917     -0.10058080713004     -0.07757356413162
  C   0.91391187946424      1.60221324421750      0.17607234018448
  N   1.38331708570564      2.68103836887873      0.22627868023079
  C   1.59869087254788     -0.78563190953114      0.18707676829861
  H   1.21408959619745     -1.80241652404332      0.10513377552796
  H   2.33022614222316     -0.61349902136028     -0.60649305536034
  H   2.11310794570290     -0.67391431013152      1.14523623013040
  C   -1.24964306215288     -1.44475317433005     -0.21061736148263
  N   -1.59178332168646     -2.56735525880225     -0.30339987429699
  N   -1.87264927490240      0.91236170044767     -0.20685977868721
  O   -2.77849198781362      0.61892604805792     -0.98066719438237
  O   -1.76156717426088      1.93800262185896      0.45186882451368
