13
Coordinates from ORCA-job run
  C   0.48733376239529      0.34851918490868      0.08190306926133
  C   -0.84208022489094      0.08782237531975      0.08344250828171
  C   0.88892261400754      1.64087788670949      0.55375480690851
  N   1.26838223691430      2.68991846604914      0.93205594897976
  C   1.59360513383792     -0.56575255891303     -0.35465546073672
  H   2.08308866392586     -0.14495011226054     -1.23874286941313
  H   2.34325376963719     -0.62226537338006      0.43891787205009
  H   1.23529281135580     -1.56225488008463     -0.59689358264434
  C   -1.83491602096246      0.99034524315250      0.55802123871380
  N   -2.65714457658641      1.74278410287653      0.93780367048862
  N   -1.38181004903361     -1.21430393705282     -0.35887616753295
  O   -2.27347256173887     -1.68262601676427      0.34128422075417
  O   -0.91045555886160     -1.70811438056075     -1.37801525511085
