13
Coordinates from ORCA-job run
  C   0.54496836082361      0.04291465461656      0.24861534552655
  C   -0.79511904821087     -0.13131614028935      0.31932001032588
  C   1.27380415103558      0.13383396239703      1.47775096859371
  N   1.96939160555485      0.25719134297582      2.42204710624933
  C   1.35389332558850      0.20081128098445     -1.00804173370135
  H   0.83144130670476     -0.15892596682546     -1.89146925299815
  H   2.30587096910966     -0.31783034337137     -0.88367288634460
  H   1.57278533909806      1.26153205088657     -1.16031653257882
  C   -1.52218912766822     -0.27741042875426      1.53296799900487
  N   -2.09129516071651     -0.30037999376377      2.56361884792892
  N   -1.61079433996808     -0.21435338447710     -0.90645424782635
  O   -1.42904579353394      0.65016908960917     -1.75642165364189
  O   -2.40471158781737     -1.14823612398830     -0.95794397053810
