16

C	0.0	0.0	0.0
C	-0.416017	-0.160381	-1.482234
F	1.355616	0.0	0.0
H	-1.386901	-0.637785	-1.506363
C	-0.502509	1.183978	0.689937
N	-0.60293	2.214761	1.24752
N	-0.388519	-1.242122	0.784033
O	-0.593287	-2.274701	0.164357
O	-0.321496	-1.132065	2.003308
N	0.596058	-0.845279	-2.223428
H	0.241605	-1.102885	-3.132804
H	1.43266	-0.284063	-2.316253
N	-0.628217	1.223207	-2.072001
O	0.31208	2.01595	-1.952449
O	-1.641055	1.424183	-2.734406
F	-2.303181	0.0	0.0
