14
Coordinates from ORCA-job run
  C   0.85999510619335     -0.20945669041507     -0.03436259534588
  C   -0.59122473541956     -0.64299092022781      0.21554870830197
  F   1.64541620602127     -0.84567182579957      0.87578023805912
  H   -0.70335382067010     -1.66405926939725     -0.16789931264094
  C   1.32775218447624     -0.52002957886778     -1.38270810594422
  N   1.69145846092580     -0.84956486521342     -2.45052092242579
  N   1.04589259118817      1.28855949562280      0.23845402416671
  O   0.15733100655386      1.84346595968576      0.86961688455456
  O   2.11088181840992      1.75193965550831     -0.14102965892152
  N   -1.56410331381747      0.19324260261259     -0.60099829925154
  O   -1.08335981505516      0.80716425987324     -1.54468486360730
  O   -2.73594271206053      0.12279795977778     -0.27191858829828
  C   -0.94597992647778     -0.61900625395342      1.62609999503057
  N   -1.21476305026801     -0.65639052920617      2.76862249632253
