14
Coordinates from ORCA-job run
  C   0.83426171459414     -0.29630834167400     -0.06518831414324
  C   -0.62837962528120     -0.55908633126379      0.31847612926932
  F   1.62070971478751     -0.91692326090497      0.85527118356208
  H   -0.85905270476526     -1.59708601027326      0.05096832753644
  C   1.17399498684461     -0.78090455028749     -1.40052369536367
  N   1.44109219272662     -1.25326188260097     -2.44295498743528
  N   1.17764054921557      1.19467358139773      0.04002617222716
  O   2.25136049270868      1.51106322597225     -0.44956366839456
  O   0.39076796087057      1.89404624231165      0.66244234970925
  N   -1.57729025170216      0.28368955499465     -0.52005169058621
  O   -1.10911360894828      0.75372174607794     -1.54894212041709
  O   -2.72550662870234      0.35822831167688     -0.11774655032076
  C   -0.87927967888167     -0.36157781289263      1.73757665677909
  N   -1.11220511346679     -0.23227447253397      2.88121020757746
