14
Coordinates from ORCA-job run
  C   0.71287888467811     -0.27873567833267     -0.16035452646241
  C   -0.66336102257656     -0.16122372102881      0.49807975990519
  F   1.08620064265450     -1.58328472055630     -0.16247863159682
  H   -0.60508941223974     -0.58857669637997      1.49953246868857
  C   0.77238208763396      0.27769601356045     -1.50762528562538
  N   0.82297986588899      0.71823675512849     -2.59635762314396
  N   1.74736277335012      0.44858448582047      0.72615612521685
  O   1.47462672323315      0.51988624241620      1.91727862696009
  O   2.77205346468960      0.80411018228623      0.16418632775092
  N   -1.62809196315830     -1.02890401695057     -0.29272155298341
  O   -1.87303020498576     -2.12201040798279      0.20060431513653
  O   -2.04281156473201     -0.56611980921846     -1.34742556132398
  C   -1.11498347109642      1.21932131742272      0.51980647021952
  N   -1.46011680333964      2.34202005381503      0.54131908725830
