14
Coordinates from ORCA-job run
  C   0.84911950985653     -0.32912417732257     -0.00762033535570
  C   -0.64174445416747     -0.60455650401287      0.27112868139389
  F   1.56154072532720     -1.08679876097668      0.85010490412904
  H   -0.81123731261991     -1.66984794455799      0.09015789828427
  C   1.26096939917307     -0.58965230012986     -1.38348845813439
  N   1.66144305140688     -0.83510242059706     -2.46123493915722
  N   1.13278473034851      1.15135082538622      0.30265675677337
  O   1.78780800630213      1.39227636078750      1.29954308427733
  O   0.62806963646452      1.92455332868135     -0.49971102461975
  N   -1.53838929424547      0.13019875531326     -0.71651856614654
  O   -2.16759387932592      1.09212541748417     -0.30383176938721
  O   -1.53324367694070     -0.34316783143653     -1.84507225774340
  C   -0.96972450950757     -0.24965289650738      1.64287907205063
  N   -1.21780193207179      0.01639814788844      2.76000695363568
