14
Coordinates from ORCA-job run
  C   0.74764481451067      0.09413191671644      0.18777664669802
  C   -0.68353341991107     -0.39115840953853     -0.07291992244031
  F   0.86411252703879      0.57199969677453      1.43683764024169
  H   -0.80595175174487     -0.57704240336222     -1.14442380090801
  C   1.70328988254892     -0.98721752161661     -0.05700954974924
  N   2.46012719113059     -1.86324429721996     -0.26197861855456
  N   1.10657570090848      1.21613209521533     -0.81433526123937
  O   1.63008169295028      2.21029315126176     -0.35554110089062
  O   0.85686239625997      0.93977631675062     -1.97763898792326
  N   -1.67874373785489      0.71443502884860      0.27342010783620
  O   -1.30956065080502      1.85209703999889      0.01836072465413
  O   -2.75913185773695      0.35948502228816      0.71532092533781
  C   -0.97030682667571     -1.58319496329597      0.71023738684901
  N   -1.15946596061919     -2.55749267282103      1.33889381008849
