14
Coordinates from ORCA-job run
  C   0.83140329138622     -0.29477364452928     -0.05997201019749
  C   -0.63755286648034     -0.56107625141141      0.29717394860453
  F   1.60385425818040     -0.93508365357513      0.85845988771894
  H   -0.86741305275194     -1.59295087597278      0.00635303393261
  C   1.18836990806831     -0.75381300612933     -1.39984569771479
  N   1.48187914405890     -1.20585347455353     -2.44423781348317
  N   1.17537558544202      1.19312316900125      0.07950586960949
  O   0.38325848040761      1.87950745515200      0.70977165017647
  O   2.25391755427847      1.51881402315100     -0.39302494590058
  N   -1.57081386694324      0.30146731917098     -0.53764110775979
  O   -1.08698922450204      0.78962220500269     -1.55075676547193
  O   -2.72411432877902      0.37287921153230     -0.14894042585037
  C   -0.90740001364852     -0.39253312744927      1.71661262711125
  N   -1.12277486871682     -0.31832934938951      2.86854174922482
