14
Coordinates from ORCA-job run
  C   0.84882131198239     -0.24209171172796     -0.02942416102016
  C   -0.62167909852481     -0.62268139063627      0.19201527640434
  F   1.59601850800206     -0.93267407786414      0.87325013672285
  H   -0.76786443562654     -1.63011943788638     -0.21531118288568
  C   1.32267748397034     -0.53781547262394     -1.37904433384845
  N   1.71496139044379     -0.86034206345691     -2.43887996223107
  N   1.09145105713351      1.23954296062118      0.28401247363772
  O   2.18373073019743      1.66538017336409     -0.05976477113771
  O   0.21142688877396      1.81802165641274      0.90593558715122
  N   -1.54899624838859      0.26888558416308     -0.61830772226046
  O   -2.72594901156052      0.24561432585812     -0.30140848040991
  O   -1.03248333049291      0.87472322610316     -1.54828911177515
  C   -0.99352450155093     -0.61578634479604      1.59830530822875
  N   -1.27959074435916     -0.66965742753073      2.73591094342371
