14
Coordinates from ORCA-job run
  C   0.83857967152059     -0.35495756453271     -0.00868454706883
  C   -0.66239674111636     -0.59021662507287      0.25195774569467
  F   1.51991291042950     -1.15367235334354      0.83699979694994
  H   -0.86310349140206     -1.64534742265353      0.04512565414120
  C   1.25424550502177     -0.59681083320965     -1.38669906428127
  N   1.65548139039997     -0.82725441899040     -2.46749267062331
  N   1.16508189393552      1.10849843399865      0.33804006301519
  O   0.69106377469661      1.91525013901699     -0.44998628501986
  O   1.81832191314811      1.30575944404511      1.34564454781541
  N   -1.52756304916043      0.19435064468801     -0.72520055930914
  O   -1.52641314143660     -0.25213141721683     -1.86476984260321
  O   -2.13158531343113      1.16456167966775     -0.29461148212911
  C   -0.99105436407995     -0.25735336569341      1.62909428353635
  N   -1.24057095852554     -0.01167634070357      2.75058235988196
