14
Coordinates from ORCA-job run
  C   0.76570683181074      0.06705255812140      0.10438798388107
  C   -0.70755695762347     -0.35359639667537      0.04034015225516
  F   1.02875320644850      0.68696350997225      1.26611236621429
  H   -0.94496929107542     -0.66184295984718     -0.98249336155117
  C   1.63688330561084     -1.09389395485648     -0.08387166415317
  N   2.33424654195724     -2.02815842962451     -0.23634021447850
  N   1.08143984712161      1.03256318327913     -1.06236158026615
  O   0.71234718677054      0.62663593099523     -2.15356090775535
  O   1.68776820109536      2.04597644359706     -0.78307977877807
  N   -1.60398944866134      0.84827356876842      0.33088415150265
  O   -2.64467344390436      0.62493551252367      0.92718840826878
  O   -1.21045841764841      1.91627869846424     -0.11658877431965
  C   -0.97775214787239     -1.41871140673982      0.99362489858042
  N   -1.15774541402944     -2.29447625797802      1.75575832059969
