14
Coordinates from ORCA-job run
  C   0.82503323892979     -0.31433533588610     -0.05378719527608
  C   -0.65282608895752     -0.54587281469292      0.29057595104262
  F   1.57421075014350     -0.97438912937912      0.86993027527467
  H   -0.90513884976503     -1.57122218233213     -0.00472841586019
  C   1.18207322655065     -0.77961978496390     -1.39150080775591
  N   1.46967230105242     -1.23703915041847     -2.43508526285419
  N   1.20334726880131      1.16459522268485      0.09150499160258
  O   2.29395281160779      1.46457188943558     -0.37003626627743
  O   0.42188777912196      1.86901150131293      0.71513778256934
  N   -1.55821499398428      0.34062768909360     -0.54981120466691
  O   -2.71187981429373      0.44172145755134     -0.16866760156428
  O   -1.05546594817672      0.81659060404219     -1.55956712372708
  C   -0.93044667669915     -0.37444628754126      1.70809644697432
  N   -1.15620500433097     -0.29919367890658      2.85793843051853
