14
Coordinates from ORCA-job run
  C   0.74216951873050      0.07124841838183      0.21692092851866
  C   -0.68198454462120     -0.38144250350135     -0.12703237042816
  F   0.82341688588326      0.43506021288757      1.50681631966828
  H   -0.77219727129182     -0.47814423072100     -1.21329627625347
  C   1.70242377140798     -0.98872116660127     -0.09457821279908
  N   2.46879555314275     -1.84221144645097     -0.35247309039987
  N   1.13330951177133      1.27628390485546     -0.67043920034594
  O   1.64493845893568      2.22290919306461     -0.10955590424128
  O   0.91590625377496      1.10603846501906     -1.86013558651622
  N   -1.68528709399096      0.69704099369267      0.27815592592981
  O   -1.29971141528070      1.85039485724193      0.14825187385054
  O   -2.78558070767444      0.31121276170073      0.63710624590427
  C   -0.99708140276246     -1.63105718203598      0.54770334377187
  N   -1.20911751802488     -2.64961227753330      1.09355600334059
