14
Coordinates from ORCA-job run
  C   0.73204385723483     -0.33395775102213     -0.08950261273727
  C   -0.67579773937410     -0.06895092967801      0.45684863226143
  F   1.03190083258492     -1.63105217365773      0.13588597929424
  H   -0.67734665154980     -0.34210629784399      1.51528674945892
  C   0.92148644126610      0.00883511201475     -1.49356717824826
  N   1.09394301599623      0.24894398797382     -2.63143219228221
  N   1.67977772678974      0.52301984995143      0.77986091945964
  O   1.90131031553215      0.06163698029569      1.88819251993922
  O   2.06442558988863      1.57757796279416      0.29709474881643
  N   -1.63361766254740     -1.02774373637598     -0.23163652843264
  O   -1.88832740394878     -0.78629885416470     -1.40392519856550
  O   -2.03619532321061     -1.95666115041832      0.45528197867415
  C   -1.09053939692730      1.30583004889123      0.23886247875939
  N   -1.42306360173461      2.42192695123976      0.08274970360245
