14
Coordinates from ORCA-job run
  C   0.84317448479333     -0.34528682601405      0.00652581963253
  C   -0.65659089631956     -0.58992210743020      0.26674222238910
  F   1.52968424347407     -1.10520243592037      0.88295677633428
  H   -0.84636910854290     -1.65127145225047      0.08315111777131
  C   1.26471885577547     -0.63208307589322     -1.36097454320248
  N   1.66567028507060     -0.90015997561302     -2.43308150113778
  N   1.15012292462679      1.13362412868167      0.30308509638959
  O   0.70677520847435      1.90541596389831     -0.53610110912004
  O   1.75730704843462      1.37515932284473      1.32977603950515
  N   -1.52044846046197      0.16566576516052     -0.73320581610180
  O   -1.53590347231641     -0.32453051751671     -1.85461646002307
  O   -2.10419106149200      1.16263539720953     -0.33644212405287
  C   -0.99684461281612     -0.22847329818639      1.63377489455282
  N   -1.25810543870027      0.03542911102969      2.74840958706325
