14
Coordinates from ORCA-job run
  C   0.69822077651928     -0.18810246873474     -0.31249441020134
  C   -0.64511212305619     -0.36855181245751      0.39908090944850
  F   1.02785106428527     -1.34891367938043     -0.93109187649290
  H   -0.56491726276282     -1.22308378733069      1.07175566512243
  C   0.71343572997586      0.92471146276303     -1.25591621278212
  N   0.70984845853845      1.81551185316795     -2.02296151566426
  N   1.78799138457131      0.03929209156574      0.75723029092540
  O   2.76383286368799      0.68436130540520      0.40443784503104
  O   1.60070912387881     -0.52484339687584      1.82722899269536
  N   -1.67870805597723     -0.73438519545527     -0.65304831122204
  O   -2.17164856744939      0.18984842884387     -1.28639470254579
  O   -1.88934918102689     -1.93369569456323     -0.78016637279707
  C   -1.02971260499917      0.84385619535678      1.10076565745165
  N   -1.32144160618529      1.82299469769513      1.68057404103114
