14
Coordinates from ORCA-job run
  C   0.76355566132544      0.04966518693369      0.12918839561786
  C   -0.71148913593831     -0.34728709479095     -0.00451985744620
  F   1.00440974694598      0.56820647183218      1.34407488301893
  H   -0.92625440342460     -0.56883315472045     -1.05444690691222
  C   1.62779527089800     -1.10170729673482     -0.13536631321324
  N   2.31651927666581     -2.02851453137504     -0.35641405046741
  N   1.11737844448701      1.10426224611069     -0.94593372110223
  O   0.76310098682027      0.79909252597252     -2.07427531956502
  O   1.73707220483869      2.07821340426104     -0.57143120006520
  N   -1.60395865041827      0.83685560505649      0.36130500086169
  O   -2.66687372072613      0.57553272474048      0.90022462570059
  O   -1.18445971551139      1.93495373525874      0.02394352729938
  C   -1.01550044072230     -1.48344453336071      0.85169624493140
  N   -1.22229552524021     -2.41799528918386      1.53295469134168
