14
Coordinates from ORCA-job run
  C   0.83912404907411     -0.35292302705354      0.00943210478814
  C   -0.66624826429123     -0.58950764932354      0.24172792997966
  F   1.50493378305908     -1.15061377493834      0.86854620355776
  H   -0.85819558297256     -1.64858039325023      0.04600709523070
  C   1.28516994440151     -0.59256728692724     -1.35944204211460
  N   1.71588159520826     -0.81930537110771     -2.42944447237503
  N   1.15654602783462      1.11111357046568      0.36269156805536
  O   1.82683413537868      1.30901863175452      1.35859980641655
  O   0.65991938611655      1.91733611117278     -0.41185002471688
  N   -1.51824406110339      0.17494060480220     -0.76283192912927
  O   -1.46654706019333     -0.26892261275147     -1.90194612398032
  O   -2.16702704357822      1.12410917717712     -0.35139834379790
  C   -1.02262362212106     -0.23972461876759      1.60769622806883
  N   -1.28952328681301      0.02362663874736      2.72121200001700
