14
Coordinates from ORCA-job run
  C   0.83766309773194     -0.35874865862605      0.01748074949075
  C   -0.67080441817181     -0.58784563036791      0.23711353822429
  F   1.49341675758513     -1.14546578373338      0.89374578848968
  H   -0.87415119800462     -1.63869531042545      0.01291833760346
  C   1.28475130211057     -0.62631327332031     -1.34607854090327
  N   1.70078741739273     -0.88507337086308     -2.41490323400484
  N   1.15897853375955      1.10919056368053      0.34929603039207
  O   1.71784847019200      1.32309715323299      1.40951593365612
  O   0.77501574362155      1.90281267083726     -0.49858479850428
  N   -1.49578389033654      0.21883543195629     -0.75586373241993
  O   -2.04657430545753      1.22824693930119     -0.34350158550104
  O   -1.51336119260780     -0.24423957007792     -1.88872477346047
  C   -1.03814263942512     -0.26557361269812      1.60689200281579
  N   -1.32864367839006     -0.03122754889604      2.72069428412166
