14
Coordinates from ORCA-job run
  C   0.84955542039529     -0.32794189657923      0.01172701812580
  C   -0.64657159269042     -0.60419438136307      0.25853604551519
  F   1.54367771981899     -1.07980839075035      0.88910261542533
  H   -0.81292731831591     -1.66856219634744      0.07020354855496
  C   1.29013293434871     -0.59723546649272     -1.35361187950135
  N   1.71017100709096     -0.84856091210014     -2.42249868556218
  N   1.12495549797689      1.15475917704946      0.31884409765249
  O   0.64601654098514      1.92250532771884     -0.50415973480832
  O   1.74741772947302      1.40230783863440      1.33488049350032
  N   -1.52187804041326      0.13455173659650     -0.74560013369114
  O   -1.50081563243169     -0.34045093674891     -1.87321486766542
  O   -2.15077108707708      1.10171847727041     -0.34490355966050
  C   -1.00417076185680     -0.25356316355821      1.62399741696735
  N   -1.27579241730386      0.00347478667045      2.73769762514745
