12

C	0.0	0.0	0.0
C	-0.498449	0.225106	-1.422417
Cl	1.785812	0.0	0.0
H	-0.147165	1.194254	-1.786113
H	-0.286939	0.876815	0.591868
H	-1.595448	0.242942	-1.372326
N	-0.494857	-1.254951	0.490395
H	-1.515673	-1.194856	0.418439
H	-0.266924	-1.342002	1.474539
C	-0.055366	-0.810897	-2.352511
N	0.278397	-1.613224	-3.140621
Cl	-3.567199	0.0	0.0
