12

C	0.0	0.0	0.0
C	-0.493923	0.23012	-1.424342
Cl	1.786054	0.0	0.0
H	-1.590755	0.241192	-1.376468
H	-0.290483	0.872485	0.595214
H	-0.148636	1.204187	-1.779068
N	-0.495165	-1.25745	0.48117
H	-1.515293	-1.199699	0.401804
H	-0.274823	-1.348076	1.467158
C	-0.042712	-0.797593	-2.358583
N	0.30305	-1.58934	-3.152656
Cl	-3.564701	0.0	0.0
