12

C	0.0	0.0	0.0
C	-0.240624	-0.123208	-1.526959
Cl	1.788106	0.0	0.0
H	0.184138	-1.096066	-1.795297
H	-0.310179	0.982029	0.365619
H	0.387779	0.631631	-2.002987
N	-0.514204	-1.127199	0.707434
H	-0.378	-0.971007	1.700896
H	-1.530988	-1.079052	0.553156
C	-1.527753	-0.023568	-2.228943
N	-2.25247	0.057561	-3.15131
Cl	-3.408576	0.0	0.0
