12

C	0.0	0.0	0.0
C	-0.221785	-0.303955	-1.5166
Cl	1.793773	0.0	0.0
H	0.242223	-1.281844	-1.69162
H	-0.338356	1.005967	0.24255
H	0.381054	0.413236	-2.080979
N	-0.527427	-0.910675	0.953158
H	-1.540168	-0.733	0.962593
H	-0.384175	-1.862276	0.630851
C	-1.514654	-0.339586	-2.209858
N	-2.288629	-0.42512	-3.090654
Cl	-3.450727	0.0	0.0
