12

C	0.0	0.0	0.0
C	-0.523505	-0.392399	-1.373667
Cl	1.838224	0.0	0.0
H	-0.155577	0.290225	-2.143153
H	-0.300833	1.024396	0.209985
H	-1.620736	-0.313884	-1.280578
N	-0.512154	-0.856754	0.98424
H	-0.159646	-1.800342	0.929718
H	-0.472879	-0.487388	1.919233
C	-0.150091	-1.758353	-1.723622
N	0.145951	-2.857402	-2.010278
Cl	-3.740735	0.0	0.0
