12

C	0.0	0.0	0.0
C	-0.504634	-0.419128	-1.374272
Cl	1.839699	0.0	0.0
H	-1.601698	-0.333135	-1.300679
H	-0.298877	1.029665	0.184772
H	-0.115008	0.240927	-2.15284
N	-0.524454	-0.831338	0.993086
H	-0.181625	-1.778206	0.976752
H	-0.559856	-0.435314	1.914803
C	-0.136929	-1.797778	-1.68314
N	0.148025	-2.907516	-1.939078
Cl	-3.748185	0.0	0.0
