12

C	0.0	0.0	0.0
C	-0.465501	0.140177	-1.457807
Cl	1.789516	0.0	0.0
H	-1.561245	0.207032	-1.422488
H	-0.321122	0.890759	0.538707
H	-0.056489	1.047988	-1.910832
N	-0.483006	-1.151297	0.700216
H	-0.266188	-1.987169	0.166581
H	-1.500083	-1.0477	0.737822
C	-0.074549	-1.012211	-2.263342
N	0.210931	-1.947012	-2.913901
Cl	-3.537612	0.0	0.0
