12

C	0.0	0.0	0.0
C	-0.475513	0.190771	-1.448018
Cl	1.789711	0.0	0.0
H	-1.571804	0.240818	-1.398085
H	-0.323027	0.873432	0.567095
H	-0.087927	1.125328	-1.863624
N	-0.486286	-1.171075	0.666301
H	-0.307945	-1.987114	0.089733
H	-1.500515	-1.049313	0.735855
C	-0.071946	-0.914017	-2.310282
N	0.245148	-1.799942	-3.011867
Cl	-3.542522	0.0	0.0
