18

C	0.0	0.0	0.0
C	-0.552503	-0.063234	-1.417827
F	1.362798	0.0	0.0
H	-1.649271	-0.037587	-1.350186
N	-0.331807	1.434416	0.484577
O	-1.48131	1.806828	0.337647
O	0.588778	2.064857	0.995301
C	-0.592141	-0.952437	0.995703
H	-0.21519	-0.696237	1.98835
H	-0.313195	-1.977877	0.755123
H	-1.683901	-0.85285	0.96037
N	-0.188322	-1.453859	-1.965591
O	-0.871551	-2.404657	-1.600807
O	0.77528	-1.521738	-2.730083
N	-0.018893	0.986867	-2.203776
H	0.96179	0.828162	-2.388019
H	-0.519416	1.077052	-3.075403
Cl	-4.015445	0.0	0.0
