18

C	0.0	0.0	0.0
C	-0.449568	0.124795	-1.477973
F	1.361985	0.0	0.0
H	-0.203774	-0.832495	-1.943495
N	-0.34169	1.276181	0.788935
O	0.58883	1.886394	1.302516
O	-1.528031	1.564978	0.862314
C	-0.64835	-1.158623	0.692325
H	-0.317247	-1.209313	1.731608
H	-1.734338	-1.013535	0.664054
H	-0.384949	-2.088318	0.182618
N	0.494002	1.112038	-2.125824
O	1.282672	0.694019	-2.968084
O	0.379709	2.279556	-1.761963
N	-1.769115	0.518531	-1.81173
H	-2.465304	-0.181677	-1.559918
H	-2.048624	1.328468	-1.271288
Cl	-4.3519	0.0	0.0
