18

C	0.0	0.0	0.0
C	-0.52316	0.142584	-1.434699
F	1.371658	0.0	0.0
H	-1.614559	0.223807	-1.378863
N	-0.351039	1.270063	0.787834
O	-0.926436	2.192435	0.222004
O	0.03433	1.279615	1.952973
C	-0.523197	-1.190688	0.746713
H	-0.167753	-2.100763	0.261519
H	-0.14747	-1.15794	1.768834
H	-1.616738	-1.160426	0.730748
N	-0.213851	-1.17366	-2.109539
O	-1.115811	-1.999055	-2.214768
O	0.945335	-1.329649	-2.494723
N	0.067625	1.168955	-2.241654
H	-0.375097	2.045622	-2.006388
H	1.060787	1.228638	-2.05693
Cl	-3.705619	0.0	0.0
