14

C	-0.530102	-0.022821	-1.40494
C	0.0	0.0	0.0
Br	-2.496927	0.019403	-1.49932
H	1.091591	0.0	0.0
H	-0.343681	-0.883776	0.536471
N	0.045252	1.137899	-2.277504
O	1.260248	1.086704	-2.382285
O	-0.717422	1.942979	-2.780726
C	-0.105701	-1.254974	-2.058886
N	0.231316	-2.243046	-2.599316
N	-0.467657	1.169179	0.734634
O	-0.72301	1.030016	1.931788
O	-0.518108	2.241594	0.126713
F	2.456503	0.0	0.0
