14

C	-0.550643	0.03642	-1.396128
C	0.0	0.0	0.0
Br	-2.518472	0.02709	-1.454347
H	1.090434	0.0	0.0
H	-0.33066	-0.914752	0.491805
N	-0.02481	1.255554	-2.212229
O	-0.810897	2.101173	-2.598756
O	1.180976	1.211752	-2.397441
C	-0.101175	-1.148905	-2.117533
N	0.20912	-2.1133	-2.714357
N	-0.475993	1.118083	0.807326
O	-0.525949	2.229047	0.271652
O	-0.737179	0.898438	1.992115
F	2.457053	0.0	0.0
