14

C	-0.546186	-0.035479	-1.397566
C	0.0	0.0	0.0
Br	-2.515644	-0.035916	-1.464954
H	1.091607	0.0	0.0
H	-0.330455	-0.88712	0.539503
N	-0.009474	1.136755	-2.276082
O	-0.792362	1.945144	-2.740587
O	1.201017	1.095205	-2.424347
C	-0.102959	-1.259134	-2.055532
N	0.247584	-2.238559	-2.603247
N	-0.472971	1.160809	0.74507
O	-0.708518	1.012617	1.945354
O	-0.545922	2.2356	0.143071
F	2.455581	0.0	0.0
