15

C	-0.519384	-0.022656	-1.437691
C	0.0	0.0	0.0
Br	0.051894	1.599883	-2.368358
H	1.093644	0.0	0.0
H	-0.010506	-0.846614	-1.937157
C	-2.025006	-0.150307	-1.545495
H	-2.337051	-0.184204	-2.590598
H	-2.339045	-1.075922	-1.059256
H	-2.518372	0.697588	-1.064885
N	-0.391919	-1.262915	0.641722
H	-1.243317	-1.151344	1.180414
H	0.351819	-1.532533	1.27558
C	-0.504419	1.168224	0.734583
N	-0.976949	2.037049	1.369755
Cl	3.365	0.0	0.0
