15

C	-0.365184	-0.029498	-1.478679
C	0.0	0.0	0.0
Br	-2.330588	-0.107678	-1.700991
H	1.09763	0.0	0.0
H	-0.081708	0.92161	-1.933162
C	0.286685	-1.1947	-2.190236
H	0.058638	-1.176602	-3.257066
H	-0.051472	-2.134542	-1.75691
H	1.366822	-1.109957	-2.041419
N	-0.431857	-1.210008	0.686053
H	-1.395519	-1.122163	0.989802
H	0.157392	-1.345155	1.499962
C	-0.47146	1.239364	0.640204
N	-0.843179	2.209297	1.190831
Cl	3.34067	0.0	0.0
