15

C	-0.310264	0.025865	-1.503091
C	0.0	0.0	0.0
Br	-2.257975	-0.080648	-1.830841
H	1.098611	0.0	0.0
H	-0.025256	0.999641	-1.904398
C	0.40238	-1.087756	-2.238107
H	0.041778	-2.063628	-1.909226
H	0.24914	-1.008618	-3.315232
H	1.467993	-1.00766	-2.007839
N	-0.429963	-1.178857	0.732839
H	0.259199	-1.909473	0.613224
H	-1.334009	-1.498423	0.40299
C	-0.50566	1.213465	0.648455
N	-0.907038	2.193761	1.155404
Cl	3.320547	0.0	0.0
