15

C	-0.526622	-0.031724	-1.436239
C	0.0	0.0	0.0
Br	0.013585	1.59025	-2.38788
H	1.093639	0.0	0.0
H	-0.004324	-0.848507	-1.935684
C	-2.032183	-0.194853	-1.529343
H	-2.317874	-1.121176	-1.023396
H	-2.353707	-0.251432	-2.571413
H	-2.541641	0.649465	-1.058129
N	-0.385863	-1.263961	0.649574
H	0.399617	-1.568374	1.21275
H	-1.184216	-1.13639	1.259351
C	-0.509777	1.164747	0.733713
N	-0.984826	2.027075	1.375305
Cl	3.32478	0.0	0.0
