9
Coordinates from ORCA-job run
  C   -0.73790258594423      0.33651963522393      0.24124540631235
  C   0.32320581634484     -0.22127701152532     -0.35499519974487
  H   -0.68178730087090      0.63200892350371      1.28451679870366
  H   0.38254340920111     -0.55377943533953     -1.38333264902008
  C   -1.95167308101288      0.55111056936920     -0.47476308232456
  N   -2.95920422723682      0.73515003251797     -1.05388876653781
  N   1.55793372524876     -0.43360942175723      0.39966260615014
  O   1.59269257041429     -0.08924850543126      1.57654030786803
  O   2.47519167385585     -0.95587478656148     -0.23398542140686
