9
Coordinates from ORCA-job run
  C   -1.00687864773661     -0.26648113318587      0.07074083506474
  C   0.22810201044420     -0.72331677991293      0.32396825023678
  H   -1.83516614091877     -0.92433757494112      0.31914534390289
  H   0.42426502567117     -1.69661308522764      0.75405418267645
  C   -1.35491445052840      0.99744505328543     -0.49115896335675
  N   -1.76198164603960      2.00375839068779     -0.94490395015474
  N   1.45196854945501      0.02469206180460      0.05318816024046
  O   2.49435358558133     -0.56240017693318      0.34710604968294
  O   1.36125171407167      1.14825324442292     -0.43113990829278
