9
Coordinates from ORCA-job run
  C   -1.00816483014397     -0.23980938449496      0.12359168322517
  C   0.22546971921277     -0.73514686892960      0.29966889842306
  H   -1.83976196880079     -0.87780198713967      0.41001018753701
  H   0.41716625735687     -1.71996387037021      0.70477890298500
  C   -1.35157262725472      1.04194833698031     -0.39949654262483
  N   -1.75464038439452      2.06739273149370     -0.81224075122462
  N   1.45285830905182     -0.01663581602293     -0.02932228381727
  O   2.49353793340533     -0.62955301566988      0.21322737882362
  O   1.36610759156721      1.10956987415323     -0.50821747332714
