9
Coordinates from ORCA-job run
  C   -0.98101072198343     -0.35638758168587     -0.02834521093066
  C   0.21390873276238     -0.59275662606050      0.53247881541280
  H   -1.79275941581968     -1.02615735425121      0.24173114938533
  H   0.39411042247935     -1.40443564638342      1.22492388921813
  C   -1.30561026776902      0.68505968831201     -0.94739959300620
  N   -1.69072574393859      1.49786767733399     -1.70583559363985
  N   1.41040687407354      0.20513916981633      0.28254539768762
  O   2.41762815078883     -0.16725745904749      0.88613897860061
  O   1.33305196940663      1.15892813196617     -0.48523783272777
