9
Coordinates from ORCA-job run
  C   -0.73296681623703     -0.10922943344714     -0.40822395736812
  C   0.29950688205856      0.20766985541235      0.38313082072654
  H   -0.58688796850344     -0.78156117270744     -1.24812032745435
  H   0.27318748379500      0.86289254171646      1.24426948670249
  C   -2.03231915631558      0.42488108923109     -0.16659006463945
  N   -3.11012924399736      0.85778240722121      0.02135396468628
  N   1.62395823773336     -0.35250956461083      0.11611759536887
  O   2.50720926078192     -0.00351178717732      0.89960558508398
  O   1.75944132068457     -1.10841393563838     -0.84054310310624
