9
Coordinates from ORCA-job run
  C   -0.68538484153230      0.24214953660137     -0.43397145335147
  C   0.25603327069398     -0.12255071725333      0.44544867970247
  H   -0.44747950394741      0.29857028915965     -1.49187265280334
  H   0.13496589857002     -0.21359890978924      1.51717274949970
  C   -2.00614525012055      0.56051010654796     -0.00249135227482
  N   -3.10024362322657      0.82586980930228      0.33952487917901
  N   1.60472604263953     -0.44592291139919     -0.01875268520078
  O   1.84571458678455     -0.37081310570983     -1.21931556508011
  O   2.39781342013875     -0.77321409745967      0.86425740032933
