9
Coordinates from ORCA-job run
  C   -0.72786017060887     -0.07559232543641     -0.42513410264399
  C   0.29601744631928      0.18212132997518      0.39831446909079
  H   -0.57829196920624     -0.70579871355122     -1.29639534613247
  H   0.26567178586670      0.79234804532857      1.29168918099884
  C   -2.02222285888643      0.46717379189406     -0.17635720717944
  N   -3.09560969853514      0.90872315395709      0.01666599150381
  N   1.61579911029604     -0.38532317665398      0.12323321339468
  O   2.49192452821153     -0.09066226559277      0.93644024675260
  O   1.75457182654311     -1.09398983992053     -0.86845644578483
