9
Coordinates from ORCA-job run
  C   -0.72777500382992     -0.09344122606850     -0.42193282467117
  C   0.30758409977610      0.23051781560610      0.36273583045007
  H   -0.62796923465998     -0.89352272393189     -1.14914832025962
  H   0.32496771690648      1.00456310377186      1.11932384774292
  C   -1.96952046504127      0.59889644933740     -0.31865506183152
  N   -2.99933414028983      1.16324791697561     -0.24500487120029
  N   1.57256596591110     -0.49351170171011      0.23931672943051
  O   1.65567929952602     -1.39222308236025     -0.59151435727125
  O   2.46380176170131     -0.12352655162022      1.00387902761035
