9
Coordinates from ORCA-job run
  C   -1.01504334215857     -0.20958857353025      0.12607365815338
  C   0.19320131534970     -0.48540220667373      0.63841401894453
  H   -1.87082421488029     -0.67892489381820      0.60347642042881
  H   0.34220579236427     -1.14028804815452      1.48664287489108
  C   -1.30193540896864      0.63860460964259     -0.98433010381714
  N   -1.65980722181756      1.31058122798970     -1.88125348275818
  N   1.44665859019188      0.05781328509917      0.12383227662978
  O   2.45658611536458     -0.30767001581833      0.72701993640083
  O   1.40895837455464      0.81487461526358     -0.84087559887310
