9
Coordinates from ORCA-job run
  C   -0.61639810457681      0.36394607598399     -0.45123526445145
  C   0.18791348794088     -0.24416032919585      0.42958359560023
  H   -0.22159948046266      0.70142114774576     -1.40466994961154
  H   -0.09349176471424     -0.62024460342657      1.40469711092205
  C   -1.99429530854186      0.58043208788369     -0.15675249209793
  N   -3.13342282384142      0.76524423384907      0.07263157454180
  N   1.59839919252399     -0.45637830739874      0.10626071150640
  O   2.25458456953929     -1.02795215703081      0.97714481324985
  O   2.01731023213282     -0.06330814841054     -0.97766009965941
