9
Coordinates from ORCA-job run
  C   -0.98471175572569     -0.34297607812450     -0.04976401497727
  C   0.28225851178210     -0.77485703962607      0.03053325646095
  H   -1.76256270911731     -1.10109079958592     -0.07699556037892
  H   0.55141816133617     -1.82212571658373      0.06929512863029
  C   -1.42683083541908      1.01218979423025     -0.10190945328131
  N   -1.90975765035856      2.08388903110160     -0.15177212596763
  N   1.44709812379536      0.10369424774976      0.07976703062380
  O   1.27350270609419      1.31666627600753      0.01841718221494
  O   2.52958544761281     -0.47538971516892      0.18142855667515
