9
Coordinates from ORCA-job run
  C   -0.69166513336300      0.01125479093694     -0.48645228797874
  C   0.26551795509108      0.11044728736322      0.44432099503906
  H   -0.48121724103854     -0.48100691559371     -1.43105848280510
  H   0.17181570840765      0.57554420441057      1.41716682900576
  C   -1.99359371671586      0.54509025027460     -0.25946695465985
  N   -3.07183336891893      0.98372427343458     -0.08831751601178
  N   1.59387901041594     -0.44559719468702      0.18832556927233
  O   2.40590327198142     -0.30243416025695      1.10265531375986
  O   1.80119407895442     -0.99802587609599     -0.88717267566572
