9
Coordinates from ORCA-job run
  C   -0.98762285068903     -0.33023991816880     -0.07207366800679
  C   0.24861026654886     -0.75185287193401      0.23158278169513
  H   -1.78660183961810     -1.06407014456793     -0.01147026042129
  H   0.47387429279032     -1.76866798974375      0.52502191612836
  C   -1.37175573773199      0.98497027091400     -0.46839138388401
  N   -1.80670667582690      2.02575701498781     -0.80263080690994
  N   1.43590253444881      0.09715794101656      0.20231627796278
  O   1.31012811551961      1.27572581031044     -0.11443617658400
  O   2.48617189455841     -0.46878011281432      0.50908132001974
