9
Coordinates from ORCA-job run
  C   -0.62868964381777      0.46944788555118     -0.31728771428230
  C   0.19249897036558     -0.37871283059315      0.31436409225747
  H   -0.23030749318083      1.17295483776574     -1.04193105268211
  H   -0.09041979334726     -1.11957131327666      1.05109075951678
  C   -2.02949018810158      0.46524093201216     -0.05333576602157
  N   -3.18748904715589      0.47343515774700      0.15491527422002
  N   1.62678421790728     -0.35722492578019      0.02830830040700
  O   2.04857576709092      0.44756926816738     -0.79589749848027
  O   2.29853721023955     -1.17313901159346      0.65977360506499
