9
Coordinates from ORCA-job run
  C   -0.62455973315275      0.44214102709073     -0.35894912702879
  C   0.18956497607011     -0.34860216541332      0.35129085946299
  H   -0.22199915215971      1.05522968727078     -1.15967089139868
  H   -0.09651334853856     -1.00021961386059      1.16686438412524
  C   -2.02173720323781      0.49627064712347     -0.08161837558645
  N   -3.17645043488677      0.55522927595309      0.13606998634700
  N   1.62010356717221     -0.38315197969878      0.04928766144985
  O   2.04432651649281      0.31822486452902     -0.86340047439888
  O   2.28726481224047     -1.13512174299440      0.76012597702772
