9
Coordinates from ORCA-job run
  C   -1.01824085071388     -0.18765243344883      0.13249803536717
  C   0.17974614322908     -0.41227890726416      0.69156622891624
  H   -1.88487735734290     -0.59492456903978      0.64604888747411
  H   0.31028352129469     -0.96646184567289      1.61174813368417
  C   -1.28207456331584      0.53110819918560     -1.07100828569932
  N   -1.62128209215920      1.09706695601291     -2.04516506286386
  N   1.44526817834407      0.06291392857154      0.14020307862463
  O   1.42993351738336      0.69320088817685     -0.91229986148068
  O   2.44124350328061     -0.22297221652125      0.80640884597754
