9
Coordinates from ORCA-job run
  C   -0.95691318195235      0.21655423835192      0.35771876550713
  C   0.27877606959351     -0.10241171626640      0.76960785578401
  H   -1.70865562034314      0.36506671104762      1.12799541870854
  H   0.54579141360898     -0.21484194732255      1.81210014865922
  C   -1.39475967828817      0.38389749502975     -0.98941443081860
  N   -1.86889601837742      0.54767515256400     -2.05367226816648
  N   1.40778292133606     -0.33673794053727     -0.12554424942167
  O   1.23069031932639     -0.23876801341491     -1.33559255098036
  O   2.46618377509615     -0.61943397945216      0.43780131072820
