9
Coordinates from ORCA-job run
  C   -0.62160206921147      0.56128533524608     -0.11309842316020
  C   0.18783639513241     -0.49389028229174      0.04086863127383
  H   -0.21653510992595      1.56758927933496     -0.06668895302654
  H   -0.10125335952552     -1.53660741999700      0.01387521097666
  C   -2.01849235130452      0.38851875452253     -0.33813060498213
  N   -3.17345647705984      0.26374153008151     -0.52512481393895
  N   1.61766684509185     -0.28989922147266      0.27143854369203
  O   2.28003786967994     -1.32031513036662      0.39531616842826
  O   2.04579825712310      0.85857715494295      0.32254424073706
