9
Coordinates from ORCA-job run
  C   -0.98602179493560     -0.34150416498212     -0.03542550347835
  C   0.20157949330597     -0.59712746977077      0.53249003143167
  H   -1.80958622657196     -0.99928812393217      0.22836782140951
  H   0.36510089192550     -1.41239164165387      1.22486386442241
  C   -1.28903269009186      0.70666281923064     -0.95428313102064
  N   -1.65683685042305      1.52680631015135     -1.71337464444612
  N   1.41146300419416      0.18327444310365      0.29172348833775
  O   2.40796740309652     -0.20218079396082      0.90484908682854
  O   1.35436676950032      1.13674862181411     -0.47821101348477
