9
Coordinates from ORCA-job run
  C   -0.96463952553009      0.18573035321315      0.35362666299441
  C   0.27752749734527     -0.09956830014454      0.77062105098596
  H   -1.72552517332227      0.30593111406798      1.11989862489783
  H   0.54226916698159     -0.21147865429737      1.81375021585257
  C   -1.39968961395798      0.34956792704658     -0.99490039603105
  N   -1.87380057447716      0.50608378974161     -2.06023915095875
  N   1.41797052775388     -0.29380026425738     -0.11959356770668
  O   1.24487435673710     -0.19272792408965     -1.32996257667543
  O   2.48101333846966     -0.54973804128037      0.44779913664114
