16

C	-0.551385	0.159906	-1.402933
C	0.0	0.0	0.0
Cl	0.49133	1.119719	-2.458305
H	1.089983	0.0	0.0
H	-1.540015	0.61125	-1.421386
N	-0.745116	-1.207439	-2.009877
O	0.21419	-1.796131	-2.488177
O	-1.890784	-1.653987	-1.919989
C	-0.352954	-1.300181	0.701811
H	-1.429999	-1.47114	0.80464
H	0.114249	-1.275488	1.683118
H	0.100664	-2.123544	0.148533
N	-0.442208	1.151892	0.80289
O	-0.895716	2.14653	0.223193
O	-0.289203	1.093136	2.024031
F	2.492007	0.0	0.0
