16

C	-0.454215	0.011752	-1.436043
C	0.0	0.0	0.0
Cl	0.437423	-1.139405	-2.424083
H	1.092705	0.0	0.0
H	-0.34219	1.002964	-1.864976
N	-1.941155	-0.294213	-1.501847
O	-2.33167	-1.429027	-1.749699
O	-2.66084	0.656257	-1.19995
C	-0.480255	-1.189683	0.795321
H	-1.555585	-1.16974	0.997552
H	-0.234241	-2.097436	0.240017
H	0.054837	-1.219028	1.743455
N	-0.380038	1.282048	0.634913
O	-0.227122	2.318824	-0.012014
O	-0.753649	1.260058	1.810571
F	2.498135	0.0	0.0
