16

C	-0.460434	0.002805	-1.433898
C	0.0	0.0	0.0
Cl	0.432362	-1.148331	-2.420096
H	1.092744	0.0	0.0
H	-0.355071	0.992323	-1.867688
N	-1.946054	-0.310833	-1.493972
O	-2.330876	-1.448904	-1.735175
O	-2.670122	0.63858	-1.195499
C	-0.474578	-1.185173	0.8059
H	0.067397	-1.208257	1.749914
H	-0.232954	-2.095722	0.254276
H	-1.54851	-1.164674	1.015022
N	-0.37842	1.283909	0.631008
O	-0.730564	1.26582	1.813723
O	-0.243401	2.318568	-0.02601
F	2.498734	0.0	0.0
