16

C	-0.554963	-0.022547	-1.408092
C	0.0	0.0	0.0
Cl	0.235151	1.16937	-2.44218
H	1.089995	0.0	0.0
H	-1.626337	0.151291	-1.453554
N	-0.363187	-1.404922	-1.980738
O	0.710629	-1.713528	-2.473432
O	-1.341156	-2.14742	-1.854332
C	-0.453466	-1.176705	0.850193
H	-1.538668	-1.321449	0.85092
H	-0.09956	-1.000819	1.86727
H	0.03505	-2.081815	0.490684
N	-0.513902	1.231757	0.661618
O	0.142565	1.67625	1.59964
O	-1.589768	1.714974	0.282182
F	2.529003	0.0	0.0
