16

C	-0.326216	0.014876	-1.467345
C	0.0	0.0	0.0
Cl	0.040435	-1.537507	-2.245623
H	1.093046	0.0	0.0
H	0.254867	0.774067	-1.980756
N	-1.770447	0.32889	-1.803301
O	-2.637057	-0.03927	-1.014719
O	-1.972932	0.914974	-2.8624
C	-0.47269	-1.141932	0.868977
H	-1.548364	-1.123686	1.0525
H	0.060033	-1.083566	1.817112
H	-0.199472	-2.084174	0.394419
N	-0.399007	1.299628	0.555845
O	-0.514748	1.40331	1.777455
O	-0.543499	2.248234	-0.228301
F	2.499425	0.0	0.0
