16

C	-0.465989	-0.00916	-1.432054
C	0.0	0.0	0.0
Cl	0.434053	-1.154587	-2.416548
H	1.092692	0.0	0.0
H	-0.374248	0.979503	-1.870683
N	-1.948955	-0.338808	-1.481251
O	-2.324668	-1.478835	-1.726759
O	-2.679397	0.601427	-1.16998
C	-0.467372	-1.181895	0.815132
H	-1.540351	-1.164509	1.029044
H	0.079377	-1.197333	1.756588
H	-0.223531	-2.094588	0.267542
N	-0.380278	1.28721	0.622638
O	-0.728142	1.277861	1.807044
O	-0.251885	2.316772	-0.043331
F	2.499157	0.0	0.0
