16

C	-0.529079	-0.0793	-1.401898
C	0.0	0.0	0.0
Cl	-2.314464	-0.067672	-1.506539
H	1.092738	0.0	0.0
H	-0.194433	-1.023608	-1.827333
N	0.045582	0.955274	-2.364513
O	1.219844	0.746625	-2.643237
O	-0.659949	1.850946	-2.803909
C	-0.374401	-1.225268	0.80897
H	0.150064	-1.182725	1.761893
H	-0.013561	-2.107961	0.275254
H	-1.448145	-1.318351	0.992168
N	-0.432942	1.237779	0.663125
O	-0.723807	1.198138	1.860778
O	-0.419161	2.271903	-0.007542
F	2.49096	0.0	0.0
