16

C	-0.450024	-0.00587	-1.437554
C	0.0	0.0	0.0
Cl	0.443525	-1.167616	-2.408624
H	1.09272	0.0	0.0
H	-0.335617	0.979925	-1.876987
N	-1.936672	-0.312102	-1.504385
O	-2.654263	0.637629	-1.192448
O	-2.328363	-1.44293	-1.764724
C	-0.479329	-1.182341	0.806284
H	0.050521	-1.197399	1.756905
H	-0.225208	-2.094135	0.262928
H	-1.555285	-1.167058	1.00166
N	-0.384053	1.287933	0.615457
O	-0.784047	1.278481	1.782201
O	-0.209341	2.317433	-0.038832
F	2.497707	0.0	0.0
