14

C	0.0	0.0	0.0
C	-0.443279	-0.196878	-1.438168
F	1.394617	0.0	0.0
H	0.015364	0.603841	-2.027606
H	-0.278933	1.004928	0.344401
H	-1.527557	-0.071924	-1.479838
N	-0.487473	-1.053589	0.840638
H	-1.494359	-1.10137	0.6735
H	-0.377806	-0.780159	1.811025
C	-0.022431	-1.556413	-1.99153
H	-0.56029	-2.362782	-1.492433
H	1.046157	-1.719802	-1.837392
H	-0.230819	-1.617047	-3.063676
Br	-3.878105	0.0	0.0
