16

C	-0.436003	0.063817	-1.481204
C	0.0	0.0	0.0
Cl	-0.076303	-1.508303	-2.269568
H	1.095009	0.0	0.0
C	-1.88169	0.282573	-1.562084
N	-3.037918	0.488195	-1.599938
C	0.338972	1.162841	-2.193369
H	0.103657	2.116491	-1.721843
H	0.071804	1.191718	-3.25115
H	1.405104	0.95738	-2.076512
C	-0.512435	-1.199905	0.671348
N	-0.949383	-2.101714	1.285751
N	-0.417431	1.23405	0.656879
H	0.282817	1.486464	1.345033
H	-1.31331	1.122063	1.116594
Br	3.447859	0.0	0.0
