16

C	-0.540426	0.010407	-1.451436
C	0.0	0.0	0.0
Cl	0.208687	1.393026	-2.308283
H	1.094124	0.0	0.0
C	-0.15544	-1.217962	-2.149453
N	0.104365	-2.223227	-2.700028
C	-2.053806	0.180753	-1.487728
H	-2.402833	0.243537	-2.519283
H	-2.535479	-0.669692	-0.997605
H	-2.301021	1.102385	-0.960939
C	-0.478181	-1.210689	0.671045
N	-0.943581	-2.144798	1.212904
N	-0.429902	1.210796	0.702912
H	-1.038859	0.990283	1.479299
H	0.401909	1.663382	1.063158
Br	3.410651	0.0	0.0
