16

C	-0.531827	-0.011061	-1.454283
C	0.0	0.0	0.0
Cl	0.147856	1.426906	-2.289587
H	1.100197	0.0	0.0
C	-0.063853	-1.20586	-2.158157
N	0.263584	-2.188638	-2.712761
C	-2.051681	0.068598	-1.510957
H	-2.386492	0.142037	-2.546859
H	-2.484612	-0.827094	-1.058113
H	-2.365407	0.949932	-0.952752
C	-0.489228	-1.197707	0.680576
N	-0.918096	-2.138358	1.239979
N	-0.482313	1.210133	0.687565
H	0.294509	1.862102	0.691597
H	-0.674378	0.989276	1.654725
Br	3.428995	0.0	0.0
