16

C	-0.44287	0.083112	-1.477778
C	0.0	0.0	0.0
Cl	-0.106296	-1.483817	-2.286561
H	1.094984	0.0	0.0
C	-1.887612	0.317704	-1.547591
N	-3.042452	0.533783	-1.57756
C	0.338392	1.183358	-2.18335
H	0.119328	2.134007	-1.697089
H	0.060793	1.22917	-3.237565
H	1.403512	0.963932	-2.079866
C	-0.514533	-1.204174	0.661851
N	-0.955924	-2.109775	1.267388
N	-0.40864	1.229319	0.672582
H	-1.289802	1.112887	1.158126
H	0.310138	1.4841	1.339914
Br	3.442289	0.0	0.0
