14

C	0.0	0.0	0.0
C	-0.302936	0.220204	-1.527251
Br	2.02871	0.0	0.0
H	0.553738	0.749276	-1.952516
H	-0.227384	-1.027978	0.290661
N	-0.557095	1.013884	0.815293
H	-0.407184	0.748387	1.782855
H	-1.578817	0.882483	0.623921
N	-1.483687	1.008323	-1.807599
H	-2.275113	0.601039	-1.254337
H	-1.660766	0.971874	-2.804391
C	-0.297056	-1.123223	-2.164703
N	-0.314373	-2.154252	-2.729807
F	-2.913195	0.0	0.0
