14

C	0.0	0.0	0.0
C	-0.582956	0.08348	-1.411747
Br	1.938623	0.0	0.0
H	-1.619798	0.409981	-1.197915
H	-0.262449	-0.992987	0.376905
N	-0.51957	1.098028	0.766199
H	-0.236764	0.984	1.733576
H	-1.543892	0.909178	0.693242
N	-0.609413	-1.261874	-2.013117
H	-0.702609	-1.173817	-3.019717
H	-1.4862	-1.652864	-1.672629
C	0.09015	1.046358	-2.274487
N	0.567172	1.801843	-3.037947
F	-2.824077	0.0	0.0
