14

C	0.0	0.0	0.0
C	-0.269576	-0.26341	-1.537627
Br	1.998863	0.0	0.0
H	0.101284	0.657424	-2.008059
H	-0.242232	-0.895928	0.583802
N	-0.636361	1.200799	0.406068
H	-1.653844	0.945109	0.291201
H	-0.487731	1.321318	1.403132
N	-1.618678	-0.535021	-2.007444
H	-1.78924	-1.526319	-1.869061
H	-2.30312	-0.112767	-1.332697
C	0.551979	-1.381816	-2.039147
N	1.093302	-2.334699	-2.462859
F	-3.032179	0.0	0.0
