14

C	0.0	0.0	0.0
C	-0.303242	0.017419	-1.559039
Br	1.953663	0.0	0.0
H	0.499595	0.613442	-2.003253
H	-0.286904	-0.959562	0.440323
N	-0.591889	1.152302	0.599067
H	-1.613579	0.91647	0.500301
H	-0.380689	1.144802	1.593124
N	-1.554883	0.557115	-2.035239
H	-2.29851	0.235346	-1.369442
H	-1.49365	1.559567	-1.894156
C	-0.121315	-1.356617	-2.066167
N	-0.004525	-2.449884	-2.479235
F	-2.950162	0.0	0.0
