14

C	0.372191	-0.130399	0.087039
C	-0.71257	-0.127321	-0.999017
Cl	2.029022	-0.17675	-0.596392
H	-1.664938	-0.003733	-0.459469
H	0.292543	0.814173	0.626752
C	0.215142	-1.245127	1.018091
N	0.05194	-2.139556	1.761796
N	-0.663499	-1.349483	-1.784188
H	-0.899603	-2.143902	-1.194824
H	-1.43343	-1.257537	-2.448599
N	-0.549083	1.059343	-1.804106
H	0.148343	0.845721	-2.511085
H	-1.43612	1.181953	-2.293366
Br	-3.643014	0.046151	-3.001691
