14

C	-0.138429	-0.205653	-0.003815
C	-0.513006	-0.210519	-1.504686
Cl	1.559325	0.301521	0.269567
H	-1.595401	-0.406934	-1.494254
H	-0.78832	0.536065	0.477409
C	-0.33626	-1.525075	0.582667
N	-0.515579	-2.613071	0.98972
N	0.277637	-1.208404	-2.210989
H	-0.011285	-2.142127	-1.941777
H	0.079111	-1.083999	-3.196339
N	-0.337332	1.054652	-2.166455
H	0.608053	1.383025	-2.001966
H	-0.989438	1.714302	-1.742284
Br	-2.678428	2.210857	0.139262
