13

C	0.0	0.0	0.0
C	-0.46435	-0.159666	-1.481483
Br	1.942791	0.0	0.0
H	0.428988	-0.211087	-2.112693
H	-0.345809	-0.863855	0.55749
C	-0.413341	1.22496	0.673077
N	-0.675257	2.198186	1.275984
C	-1.210883	1.023386	-1.957988
N	-1.673823	1.947012	-2.518514
N	-1.183657	-1.417629	-1.595005
H	-2.022522	-1.191917	-1.020029
H	-1.45545	-1.544096	-2.565158
F	-2.485488	0.0	0.0
