13

C	0.0	0.0	0.0
C	-0.456898	0.124056	-1.487647
Br	1.943447	0.0	0.0
H	0.44045	0.192151	-2.111334
H	-0.337584	-0.961138	0.372705
C	-0.438785	1.068637	0.889076
N	-0.593634	1.962384	1.637045
C	-1.202842	1.374812	-1.741402
N	-1.681511	2.376255	-2.129469
N	-1.173047	-1.09058	-1.845706
H	-1.443664	-1.024667	-2.822057
H	-2.013373	-0.977768	-1.244395
F	-2.471708	0.0	0.0
