13

C	0.0	0.0	0.0
C	-0.636985	-0.252858	-1.36569
Br	1.939659	0.0	0.0
H	-1.708489	-0.454779	-0.989391
H	-0.310932	-0.795496	0.677337
C	-0.431147	1.279996	0.557864
N	-0.669097	2.315523	1.057943
C	-0.03494	-1.375319	-2.055029
N	0.396396	-2.289107	-2.658064
N	-0.614977	0.977685	-2.17175
H	-0.65913	0.735536	-3.154485
H	-1.48763	1.445615	-1.937833
F	-2.724089	0.0	0.0
