13

C	0.0	0.0	0.0
C	-0.534335	0.120812	-1.421133
Br	1.950851	0.0	0.0
H	-1.660373	0.088622	-1.113172
H	-0.346201	-0.925811	0.449917
C	-0.422346	1.136626	0.817996
N	-0.638261	2.081064	1.481923
C	-0.159939	-1.0467	-2.21965
N	0.122317	-1.945884	-2.925046
N	-0.136975	1.378622	-2.023035
H	-0.800736	1.638306	-2.73938
H	0.787536	1.311725	-2.434456
F	-2.617107	0.0	0.0
