13

C	0.0	0.0	0.0
C	-0.236412	-0.094672	-1.590009
Br	1.947071	0.0	0.0
H	0.427607	-0.913871	-1.887199
H	-0.378397	-0.887796	0.494119
C	-0.490062	1.211444	0.634952
N	-0.650578	2.247006	1.169621
C	0.305939	1.130265	-2.208402
N	0.680489	2.104907	-2.745725
N	-1.528338	-0.346474	-2.184597
H	-1.970325	-1.013	-1.551313
H	-2.104842	0.445077	-1.905958
F	-2.490755	0.0	0.0
