13

C	0.0	0.0	0.0
C	-0.45627	-0.016152	-1.492666
Br	1.942992	0.0	0.0
H	0.441095	-0.007348	-2.120081
H	-0.334304	-0.92298	0.462588
C	-0.437658	1.14763	0.785063
N	-0.595339	2.10089	1.45498
C	-1.204999	1.203024	-1.866064
N	-1.697722	2.147224	-2.365086
N	-1.172718	-1.258412	-1.736234
H	-2.01394	-1.0909	-1.148939
H	-1.439258	-1.284141	-2.716146
F	-2.468922	0.0	0.0
