13

C	-0.394992	0.011601	-1.470539
C	0.0	0.0	0.0
Br	-2.330065	0.243587	-1.712115
H	1.096082	0.0	0.0
H	0.075363	0.879361	-1.935944
C	0.012807	-1.215673	-2.137046
N	0.306239	-2.212337	-2.687526
C	-0.547481	-1.121773	0.739116
N	-0.952037	-2.06414	1.312306
N	-0.389363	1.305217	0.630868
O	-0.178189	2.306587	-0.046173
O	-0.831466	1.283687	1.775521
Br	3.257044	0.0	0.0
