13

C	-0.448032	-0.011164	-1.46642
C	0.0	0.0	0.0
Br	0.10309	1.625579	-2.357213
H	1.091599	0.0	0.0
H	0.120793	-0.806097	-1.95576
C	-1.875515	-0.223917	-1.674773
N	-3.011307	-0.431921	-1.887299
C	-0.510257	-1.182804	0.68029
N	-0.907836	-2.153314	1.210039
N	-0.542075	1.225124	0.687293
O	-1.768018	1.301873	0.763789
O	0.264983	2.045599	1.100183
Br	3.349707	0.0	0.0
