13

C	-0.552929	0.00398	-1.42144
C	0.0	0.0	0.0
Br	0.017115	-1.61671	-2.341872
H	1.091576	0.0	0.0
H	-1.644378	-0.01395	-1.4174
C	-0.083289	1.177607	-2.148145
N	0.299626	2.135968	-2.710621
C	-0.535537	-1.096451	0.775489
N	-0.952168	-1.991325	1.421527
N	-0.439408	1.292249	0.66173
O	0.433135	1.970451	1.187042
O	-1.638035	1.565996	0.596965
Br	2.749114	0.0	0.0
