13

C	-0.55293	0.004118	-1.421355
C	0.0	0.0	0.0
Br	0.006949	-1.621346	-2.338853
H	1.091543	0.0	0.0
H	-1.644538	-0.006083	-1.41745
C	-0.073921	1.173907	-2.148363
N	0.3216	2.12785	-2.709655
C	-0.533743	-1.09513	0.778328
N	-0.950212	-1.989467	1.425191
N	-0.437907	1.293462	0.660957
O	0.435537	1.970517	1.186275
O	-1.636088	1.56904	0.595974
Br	2.749112	0.0	0.0
