13

C	-0.396924	0.014466	-1.469792
C	0.0	0.0	0.0
Br	-2.329097	0.261095	-1.704485
H	1.096055	0.0	0.0
H	0.078558	0.877872	-1.936025
C	-0.002227	-1.215977	-2.137632
N	0.282069	-2.21509	-2.687296
C	-0.550798	-1.119975	0.738941
N	-0.958903	-2.060688	1.31216
N	-0.384607	1.30598	0.63301
O	-0.176183	2.307036	-0.04497
O	-0.818192	1.284802	1.781424
Br	3.259141	0.0	0.0
