13

C	-0.540393	-0.026804	-1.434313
C	0.0	0.0	0.0
Br	0.072699	-1.642931	-2.332806
H	1.09156	0.0	0.0
H	-1.627025	-0.073616	-1.422707
C	-0.114562	1.146974	-2.185476
N	0.198556	2.101488	-2.793444
C	-0.535411	-1.106879	0.78112
N	-0.991355	-1.990295	1.408248
N	-0.495776	1.278199	0.649489
O	0.273324	1.868556	1.390219
O	-1.654364	1.606563	0.388948
Br	3.328365	0.0	0.0
