16

C	0.0	0.0	0.0
C	-0.599063	0.088284	-1.398261
Cl	1.789716	0.0	0.0
H	-1.695287	0.1592	-1.183767
H	-0.31417	-0.978416	0.370555
C	-0.507151	1.076138	0.936133
H	-0.158917	2.062424	0.628379
H	-1.604461	1.023201	0.887947
H	-0.165904	0.878128	1.955441
N	-0.327802	-1.00512	-2.283471
H	-0.954119	-1.761374	-2.036512
H	0.633835	-1.312073	-2.200894
N	-0.16177	1.359193	-2.056718
O	0.784009	1.306973	-2.844563
O	-0.759456	2.393038	-1.750277
H	-3.169949	0.0	0.0
