16

C	0.0	0.0	0.0
C	-0.626384	0.012357	-1.37449
Cl	1.793498	0.0	0.0
H	-1.73129	0.050153	-1.117677
H	-0.294302	-0.975038	0.391411
C	-0.493567	1.081961	0.937206
H	-1.59033	1.049671	0.891163
H	-0.126659	2.064847	0.645424
H	-0.157092	0.861165	1.953734
N	-0.301495	-1.15532	-2.123923
H	0.637767	-1.079057	-2.494758
H	-0.941381	-1.24185	-2.902578
N	-0.287721	1.286218	-2.116496
O	0.378378	1.198353	-3.155763
O	-0.71867	2.346938	-1.664671
H	-3.163709	0.0	0.0
