16

C	0.0	0.0	0.0
C	-0.584057	0.006465	-1.399069
Cl	1.793571	0.0	0.0
H	-1.688908	0.039545	-1.200644
H	-0.307051	-0.966486	0.402558
C	-0.49919	1.112885	0.896988
H	-0.185595	0.918428	1.925161
H	-0.108115	2.081123	0.584899
H	-1.594852	1.093745	0.830057
N	-0.19775	-1.148215	-2.13899
H	0.782717	-1.089781	-2.376927
H	-0.727712	-1.196055	-2.996894
N	-0.21437	1.293359	-2.120659
O	0.593272	1.2243	-3.052955
O	-0.753369	2.338891	-1.756556
H	-3.194987	0.0	0.0
