16

C	0.0	0.0	0.0
C	-0.403263	0.06474	-1.477313
Cl	1.789314	0.0	0.0
H	0.131189	0.897166	-1.94694
H	-0.311996	-0.95943	0.411242
C	-0.5685	1.157276	0.785625
H	-0.289714	2.109919	0.326393
H	-1.659309	1.052003	0.790179
H	-0.194447	1.14301	1.812271
N	-1.776151	0.036553	-1.756601
H	-2.058592	0.815373	-2.333949
H	-2.489891	-0.066694	-0.950081
N	0.249464	-1.150466	-2.18396
O	0.77279	-0.944006	-3.279482
O	0.128523	-2.254494	-1.661847
H	-3.573117	0.0	0.0
