16

C	0.0	0.0	0.0
C	-0.62477	0.101194	-1.387696
Cl	1.790074	0.0	0.0
H	-1.699037	0.300355	-1.155161
H	-0.31282	-0.978513	0.369113
C	-0.485175	1.068674	0.959383
H	-0.145064	2.056211	0.648172
H	-0.113653	0.861505	1.966324
H	-1.58166	1.018859	0.943835
N	-0.543366	-1.062515	-2.213789
H	0.339914	-1.543199	-2.103169
H	-1.307831	-1.667293	-1.93778
N	-0.053409	1.278089	-2.117429
O	0.78478	1.07429	-2.994048
O	-0.439935	2.395506	-1.768341
H	-3.170815	0.0	0.0
