18

C	0.0	0.0	0.0
C	-0.757486	-0.069237	-1.31337
Cl	1.76141	0.0	0.0
H	-1.875754	-0.074325	-0.912343
C	-0.586377	1.049133	0.914449
H	-1.67445	0.864259	0.891716
H	-0.363038	2.040218	0.511285
H	-0.160535	0.968926	1.917467
N	-0.29264	-1.417743	0.714365
O	-1.462461	-1.721391	0.858312
O	0.655352	-2.108347	1.08125
C	-0.442073	-1.297445	-2.163105
H	-0.789356	-2.196037	-1.6495
H	-0.97624	-1.233188	-3.113934
H	0.628567	-1.393238	-2.370671
C	-0.528825	1.158226	-2.055362
N	-0.357991	2.13574	-2.688071
F	-3.106489	0.0	0.0
