18

C	0.0	0.0	0.0
C	-0.263072	-0.174608	-1.541471
Cl	1.779671	0.0	0.0
H	0.265085	0.698947	-1.947012
C	-0.618008	1.241586	0.56248
H	-0.30004	1.388626	1.594447
H	-0.314985	2.099842	-0.043392
H	-1.715716	1.030538	0.485385
N	-0.458787	-1.207878	0.794127
O	-0.693015	-2.240719	0.181769
O	-0.498738	-1.072334	2.01142
C	-1.66542	-0.171104	-2.148417
H	-2.249753	-1.008557	-1.783967
H	-2.22572	0.703277	-1.838769
H	-1.530814	-0.213523	-3.236449
C	0.4647	-1.328864	-2.097161
N	1.008913	-2.202193	-2.662992
F	-2.971982	0.0	0.0
