18

C	0.0	0.0	0.0
C	-0.656784	-0.12134	-1.371426
Cl	1.790823	0.0	0.0
H	-1.7711	-0.042174	-1.019186
C	-0.460731	1.257935	0.707396
H	-1.552523	1.185225	0.737792
H	-0.133936	2.122275	0.127847
H	-0.029809	1.313184	1.705825
N	-0.370053	-1.212737	0.86651
O	-0.810082	-1.008563	1.989501
O	-0.136775	-2.32288	0.394542
C	-0.420731	-1.385653	-2.199776
H	-0.970913	-2.221366	-1.773372
H	0.638258	-1.653608	-2.256488
H	-0.79159	-1.210059	-3.212994
C	-0.29352	1.050613	-2.148321
N	-0.011136	1.983082	-2.807823
F	-2.867293	0.0	0.0
