14
Coordinates from ORCA-job run
  C   -0.74942869433883     -0.42775771479507      0.04332168955535
  C   0.64769940922214      0.04577404113871     -0.45595020093200
  Br  -0.82588897877512     -2.36508171629752     -0.25267846543406
  H   0.73633299638548     -0.20620027544354     -1.51502761862579
  C   -0.92324367170532     -0.16362484655811      1.47171067607064
  N   -1.12805734668499      0.08952371151480      2.60127785972579
  N   -1.83058792242868      0.18278493612793     -0.66919163589765
  H   -1.93602572496726      1.16196651907317     -0.42873800258435
  H   -1.75082696044219      0.05671113438643     -1.67079591525514
  N   1.79002314738486     -0.66190516207199      0.23557223543459
  O   1.91621846441345     -0.44148969933393      1.43419998678389
  O   2.47282134421334     -1.39821068064482     -0.46617834468216
  C   0.77083143543902      1.48238837895867     -0.24346546446575
  N   0.80913250228410      2.64612137394527     -0.08505679969336
