14
Coordinates from ORCA-job run
  C   -0.78960557165209     -0.32843239910416     -0.18228239310949
  C   0.72108807727303     -0.23103793373648     -0.48401203656634
  Br  -1.59707527958679     -1.14282647195816     -1.77608114812068
  H   1.09594589526809     -1.19879664209280     -0.82062614730118
  C   -0.98351314458003     -1.28147386437808      0.92316710946238
  N   -1.14594031241270     -1.99275504871039      1.84663426281648
  N   -1.37225091054437      0.96470768970324     -0.00313358086374
  H   -2.37138994731748      0.89433514196418      0.14699595560665
  H   -0.93300862017439      1.43909144116399      0.77872959307799
  N   1.49839533492257      0.06990818971965      0.78922486414159
  O   2.48356491500272     -0.62522560495177      0.99544639151392
  O   1.08020719633383      0.98479366607259      1.49160658039394
  C   1.01438572304655      0.81051026833810     -1.46009182992685
  N   1.30119664442104      1.63420156797009     -2.24657762112469
