14
Coordinates from ORCA-job run
  C   -0.71692095472098     -0.39363136155894     -0.09369032160060
  C   0.77756617120242     -0.18385483101671     -0.42042483878747
  Br  -1.49300188699550     -1.15418694118825     -1.81345362217188
  H   1.23142233268562     -1.13480777357828     -0.70344347172752
  C   -0.90167073991115     -1.45382072743253      0.89444146218511
  N   -1.09147260711328     -2.29250919528033      1.69601153742460
  N   -1.29704152760299      0.80129538763579      0.35172226343207
  H   -2.25426098065637      0.69218897934464      0.65944215040593
  H   -1.21231452846414      1.56215976211990     -0.31207070888414
  N   1.48168367154545      0.26589127176168      0.85294736914493
  O   1.81312768208837     -0.64615498723117      1.60156884200907
  O   1.62437519784724      1.46714990755155      1.02904944633596
  C   0.95446620457736      0.82447540696483     -1.45549529465720
  N   1.08304196551794      1.64580510190781     -2.28560481310885
