14
Coordinates from ORCA-job run
  C   -0.72045264196611     -0.30533661720729      0.02485923690672
  C   0.69532010060932      0.09506929942408     -0.44203641858801
  Br  -0.82681018987168     -2.30796089049245     -0.12800352063151
  H   0.80177664584783     -0.16167480710264     -1.49873538256236
  C   -0.96854776184031      0.01739131859278      1.42783823950625
  N   -1.25827372559134      0.29997524131446      2.53154312439746
  N   -1.64679930940060      0.38522391590030     -0.79180893634086
  H   -1.60846623938157      0.07924606305869     -1.75686174993923
  H   -2.59485010790214      0.31423459209960     -0.44403440285044
  N   1.77179828524653     -0.68304246254848      0.27973525930190
  O   1.80472926408202     -0.55505854751719      1.49668526545069
  O   2.51105877454706     -1.36064659113502     -0.42303127361058
  C   0.91901109027324      1.51885984060477     -0.22250346276921
  N   1.11950581534774      2.66371964500838     -0.05164597827081
