14
Coordinates from ORCA-job run
  C   -0.69788575842261     -0.38755737770275     -0.00236044762605
  C   0.71025054161440     -0.00027939744039     -0.50611621223779
  Br  -0.89746667459412     -2.31941624690186     -0.18832352754106
  H   0.79274211094271     -0.33448433860479     -1.54123566646625
  C   -0.89691179911934     -0.05350055980420      1.41364237087779
  N   -1.16851294009123      0.27216333824812      2.51134829667006
  N   -1.63945914865192      0.25049957959653     -0.89595439749448
  H   -1.66390955666627      1.25013741162116     -0.70924296360506
  H   -2.56958544843049     -0.12293058774565     -0.74124995692823
  N   1.79795907040877     -0.69875489699442      0.27347535472003
  O   2.44218330304969     -1.54167456727827     -0.33913757880534
  O   1.92684524372879     -0.36566619541733      1.44582298634287
  C   0.88949998403793      1.44235342180699     -0.39627184897347
  N   0.97325107219367      2.61211041661685     -0.32339640893300
