14
Coordinates from ORCA-job run
  C   -0.76433891312970     -0.38164307143645     -0.18774697900149
  C   0.75191014232922     -0.23153554536579     -0.43631703720758
  Br  -1.46383824367943     -1.35783052907619     -1.74087749018422
  H   1.18641821408270     -1.20233485921803     -0.67938171714308
  C   -0.96003884817733     -1.25285794658686      0.98309656919668
  N   -1.12669598178960     -1.89381613542921      1.95586154852790
  N   -1.41385373863477      0.89085368938860     -0.13532603518972
  H   -1.02860692713725      1.44842852679696      0.61967464434680
  H   -2.41374933141078      0.78255801259759     -0.01556516621855
  N   1.45461695115489      0.20568168343201      0.84030855868488
  O   0.98104141573857      1.17143474815433      1.43069450764661
  O   2.44076075878884     -0.44289541252660      1.16225644976950
  C   1.03695695841853      0.74534980129288     -1.47933240594415
  N   1.31841754344612      1.51960703797676     -2.31634544728356
