14
Coordinates from ORCA-job run
  C   -0.69192548965218     -0.37076847449924      0.29026881122210
  C   0.58681239015927      0.46999429170534     -0.06288297674609
  Br  -0.06613672031719     -2.14102826535520      0.87694075261279
  H   0.24337346488733      1.40773198826592     -0.51223523212455
  C   -1.32189350635721      0.29178128421042      1.43369193797875
  N   -1.84207917488522      0.87109688618596      2.31469200452935
  N   -1.66065875730246     -0.53573215733581     -0.74098755600393
  H   -1.23568806523189     -0.83500254973184     -1.60959705524866
  H   -2.20202467142593      0.30896049013917     -0.88239775201365
  N   1.38401077000115     -0.22579680300502     -1.14600198867159
  O   2.49747040864427     -0.64584845939234     -0.86997073059055
  O   0.81178276468543     -0.31358357234191     -2.22972567604831
  C   1.42655325218295      0.73245279729893      1.09393862032722
  N   2.07140333461165      0.98474254385557      2.04326684077714
