14
Coordinates from ORCA-job run
  C   -0.72728673806881     -0.37821217343781     -0.06023510586407
  C   0.75928015786683     -0.21152615014008     -0.44263557469973
  Br  -1.58028706266661     -1.15594185329864     -1.73624566154005
  H   1.18071198388208     -1.17870979263574     -0.72075042163997
  C   -0.90410127441013     -1.41253677676991      0.95644148883616
  N   -1.09922633396810     -2.22309394390030      1.78521309445710
  N   -1.26351531896232      0.83939898780632      0.37820410290727
  H   -2.21180569817965      0.75992286859877      0.72079404527924
  H   -1.18326162720495      1.58449240026999     -0.30381247875570
  N   1.51683592252817      0.24744118924630      0.79581878226949
  O   1.85010128050505     -0.65628427324163      1.55367376670775
  O   1.69632025394264      1.44819599000213      0.93912908832111
  C   0.92327495543657      0.77035600024827     -1.50501255768773
  N   1.04295949929924      1.56749752725234     -2.35958256859093
