14
Coordinates from ORCA-job run
  C   -0.78601378260284     -0.45255004877423     -0.14863125854978
  C   0.74746603342559     -0.24367436521489     -0.39378299567662
  Br  -1.40872207803736     -1.43694033428694     -1.72949920462587
  H   1.23543461376646     -1.19281628245499     -0.61943197257198
  C   -0.93403096406909     -1.31959247452768      1.02224515966032
  N   -1.00542049961927     -1.99723400581854      1.98035700127099
  N   -1.59455796315674      0.71203790898830     -0.00021435740663
  H   -1.54730121636293      1.29878183010936     -0.82592545850241
  H   -1.31178413959808      1.24411532243686      0.81578218134796
  N   1.37447908838852      0.25183599231312      0.89278530065585
  O   1.00741685615358      1.35342441272726      1.29127406754737
  O   2.16357502255383     -0.50809657147535      1.44033353721460
  C   0.96078454437263      0.74177471737008     -1.44144430953904
  N   1.09867448478569      1.54793389860765     -2.28484769082475
