14
Coordinates from ORCA-job run
  C   -0.72887991908291     -0.35928848962199     -0.12658909726408
  C   0.78579996960697     -0.21593841502394     -0.38855270694582
  Br  -1.46738450500234     -1.06760160493821     -1.88466264004707
  H   1.20769445313134     -1.18471731617669     -0.66043583675366
  C   -1.00321875564242     -1.41886778753943      0.84143657080934
  N   -1.26571562597460     -2.25860419679520      1.62102806707841
  N   -1.27176808006663      0.85755810830638      0.30744154340540
  H   -1.12385865610220      1.61941232913704     -0.34417334988346
  H   -2.24582512142319      0.78940511736878      0.57138717297599
  N   1.45461332595343      0.19293976454945      0.91725266678669
  O   1.64588801556575      1.38541260121666      1.10757133813209
  O   1.71149347048872     -0.73751292270001      1.67254861479431
  C   1.05238519705002      0.78987908046811     -1.40673575680959
  N   1.24977623149803      1.60792373174899     -2.22651658627853
