14
Coordinates from ORCA-job run
  C   -0.71798970223240     -0.35477495838454      0.00679025258790
  C   0.70396083410617     -0.04096899792854     -0.50964018589218
  Br  -1.01324624710654     -2.27581832447138     -0.16145979722878
  H   0.76266239568131     -0.38863536718513     -1.54195767290736
  C   -0.88945090412871      0.00050388099173      1.42116152670407
  N   -1.13102562467427      0.34918474934097      2.51873798625563
  N   -1.63299079187697      0.32158522354761     -0.88622472602512
  H   -1.61006252042307      1.32230093510707     -0.70537719638920
  H   -2.57873070798302     -0.00747851436621     -0.72595742364137
  N   1.76221337220839     -0.78336428705072      0.26959628150928
  O   2.36503182403193     -1.65810453179018     -0.34063023967055
  O   1.92561100280616     -0.43551821930042      1.43339785494123
  C   0.95421584044210      1.39224071059529     -0.41605843170181
  N   1.09980122914887      2.55684770089449     -0.35937822854176
