14
Coordinates from ORCA-job run
  C   -0.70460479582767     -0.33799741028531     -0.05544310114557
  C   0.70321039146992      0.19867777930011     -0.39142436502282
  Br  -0.70203701488487     -2.29003500109284     -0.54122577280781
  H   0.85796888832938      0.12571931653637     -1.47054415359583
  C   -1.01449217007338     -0.26549874004597      1.37017951464994
  N   -1.34665359546278     -0.18476684860625      2.49494948658216
  N   -1.63797889733382      0.43609899460118     -0.78478801010418
  H   -2.59198429360502      0.26555038036937     -0.49221185954978
  H   -1.55273532233982      0.29539744477022     -1.78448282546385
  N   1.79465841494292     -0.63746185451125      0.23670071965110
  O   2.58968655770455     -1.15643207105732     -0.53674500896895
  O   1.78317625124764     -0.70863360449948      1.45875257548716
  C   0.84434588142179      1.57537863328412      0.06704348805848
  N   0.97743970441115      2.68500298123697      0.42923931222989
