14
Coordinates from ORCA-job run
  C   -0.71356882648080     -0.31731554259573     -0.04793258709130
  C   0.70608198891065      0.17631780805490     -0.40023789280632
  Br  -0.77409527743252     -2.26939093697764     -0.52722502699913
  H   0.84818412798492      0.09504290139175     -1.48047793215601
  C   -1.00617040063893     -0.23039580828745      1.38069599756587
  N   -1.33338195368469     -0.13315939482151      2.50560502483922
  N   -1.63125675126074      0.48239485835671     -0.76983973388697
  H   -2.58654323633983      0.34184370912462     -0.46568875418010
  H   -1.56179608093267      0.33490067964105     -1.76981797552720
  N   1.77807126595827     -0.69034130985665      0.22007777203406
  O   1.77528760248128     -0.75932171132670      1.44225823077166
  O   2.55063233083778     -1.23385161199543     -0.55934377064095
  C   0.89233936449290      1.54937285709262      0.05289355400360
  N   1.05621584610442      2.65390350219943      0.41803309407353
