14
Coordinates from ORCA-job run
  C   -0.77073341752527     -0.35576533987085     -0.21803991315368
  C   0.74312028594672     -0.19059223868596     -0.47613480004844
  Br  -1.51134385572410     -1.15813901644016     -1.85122165138749
  H   1.16611125640866     -1.13556947640675     -0.81949871036556
  C   -0.95307443249495     -1.34501950233006      0.85696498059287
  N   -1.08451218448808     -2.08978100519512      1.75871491471089
  N   -1.40025485097753      0.91019418773380     -0.01652627295356
  H   -2.39240522795508      0.80281162025671      0.15550026063061
  H   -0.96022928227010      1.40926688998430      0.74950313611112
  N   1.45009109221797      0.10839462836029      0.83658807402259
  O   1.10292697588002      1.12548770201980      1.42943515462926
  O   2.29608441689995     -0.70063597531557      1.19320935407176
  C   1.01810843723245      0.88544355255889     -1.41859532771584
  N   1.29511078684935      1.73390397333068     -2.18189919914454
