14
Coordinates from ORCA-job run
  C   -0.78027676998976     -0.31379505422502     -0.24049865501928
  C   0.74106483294244     -0.19743338871804     -0.48034184358364
  Br  -1.53817792307598     -1.00394675284523     -1.91665823334186
  H   1.12777539208582     -1.14141203029434     -0.86656911097075
  C   -1.01331009459347     -1.34601887711927      0.78306017877682
  N   -1.20713190156804     -2.11968929048396      1.64848676523595
  N   -1.36030661498876      0.96492551063489      0.02002920566816
  H   -0.90444033443068      1.40898130095132      0.81031086036239
  H   -2.35658050184780      0.88831204905020      0.18475481125752
  N   1.44803886684543      0.00826559772389      0.85003035168275
  O   2.25521161287432     -0.85282887111516      1.17337622529562
  O   1.13891798380477      1.00957697032654      1.48892606475317
  C   1.06714590073703      0.91068355405406     -1.36753964673790
  N   1.38206955120468      1.78437928206018     -2.08636697337894
