14
Coordinates from ORCA-job run
  C   -0.69115907160818     -0.55652330290583     -0.23994549829933
  C   0.79051740577833     -0.06634655407825     -0.38008167965819
  Br  -1.08286405380448     -1.43565539555816     -1.95225841072699
  H   1.44151968573060     -0.88677406980209     -0.68495140055758
  C   -0.72480412797476     -1.56993839088857      0.81657850011484
  N   -0.70558728972731     -2.35939922578748      1.68759214957558
  N   -1.69262537205356      0.42950146975504     -0.00420106291482
  H   -1.71699307908003      1.11441210441866     -0.75155495402823
  H   -1.53777935202449      0.89471370639028      0.88368524200985
  N   1.28145387264998      0.37009525347453      0.98485626513313
  O   2.17284890737256     -0.30595941816049      1.48310103308069
  O   0.71644081899063      1.33815346996233      1.48534079278074
  C   0.86425399272247      1.05906973863788     -1.29775118228120
  N   0.88477766302824      1.97565061454217     -2.03240979422850
