14
Coordinates from ORCA-job run
  C   -0.76908056523631     -0.03354248379028      0.09955317367532
  C   0.70969775970536      0.33563283632114     -0.17972165903493
  Br  -0.76952590052452     -1.12151018757246      1.80600430314499
  H   0.74755961867883      0.76869599709661     -1.18566832648803
  C   -1.49946491747727      1.19051391979814      0.42681300814931
  N   -2.08388299275423      2.18433114039799      0.65737064856213
  N   -1.36638535518846     -0.65643876760117     -1.01270417980981
  H   -0.87446556663845     -1.49527098311860     -1.29302787868617
  H   -2.35024380569215     -0.83921263342244     -0.86208542620471
  N   1.57581304296433     -0.91332814288178     -0.24679998357961
  O   2.54914811750864     -0.97925994407289      0.48630670969730
  O   1.21774998567775     -1.75065495225943     -1.06919045434518
  C   1.24817204297126      1.26140924797386      0.80385049791467
  N   1.66390853600523      2.04863495313133      1.57029956700473
