14
Coordinates from ORCA-job run
  C   -0.69671663262682     -0.26380036832159      0.38082480911302
  C   0.55494669164425      0.44890522648417     -0.24479963589791
  Br  -0.03181292736091     -1.41002908282849      1.83538352177733
  H   0.21015996882090      0.98465328698370     -1.13543564260535
  C   -1.52306630250385      0.78946791275043      0.97315161274959
  N   -2.20078932496685      1.65431338451070      1.39169192182583
  N   -1.50104737118153     -1.04382761689005     -0.49839224666293
  H   -2.07938488211707     -0.46081842360298     -1.09179760635267
  H   -0.94162009073920     -1.67643511540148     -1.05660856524182
  N   1.54006138804288     -0.58270410811058     -0.75385412314752
  O   1.12897071331152     -1.27026083406571     -1.68552865888265
  O   2.63250085456632     -0.66100594816980     -0.21263865240514
  C   1.20837642224104      1.35893551098868      0.68085718122144
  N   1.69842149286933      2.13260617567298      1.41714608450879
