14
Coordinates from ORCA-job run
  C   -0.76680153864859     -0.45545502489191     -0.22034849613398
  C   0.74120170939961     -0.10476694740078     -0.46332982248674
  Br  -1.40698017273112     -1.10600042292458     -1.96007628171790
  H   1.26689659315772     -0.94962717118102     -0.91018266261053
  C   -0.81571251244519     -1.56604685342917      0.73281010874385
  N   -0.80744213560949     -2.44103022938584      1.51805177202223
  N   -1.62758045975685      0.59557691796323      0.20864425062621
  H   -1.63938534548273      1.35783939317400     -0.45993685429513
  H   -1.34791962523820      0.94123522571121      1.12016349890589
  N   1.39970133853956      0.13309117861896      0.87948668568089
  O   0.99272042491563      1.09440522865041      1.52512251426438
  O   2.25174988284616     -0.67899527057631      1.21766246587842
  C   0.85430614197913      1.09836181268941     -1.27184969772337
  N   0.90524569907433      2.07941216298239     -1.91621748115429
