14
Coordinates from ORCA-job run
  C   -0.74179959257055     -0.20607521608206      0.32825663363069
  C   0.58955811776152      0.40876584001740     -0.23436085861404
  Br  -0.27614544858308     -1.15570889890744      1.98639965589195
  H   0.36106453925526      0.82576867478529     -1.22075707957700
  C   -1.60625353334263      0.92285469480896      0.67686757248653
  N   -2.30864012775118      1.83954258359409      0.89783504776616
  N   -1.45743275996871     -1.08929250291391     -0.53075039231610
  H   -1.94458159246114     -0.58385549282240     -1.26141342071132
  H   -0.85118419171989     -1.79447989661410     -0.93065702813335
  N   1.60234993558973     -0.68817379548539     -0.48711720417437
  O   2.62197382237125     -0.70513624936534      0.18530917422262
  O   1.28580319878343     -1.48722810153702     -1.36525145431524
  C   1.15246859466104      1.42720841241516      0.63617969814349
  N   1.57281903797497      2.28580994810674      1.31945965569995
