14
Coordinates from ORCA-job run
  C   -0.71006610651742     -0.52775266770690     -0.24548220768425
  C   0.77838842038895     -0.06449379758962     -0.40783010003553
  Br  -1.17481287633344     -1.31058882822029     -1.98600736884763
  H   1.39963971703229     -0.88262312793527     -0.77462537937967
  C   -0.73521557415683     -1.59237958644341      0.75967040799077
  N   -0.70602341656179     -2.42621678020336      1.58801512645019
  N   -1.67983616046789      0.46713300022315      0.07091538721346
  H   -1.70968805247398      1.19028540938385     -0.63928609043694
  H   -1.48785724109494      0.88186939393332      0.97636967782658
  N   1.32174825624557      0.28987580935144      0.96086223900685
  O   2.21262907204325     -0.42989375546389      1.39456105504185
  O   0.79392713076467      1.24150010544674      1.52893293713270
  C   0.84921817621885      1.10494332515368     -1.26887969166009
  N   0.84894865491273      2.05634150007061     -1.95821599261827
