14
Coordinates from ORCA-job run
  C   -0.72347123750122     -0.29888528536486      0.01396604623643
  C   0.69831670225013      0.09912642332048     -0.43613236963669
  Br  -0.84977597998751     -2.29535618235907     -0.19404753813517
  H   0.80764236811356     -0.13275294105298     -1.49826407584327
  C   -0.97429791833956     -0.01159573300271      1.42409884357577
  N   -1.26400197345773      0.24404750335576      2.53441071523374
  N   -1.63916591494944      0.42328688396062     -0.78783700971163
  H   -1.60046092265340      0.14116890859719     -1.76017775361196
  H   -2.58926752334600      0.35272615103782     -0.44560390201452
  N   1.76380647708274     -0.70674597517751      0.27114956804227
  O   2.49896741906311     -1.37542626478358     -0.44444754120779
  O   1.79415430276284     -0.60692009341870      1.49088922118026
  C   0.93436426883568      1.51501791044371     -0.18104535473875
  N   1.14418993212675      2.65430869444385      0.01404115063130
