14
Coordinates from ORCA-job run
  C   -0.78229141166899     -0.47852525682797     -0.04657231365946
  C   0.71582826655689     -0.25228932346632     -0.44713583963413
  Br  -1.52074701833353     -1.57560778970849     -1.49830806639931
  H   1.20704477266544     -1.20302851803867     -0.65849705284481
  C   -0.79774374005914     -1.27181066812635      1.18437650258584
  N   -0.76809967353348     -1.88364315945017      2.18789111643723
  N   -1.60544741391645      0.67495992774931      0.10525715101629
  H   -1.64983130778142      1.21007062414064     -0.75492682429403
  H   -1.26579704185968      1.26270390910291      0.85891773651169
  N   1.44447936533583      0.33854648253662      0.74200277507915
  O   2.29777157431149     -0.36917555652569      1.26230765558066
  O   1.08737523258180      1.45668327481563      1.10121135454563
  C   0.80333454022450      0.66856971451560     -1.56897120737684
  N   0.83512385547677      1.42354633928293     -2.46855298754792
