14
Coordinates from ORCA-job run
  C   -0.69708369316656     -0.39044560916404     -0.02841963987124
  C   0.72906940009599     -0.00122299678845     -0.47780528843327
  Br  -0.88320608999343     -2.32372715067331     -0.20962102957887
  H   0.85516306441648     -0.34475940141788     -1.50544324061920
  C   -0.95224350688829     -0.04810567484138      1.37664643920679
  N   -1.26580788891751      0.27600561940628      2.46349124658378
  N   -1.60364971123362      0.23908333022275     -0.96317086921170
  H   -1.64121760896876      1.23934302646441     -0.78237609446575
  H   -2.53740633789722     -0.13900845016912     -0.84686935258043
  N   1.78727763816471     -0.68694344479686      0.35199634011404
  O   1.87132467570936     -0.33826606198667      1.52391468621416
  O   2.45540981017286     -1.53674279505501     -0.22463756689659
  C   0.89831520230258      1.44308045187660     -0.37437336736457
  N   0.98405504620339      2.61270915692267     -0.30133226309715
