14

C	0.0	0.0	0.0
C	-0.642159	-0.026293	-1.360099
Br	1.955054	0.0	0.0
H	-1.758082	-0.054722	-1.086891
H	-0.274525	0.97622	0.407149
H	-0.408331	0.859014	-1.948637
C	-0.480147	-1.070185	0.963614
H	-0.125241	-0.847347	1.973168
H	-0.133667	-2.057606	0.666985
H	-1.577069	-1.024721	0.933508
N	-0.302187	-1.173542	-2.20764
O	-0.34401	-2.306278	-1.719649
O	-0.044143	-0.947249	-3.397058
H	-3.115126	0.0	0.0
