16

C	-0.594402	0.049012	-1.3923
C	0.0	0.0	0.0
F	-0.122526	-1.031063	-2.142893
H	1.099808	0.0	0.0
H	-0.230752	0.952233	-1.901828
C	-2.107065	-0.015215	-1.415069
H	-2.481571	0.008492	-2.442514
H	-2.5327	0.818869	-0.852865
H	-2.413068	-0.951283	-0.944931
N	-0.458644	-1.190259	0.71458
H	0.349337	-1.570344	1.192054
H	-1.140629	-0.903278	1.408152
N	-0.456951	1.218563	0.730903
H	-0.327184	2.014819	0.109389
H	0.257055	1.352586	1.444498
F	2.72331	0.0	0.0
