16

C	-0.31443	0.000483	-1.476356
C	0.0	0.0	0.0
F	-1.701102	-0.117012	-1.737685
H	1.104004	0.0	0.0
H	0.144417	-0.8976	-1.905923
C	0.234637	1.234222	-2.14437
H	1.290934	1.284974	-1.867053
H	0.127005	1.190227	-3.231598
H	-0.294033	2.109684	-1.763895
N	-0.518992	-1.173971	0.692655
H	-1.348965	-1.511907	0.223238
H	0.188882	-1.892515	0.662539
N	-0.530619	1.222762	0.647398
H	0.250436	1.876134	0.687344
H	-0.697812	0.946332	1.610655
F	2.740458	0.0	0.0
