16

C	-0.344565	-0.093789	-1.479372
C	0.0	0.0	0.0
F	-0.199128	1.183779	-2.06414
H	1.103289	0.0	0.0
H	-1.401038	-0.365707	-1.634604
C	0.63378	-1.024288	-2.169729
H	0.395704	-2.06635	-1.938648
H	0.592152	-0.892405	-3.254427
H	1.62938	-0.791116	-1.773991
N	-0.402729	-1.19784	0.728333
H	-1.270939	-1.582835	0.369283
H	0.335754	-1.881611	0.631925
N	-0.684798	1.15177	0.594284
H	-0.379167	1.168251	1.562021
H	-0.291469	1.977269	0.154554
F	2.780221	0.0	0.0
