14

C	0.0	0.0	0.0
C	-0.349057	0.150177	-1.510108
Cl	1.790037	0.0	0.0
H	0.311473	0.944382	-1.875542
H	-0.274736	0.941673	0.493102
N	-0.573215	-1.178944	0.565065
H	-0.441674	-1.176947	1.570003
H	-1.581733	-1.128818	0.401969
N	-1.694574	0.504578	-1.88927
H	-1.950583	1.382862	-1.452611
H	-2.393652	-0.146711	-1.538832
C	0.056677	-1.075586	-2.223726
N	0.370083	-2.028936	-2.831806
Cl	-4.117077	0.0	0.0
