14

C	0.0	0.0	0.0
C	-0.328127	0.227827	-1.513736
Cl	1.844555	0.0	0.0
H	0.452654	0.879227	-1.916164
H	-0.258594	0.922595	0.522901
N	-0.601201	-1.091286	0.666907
H	-0.67332	-1.895868	0.057541
H	-1.550196	-0.823227	0.927249
N	-1.5995	0.827942	-1.841114
H	-1.602201	1.787247	-1.514531
H	-2.384848	0.368227	-1.371186
C	-0.210009	-1.073151	-2.196034
N	-0.172293	-2.141552	-2.679824
Cl	-4.019767	0.0	0.0
