14

C	0.0	0.0	0.0
C	-0.370792	0.33769	-1.47414
Cl	1.78764	0.0	0.0
H	0.361871	1.083966	-1.792795
H	-0.269966	0.873048	0.606138
N	-0.564365	-1.238695	0.427616
H	-1.56464	-1.205021	0.224199
H	-0.471447	-1.329982	1.432103
N	-1.675123	0.883016	-1.761649
H	-2.441156	0.331893	-1.372066
H	-1.757157	1.791505	-1.322553
C	-0.133581	-0.848003	-2.317104
N	0.017694	-1.771327	-3.025007
Cl	-4.112212	0.0	0.0
