18

C	-0.430386	0.011332	-1.478654
C	0.0	0.0	0.0
Cl	-2.160328	0.285124	-1.699227
H	1.093577	0.0	0.0
N	0.265664	1.08268	-2.320028
O	0.204129	0.926198	-3.533665
O	0.771387	2.024707	-1.728279
N	-0.03175	-1.306291	-2.135675
O	-0.892746	-2.160683	-2.293612
O	1.163587	-1.40383	-2.370961
C	-0.480019	-1.28195	0.667532
H	-0.009559	-2.167434	0.238806
H	-0.183511	-1.214134	1.714052
H	-1.567484	-1.395245	0.613359
N	-0.445657	1.150352	0.756302
H	0.064941	1.968346	0.454995
H	-1.437684	1.310746	0.636038
Cl	3.376186	0.0	0.0
