18

C	-0.428665	0.005524	-1.465322
C	0.0	0.0	0.0
Cl	0.396073	1.242172	-2.365504
H	1.096715	0.0	0.0
N	-0.168955	-1.366543	-2.098833
O	-1.085363	-2.177587	-1.971488
O	0.923577	-1.567501	-2.601406
N	-1.939711	0.190424	-1.669141
O	-2.655171	0.172458	-0.674832
O	-2.322117	0.306541	-2.826221
C	-0.417775	-1.238192	0.787595
H	-1.501089	-1.348671	0.857721
H	0.001075	-1.124856	1.790365
H	0.010811	-2.14952	0.367531
N	-0.424297	1.269968	0.574549
H	-1.228474	1.140294	1.171917
H	0.344735	1.648274	1.111303
Cl	3.341006	0.0	0.0
