18

C	-0.446491	0.002038	-1.455449
C	0.0	0.0	0.0
Cl	0.391069	-1.197231	-2.403782
H	1.094557	0.0	0.0
N	-1.961348	-0.179221	-1.634666
O	-2.369362	-0.52738	-2.733676
O	-2.660227	0.090153	-0.66291
N	-0.183911	1.393108	-2.056134
O	0.984689	1.677014	-2.2353
O	-1.162936	2.099137	-2.260549
C	-0.418158	-1.269002	0.740591
H	0.099045	-1.268866	1.701889
H	-0.107421	-2.169248	0.206639
H	-1.495293	-1.304357	0.916068
N	-0.405118	1.252373	0.617315
H	-1.273721	1.156285	1.123003
H	0.331402	1.556567	1.23893
Cl	3.365655	0.0	0.0
