16

C	-0.438489	-0.016186	-1.432649
C	0.0	0.0	0.0
Br	0.296795	-1.525617	-2.407998
H	1.08836	0.0	0.0
H	-0.300124	0.929229	0.482064
N	-1.967396	-0.024876	-1.568687
O	-2.567891	0.577881	-0.680891
O	-2.483713	-0.508797	-2.567031
C	0.061566	1.26046	-2.089159
H	-0.168066	1.260644	-3.156154
H	-0.409817	2.122561	-1.608118
H	1.143831	1.301503	-1.931322
N	-0.534428	-1.077817	0.827435
O	-1.155725	-2.004432	0.293644
O	-0.295546	-0.999943	2.034439
H	2.640636	0.0	0.0
