16

C	-0.444709	0.06336	-1.44034
C	0.0	0.0	0.0
Br	-0.197181	-1.74717	-2.157938
H	1.088568	0.0	0.0
H	-0.360245	-0.881267	0.521983
N	-1.952839	0.298401	-1.548454
O	-2.653572	-0.146097	-0.645268
O	-2.362949	0.888482	-2.54354
C	0.331476	1.033258	-2.29364
H	1.390227	0.849196	-2.09162
H	0.10111	0.900293	-3.348992
H	0.082712	2.047324	-1.987935
N	-0.437382	1.154098	0.779905
O	-0.357618	1.049868	2.006444
O	-0.787739	2.185792	0.190164
H	2.63504	0.0	0.0
