16

C	-0.393305	-0.037312	-1.4486
C	0.0	0.0	0.0
Br	-2.37544	-0.131788	-1.689668
H	1.090498	0.0	0.0
H	-0.376941	0.883892	0.500798
N	-0.045331	1.348154	-2.033011
O	-0.115858	2.317526	-1.285045
O	0.24466	1.396331	-3.22379
C	0.277445	-1.096115	-2.276238
H	1.355193	-0.991026	-2.098032
H	0.042384	-0.970095	-3.330749
H	-0.038624	-2.072796	-1.923642
N	-0.438717	-1.14606	0.77778
O	-0.31124	-2.28442	0.310591
O	-0.826171	-0.918694	1.932809
H	2.582635	0.0	0.0
