11
Coordinates from ORCA-job run
  C   -0.53397265023162      0.45197160595970     -0.27345488932776
  C   0.87764199640096      0.45328783165799      0.31176037304330
  Br  -1.39756277166374      2.13467733324902      0.22332101897730
  H   1.43784979195649      1.31912126546026     -0.04712951107117
  H   -0.48471117812000      0.49409711990263     -1.36735488835636
  H   0.80452547478609      0.51035981211467      1.40048715096799
  N   -1.29417433818370     -0.63831769633457      0.27740453105679
  H   -2.22940031574830     -0.65280121001372     -0.10996307848845
  H   -0.84141085706691     -1.51922701546276      0.05525698478737
  C   1.57581938394355     -0.77451189877760     -0.07025579172517
  N   2.08639546392718     -1.77865714775561     -0.40007189986383
