17
Coordinates from ORCA-job run
  C   0.57702104726313      0.38150606653883      0.61625175892966
  C   -0.33760262003410     -0.10424675347142     -0.53958774225617
  Cl  -0.39319088700973      1.02886112833582      1.92720690834315
  H   0.32826836934575     -0.35795963528910     -1.36761709943448
  N   1.28984370632262     -0.91046045592791      1.06433614680554
  O   1.02470902332880     -1.41885567048016      2.13950778355561
  O   2.07292179594001     -1.33764204211712      0.21938166380740
  N   1.62366073634834      1.29654640912345      0.30973265189835
  H   2.16230978403631      0.95021754821023     -0.47560060944999
  H   1.23961824578807      2.20237805752629      0.07369413340073
  N   -1.11337202126543      1.08719035328536     -1.02367021305551
  O   -0.46563499892075      1.94198819737738     -1.62983937441330
  O   -2.31313861106273      1.14264244098801     -0.77475046417774
  C   -1.25322897713719     -1.25587038200472     -0.19119144205932
  H   -1.86538471648407     -1.03062091623757      0.68004579201180
  H   -0.66056062553382     -2.15086445201450      0.00462581354785
  H   -1.91523925092521     -1.46680989384286     -1.03152570745358
