17
Coordinates from ORCA-job run
  C   0.54000462032774      0.18292224458694      0.67176912702487
  C   -0.45723595382140      0.02458333468365     -0.48559258979050
  Cl  0.01893238214359     -0.58639605518356      2.16105914523061
  H   0.03557139577495      0.42565974928278     -1.37368607601792
  N   1.80667003451298     -0.60564705490215      0.14079036935710
  O   2.06400741257131     -1.72141786338344      0.56410013067876
  O   2.42485445227902      0.01114747887045     -0.72323626962489
  N   0.82390872008235      1.53761931471396      0.90944940304436
  H   1.13550205985606      2.01114841681642      0.07121659915697
  H   1.47922483861326      1.66819706250718      1.66872215901582
  N   -1.59790504088123      0.97000758680708     -0.24050996830469
  O   -1.53848353176157      2.05429087510457     -0.81590494530304
  O   -2.49289261359952      0.59518266285383      0.50963278368628
  C   -0.96475534425558     -1.38107687648569     -0.71495366125332
  H   -1.62830263399063     -1.39042441923063     -1.58148760188214
  H   -1.51648828189182     -1.73729747671938      0.15226520233886
  H   -0.13361251595952     -2.05949898032200     -0.91263380735712
