17
Coordinates from ORCA-job run
  C   0.76663351729823      0.28368092730422      0.31801217948801
  C   -0.69379315867660      0.34140667560703     -0.11274489282489
  Cl  1.44669074896216      1.96699151395729      0.00835838398609
  H   -1.16387046354947      1.21310891153784      0.34202978440121
  N   0.87137118886445      0.16073743863061      1.84206799483193
  O   0.00569749316670      0.73111157377469      2.48708916625593
  O   1.84037093361381     -0.44162937750672      2.28032908357129
  N   1.49319985081688     -0.74894992768023     -0.27224010445522
  H   2.35030318688138     -0.93336396871474      0.23406477591421
  H   1.67905917455705     -0.57334661600324     -1.24965870104333
  N   -1.46589898073266     -0.83655102899757      0.44319117817813
  O   -0.88655582747964     -1.65272956916864      1.15066913533048
  O   -2.65245043050661     -0.86682914761193      0.13284080694884
  C   -0.86050427018207      0.34034262645827     -1.62287102924239
  H   -0.52936793364993     -0.61221389942723     -2.04095231489061
  H   -0.29005910119993      1.15509404335098     -2.06902387060226
  H   -1.91182592818372      0.47413982448936     -1.87016157584742
