17
Coordinates from ORCA-job run
  C   0.72464720131400      0.49873723203489      0.23153472081159
  C   -0.70904224657568      0.25499523129485     -0.24012236285663
  Cl  1.18366172198069      2.15156042420749     -0.24969386733510
  H   -1.32560189855617      1.09721867790586      0.06708032944791
  N   0.70152763662609      0.56701174725896      1.79742499930238
  O   1.72360583647193      0.20788712363333      2.36430933399767
  O   -0.31833073491524      0.99764571941922      2.32054701382934
  N   1.66802866577039     -0.40897030062586     -0.26603963469886
  H   1.43080718908429     -1.34422429640217      0.04402376004818
  H   2.59998049026385     -0.16875131871812      0.04755983162712
  N   -1.30534987346769     -0.92452875186620      0.47577361487166
  O   -0.54308092436062     -1.81085679794216      0.86488527215211
  O   -2.52509571470787     -0.93829643171370      0.57282242610016
  C   -0.80813519964502     -0.00268482046279     -1.73317732031884
  H   -0.38425976279230      0.83865581032413     -2.28086817846481
  H   -0.25679774253559     -0.90211984553722     -2.00561570191449
  H   -1.85756464395505     -0.11227940281050     -2.01044423659940
