17
Coordinates from ORCA-job run
  C   0.82324487230766      0.38150109008982      0.34018806486960
  C   -0.64885635771049      0.36970945601890     -0.11616239595735
  Cl  1.42580443761952      2.02940416345633      0.04328247365377
  H   -1.16585795526168      1.22709223393874      0.30905879296232
  N   0.79870278572825      0.20197108503832      1.88584352556636
  O   -0.07838947336009      0.83404667902910      2.46435640457489
  O   1.62859425559894     -0.53405129875511      2.39026278637881
  N   1.74067739396586     -0.53627034597704     -0.20108044368014
  H   1.40873860426854     -1.48685725127169     -0.11301751825416
  H   2.00900912580702     -0.30464516486936     -1.14568335998284
  N   -1.35639491077668     -0.82295397584394      0.45978638774637
  O   -2.56245195743722     -0.70999415022594      0.63861289853433
  O   -0.68994047964208     -1.84011463917446      0.66068879119951
  C   -0.80048952440089      0.30715249396886     -1.62477843122189
  H   -1.85908239035463      0.34472078184859     -1.88547380943071
  H   -0.37361495052521     -0.61757381597468     -2.01685495324218
  H   -0.30069347582683      1.15786265870356     -2.08902921371669
