17
Coordinates from ORCA-job run
  C   0.71985425220209      0.30489524419916      0.36832399706175
  C   -0.70598067640051      0.26688057829436     -0.18724689379946
  Cl  1.50727525704744      1.86388346146565     -0.17425412990777
  H   -1.29535031543205      0.99997546792980      0.36425407319659
  N   0.68516422467579      0.47379681014978      1.90246351781275
  O   1.51680611560558     -0.16079652705049      2.53652902984021
  O   -0.12604365322673      1.26902720152480      2.34571556413510
  N   1.42673536359282     -0.85855125982844      0.07547931564346
  H   2.31351888512746     -0.90823309573465      0.55825014034346
  H   1.53184402123904     -1.01164829877301     -0.91763941499103
  N   -1.25306155640762     -1.08200884016414      0.22099904299918
  O   -1.42541665523785     -1.92383254672602     -0.65347693798010
  O   -1.45615615389836     -1.23526458362725      1.42127599227875
  C   -0.82570572216026      0.46244728861194     -1.68399787635264
  H   -0.57004336877946      1.48793158004228     -1.94453385783419
  H   -0.18777398812223     -0.22211302930278     -2.24298829467285
  H   -1.85466602982516      0.27261054898900     -1.98915326777319
