17
Coordinates from ORCA-job run
  C   0.68874211560809      0.47797384793110      0.42018510102442
  C   -0.63592631030655      0.32199574205894     -0.35044027967798
  Cl  0.56900617823955      1.67695923313533      1.76361519588152
  H   -0.70232584834795      1.20750885399054     -0.98668553082562
  N   1.05357617512618     -0.83547276192432      1.12014468346445
  O   0.17454163552061     -1.33119103152120      1.80858106081413
  O   2.18728161830499     -1.26780454205788      0.95083552984425
  N   1.70084503321221      0.76454914383624     -0.51946456983596
  H   1.61498884402182      1.71549334149394     -0.85464726627142
  H   2.62071570706309      0.61235352823930     -0.12485362361212
  N   -1.87437228023565      0.42389877637049      0.50432084328711
  O   -2.40285930521941     -0.61350344748369      0.88984675745888
  O   -2.28608508538719      1.56351393203257      0.71126190184211
  C   -0.66586113468497     -0.94833662952757     -1.17710212976596
  H   -1.54416055461611     -0.94296887737511     -1.82446982794323
  H   -0.72774457035120     -1.82651316061941     -0.53670429323805
  H   0.23063778205247     -0.99745594857925     -1.79442355244651
