17
Coordinates from ORCA-job run
  C   0.66776404161603      0.56019769330910      0.53513648689153
  C   -0.58727148970092      0.36319276921412     -0.34384666720238
  Cl  0.38534821915994      1.94484205486321      1.58783323678881
  H   -0.73278208551782      1.31505877544516     -0.85878792426152
  N   0.91898618901014     -0.69959398157917      1.38583772978461
  O   0.66936363185222     -0.69020245394663      2.57667161090026
  O   1.37001816452000     -1.63713479259035      0.73292036330983
  N   1.88334445188955      0.76881249518533     -0.18299718556810
  H   2.10872127628375     -0.03206974030321     -0.75799039238639
  H   1.84604495405813      1.61975322399602     -0.72805455190486
  N   -1.81079096709467      0.20529824309220      0.50838594447370
  O   -1.86424879189617     -0.80935228811738      1.20012145770305
  O   -2.66910627972661      1.07975775035824      0.43143116833764
  C   -0.54652499567415     -0.78959612520893     -1.33052340605705
  H   -0.49137586918765     -1.74802379129815     -0.81968414806179
  H   0.30734649770522     -0.69145956472904     -2.00144077204654
  H   -1.45383694729696     -0.75948026769053     -1.93801295070080
