17
Coordinates from ORCA-job run
  C   0.67698033009439      0.56515543054744      0.51805827579966
  C   -0.59724594812531      0.35888536225136     -0.33111627942226
  Cl  0.41220175321689      1.95137826793085      1.57258791552113
  H   -0.75973854773828      1.30842977072713     -0.84526370853266
  N   0.95450569459685     -0.69083556771971      1.36592347719915
  O   0.73608170884949     -0.67853028742882      2.56289089375025
  O   1.39337055606918     -1.62823673654941      0.70445591580724
  N   1.87447278914113      0.77770909437873     -0.22892725308214
  H   1.82156725961802      1.62859152343243     -0.77274491648717
  H   2.08875029026496     -0.02232040408998     -0.80930408636389
  N   -1.79949683222607      0.19782236384280      0.55036684686418
  O   -2.66422001272745      1.06736074905427      0.49037663070301
  O   -1.83106955119838     -0.81404073828874      1.24758058570866
  C   -0.57424339697417     -0.79668532971805     -1.31491173840086
  H   -0.50367730254489     -1.75347297136345     -0.80289169082193
  H   0.26389856043894     -0.69715090823541     -2.00520648590406
  H   -1.49513735075531     -0.77205961877144     -1.90187438233831
