17
Coordinates from ORCA-job run
  C   0.63338068023803      0.62774701967446      0.42289299468879
  C   -0.66277151891592      0.38026021376547     -0.36578944235047
  Cl  0.46736062352099      2.05668148846789      1.43653696601748
  H   -0.91071950143024      1.33791710307929     -0.82404893777795
  N   0.88349055437387     -0.60232988281062      1.36739250144824
  O   0.48935782373818     -0.56722068397802      2.52017122038619
  O   1.45271446982559     -1.53971327109922      0.81278258000318
  N   1.70476157749400      0.80793136095485     -0.48844638777533
  H   2.49947537428179      1.22950392129070     -0.02266076033641
  H   1.98212285056968     -0.09022933434445     -0.86786231649448
  N   -1.79717864671366      0.09286759438047      0.57497324688530
  O   -2.57746226073333      1.01215954252811      0.80889287112103
  O   -1.86677316421479     -1.04979097107506      1.02393893395806
  C   -0.57957807483431     -0.72633910982119     -1.39986666612513
  H   -1.55414031793895     -0.83794062067808     -1.87886033883874
  H   -0.30497385284004     -1.67750059742177     -0.94835337751703
  H   0.14193338357911     -0.45500377291283     -2.17069308729272
