17
Coordinates from ORCA-job run
  C   0.78337253124776      0.45221861185536      0.37756082845438
  C   -0.66466215378158      0.32118510755882     -0.15174167208952
  Cl  1.31139792606942      2.11069934776822      0.06301477845131
  H   -1.27193953447314      1.09783832360090      0.31279814403362
  N   0.64478107873130      0.27483429066735      1.91111123692806
  O   1.03969352928243     -0.79261506773667      2.36255885094109
  O   0.07330529548162      1.16830714388286      2.51894149793765
  N   1.77488938935051     -0.44322141175262     -0.07899187698646
  H   2.07358479157543     -0.21424163986418     -1.01629001006206
  H   1.46159214777128     -1.40392927063441     -0.02049091331023
  N   -1.22840442138848     -0.97187524617695      0.36918638328681
  O   -2.11817920768113     -0.89754156476462      1.21277483855189
  O   -0.75278103407384     -2.01246847441728     -0.08656490451054
  C   -0.75733856720077      0.32619998305091     -1.66258117943165
  H   -0.18234638803682     -0.49733789288077     -2.08467547686973
  H   -0.38777645945267      1.27218816833011     -2.05819404008836
  H   -1.79918892342131      0.21075959151298     -1.96741648523625
