17
Coordinates from ORCA-job run
  C   0.78662555770551      0.39922667353996      0.22375403958237
  C   -0.68572778824867      0.34774930913954     -0.18505999849100
  Cl  1.40654043681054      2.02156093669471     -0.17403419095817
  H   -1.18841161556402      1.22898577218984      0.20805647761450
  N   0.84282872317048      0.36003851258875      1.79000598966716
  O   1.84035795312576     -0.15204587398583      2.27764125611672
  O   -0.09505765649865      0.86579274038220      2.39321229256721
  N   1.59746506939736     -0.56922614374979     -0.38071184361561
  H   1.27037265195835     -1.49222648273296     -0.11968603025403
  H   2.56417299537416     -0.45545272930416     -0.10312018701024
  N   -1.37837961721618     -0.80585483004286      0.48497879969640
  O   -2.58639488373953     -0.69261884040727      0.64421797351461
  O   -0.70412918119101     -1.79474492698271      0.77750212511487
  C   -0.88194815990792      0.20570893772427     -1.68400358142959
  H   -0.38332608003467      1.02553386749320     -2.20045831163160
  H   -1.94812741983400      0.23995700787403     -1.91248710801683
  H   -0.45686098530752     -0.73238393042093     -2.03980770246676
