17
Coordinates from ORCA-job run
  C   0.68786363673363      0.54926334697028      0.52143818349807
  C   -0.59407701085890      0.37185145877381     -0.32189800749535
  Cl  0.44790347768660      1.92322033984905      1.59809812148203
  H   -0.74753845269513      1.33056076911860     -0.82160708273335
  N   0.95467750138385     -0.72244308930939      1.34943151403294
  O   0.74016114600048     -0.72515419423255      2.54719363161509
  O   1.37942374840072     -1.65548183900483      0.67285487796854
  N   1.88315155072641      0.75743394967377     -0.23056316879077
  H   1.83388919824782      1.61350277429314     -0.76671400022981
  H   2.08531625288368     -0.03904521624652     -0.82021426279235
  N   -1.79311620988234      0.21380264375543      0.56473667216534
  O   -1.83452540352215     -0.80813342595151      1.24647763911734
  O   -2.64613055084610      1.09585837729887      0.52273383483091
  C   -0.59227098319964     -0.77045154277007     -1.32152039028515
  H   -0.52988271522616     -1.73466818278664     -0.82255269171770
  H   -1.51694968960863     -0.72694154460784     -1.90136615795129
  H   0.24210450377585     -0.67217462482360     -2.01652871271451
