17
Coordinates from ORCA-job run
  C   0.61041288438012      0.02193738557834      0.63546612411437
  C   -0.51901243701619      0.12364486961425     -0.40060656382874
  Cl  0.35792538506289     -1.23792676012663      1.83165173153648
  H   -0.18380023724175      0.84206081518433     -1.15155272474464
  N   1.85121974098956     -0.40082221148977     -0.25352085060973
  O   2.29569671748328      0.52774876471143     -0.92388380601205
  O   2.24987808286842     -1.55470166720340     -0.25189623272261
  N   0.81659648218499      1.25363431572581      1.27733738372875
  H   0.97186821568371      2.00391534522094      0.61642008502495
  H   1.55620346869397      1.21288341435995      1.96595869598981
  N   -1.68659785866391      0.79964333233489      0.25890697521333
  O   -1.79106657970746      2.00973900434105      0.07158994434518
  O   -2.43902053143200      0.10192447642363      0.93072105300958
  C   -0.94115905683019     -1.18528024066198     -1.02870758901179
  H   -0.09437183105020     -1.66185699235017     -1.52464272110280
  H   -1.33988297489013     -1.86213998294554     -0.27620826026816
  H   -1.71388947051511     -0.99640386871711     -1.77603324466191
