17
Coordinates from ORCA-job run
  C   0.66310647929598      0.21202664254702      0.49032042516695
  C   -0.46796753538018     -0.00553556189903     -0.52847513740201
  Cl  0.00047239822148      0.00091211465917      2.15720784276342
  H   -0.04044563174140      0.19284793767726     -1.51257306170646
  N   1.73547292077856     -0.88688702292865      0.29981220182421
  O   1.78744678703079     -1.41287104552119     -0.80515847484468
  O   2.51953415147371     -1.04646508460326      1.22200939904922
  N   1.37726046201179      1.40161279496879      0.28451972348607
  H   0.77775332064517      2.18645491383603      0.06821848499561
  H   2.00378831210553      1.60354594189906      1.05324239433784
  N   -1.48108848994242      1.10080416435684     -0.31950311800386
  O   -1.13642451671860      2.23222750148891     -0.66811303694545
  O   -2.56912877019192      0.81230049456806      0.16267228515826
  C   -1.15974020453697     -1.35045780965269     -0.47475730386176
  H   -0.45340297258028     -2.13725220609920     -0.72922762979348
  H   -1.96781976040853     -1.36530678377393     -1.20685613266589
  H   -1.58881695006272     -1.53795699152320      0.50666113844199
