17
Coordinates from ORCA-job run
  C   0.64243768536370      0.62639855290335      0.41031416159652
  C   -0.66794278369425      0.38131737721129     -0.35551621170878
  Cl  0.49811466230473      2.05888313280899      1.42242753847048
  H   -0.91984989575942      1.33859468619558     -0.81234937766324
  N   0.90462962143483     -0.60166468290149      1.35321870572968
  O   0.52969817983436     -0.56238804712524      2.51232012100040
  O   1.46152485694316     -1.54231143609582      0.79161867281325
  N   1.69858371778390      0.80088492601265     -0.52005240214044
  H   1.96891513134041     -0.09972446173687     -0.89881888298249
  H   2.50117326626561      1.22445228066414     -0.06988231801918
  N   -1.78754688968098      0.10076809098219      0.60475264794971
  O   -1.85349744615404     -1.04016425756718      1.05863892941078
  O   -2.56100499689609      1.02340917879980      0.84814287177589
  C   -0.60590730735746     -0.72845417432649     -1.38762192783441
  H   -0.32973068320341     -1.67991591918493     -0.93769401812786
  H   0.10552883974037     -0.46312611251645     -2.16977518321103
  H   -1.58812595826542     -0.83595913412352     -1.85172332705928
