17
Coordinates from ORCA-job run
  C   0.61375992324113      0.32431415180955      0.61418503178410
  C   -0.41276208870160     -0.02884326724563     -0.49531800439506
  Cl  -0.18529652247198      0.40767542158859      2.17445961765579
  H   0.11583538932068      0.08110147299486     -1.44506437360423
  N   1.59250807178415     -0.86673126706204      0.57631904758872
  O   2.26537627764438     -0.89608653173731     -0.45124141645462
  O   1.61113510258473     -1.67685772093284      1.48622419371090
  N   1.42696151175367      1.47966100466152      0.43993922833018
  H   1.86859585250218      1.45184840389637     -0.47173234722812
  H   0.86328789159959      2.31717124149900      0.50896481368070
  N   -1.44816756850403      1.05952280463140     -0.50554478775489
  O   -2.57449720952620      0.79771107489066     -0.09699391657591
  O   -1.07072093556053      2.15870602958814     -0.91402844897940
  C   -1.04834085989364     -1.39487102657572     -0.36881782557707
  H   -1.51214798387354     -1.53113104219557      0.60630610110828
  H   -0.29289133491089     -2.16735286452684     -0.52088992245298
  H   -1.81463551698810     -1.51683788528413     -1.13476699083639
