17
Coordinates from ORCA-job run
  C   0.77454308599857      0.40580216032931      0.25247875419993
  C   -0.67683223464841      0.34205839165991     -0.22378154331355
  Cl  1.40987001503228      2.02125141467351     -0.14823378792331
  H   -1.19903662709990      1.22898992880830      0.12910001101994
  N   0.75732946661866      0.39745977868706      1.81991737743924
  O   -0.20762666546606      0.91463697104966      2.36823425861273
  O   1.73063232079211     -0.10446190304545      2.36387689165310
  N   1.61431749535366     -0.57261580925173     -0.29435678969903
  H   2.56633932252547     -0.45138201546181      0.02759841874319
  H   1.27707671690170     -1.49109879303933     -0.03004451724840
  N   -1.39727247064116     -0.80131243941564      0.43469618264139
  O   -0.73503243181775     -1.78157136695357      0.77898652556763
  O   -2.61199795592198     -0.68965117364266      0.53301459430498
  C   -0.80262121015046      0.17206442234466     -1.72732289406231
  H   -0.28544682452282      0.98602957584033     -2.23469975680141
  H   -1.85726209620244      0.19508802119333     -2.00528451151439
  H   -0.35597990675148     -0.76928716377588     -2.04617921361973
