17
Coordinates from ORCA-job run
  C   0.60642309124938      0.04115351703696      0.60677881576895
  C   -0.37891979723951      0.07952773787966     -0.57071165314418
  Cl  0.16876230316554     -1.24495219941010      1.81184113932288
  H   0.15641802151540      0.52874575177181     -1.40673161893529
  N   1.97597859873065     -0.42271630212441      0.07279154010283
  O   2.93164617069303     -0.20526686914105      0.80351712962150
  O   2.00636572526594     -0.98484506211704     -1.01478304409327
  N   0.82944233191264      1.31499677092635      1.15449726203591
  H   1.62659571812730      1.29252420378071      1.77940003544859
  H   0.00724220176218      1.64084742738354      1.64614430897235
  N   -1.48692933901507      1.04944302493325     -0.27548988238334
  O   -1.95876270624573      1.05890326825660      0.86080043898636
  O   -1.88877315019048      1.71469263370445     -1.22413913451044
  C   -1.02982921258354     -1.22968571526546     -0.97951323616842
  H   -0.26740453266847     -1.98457108198041     -1.15855234374104
  H   -1.70893288637251     -1.57929109113806     -0.20263439309806
  H   -1.59032253810674     -1.06850601449680     -1.90221536418535
