17
Coordinates from ORCA-job run
  C   0.64559973266883      0.62548140634581      0.40673715054658
  C   -0.66753884943540      0.38253497353319     -0.35586776687250
  Cl  0.50953272628321      2.06226190663059      1.41341318341867
  H   -0.91650397287238      1.33926557599233     -0.81548586150185
  N   0.90404836510463     -0.60015067962457      1.35318131639235
  O   1.45811732170109     -1.54452417182483      0.79504224865979
  O   0.52968081098849     -0.55576584401940      2.51225763094428
  N   1.70061369622907      0.79155343250640     -0.52684226060946
  H   2.50515475820837      1.21505030597096     -0.08001142491056
  H   1.96746322706690     -0.11260854743000     -0.89978811506020
  N   -1.78555509958353      0.10935259383876      0.60807809885119
  O   -1.85710896488076     -1.03093074804960      1.06276403922046
  O   -2.55317908730733      1.03636830499739      0.85320788566332
  C   -0.61071406954195     -0.73072778093841     -1.38430622949005
  H   -1.59430339579640     -0.83731487872036     -1.84572337436258
  H   0.09982146446438     -0.46926058764468     -2.16856435606946
  H   -0.33612866329720     -1.68158526156360     -0.93209216481998
