19

C	0.0	0.0	0.0
C	-0.378013	0.191878	-1.477372
Cl	1.861452	0.0	0.0
H	-0.001798	-0.667401	-2.034652
N	-0.530532	1.009792	0.815769
H	-0.346174	0.860609	1.796148
H	-0.270141	1.938268	0.516844
C	-0.457872	-1.360031	0.488493
H	-0.06424	-2.159531	-0.140978
H	-0.098358	-1.520217	1.508041
H	-1.550444	-1.377271	0.494134
N	0.366886	1.345981	-2.084648
O	0.282572	2.44324	-1.530808
O	0.979729	1.135806	-3.129561
C	-1.858921	0.424591	-1.712351
H	-2.046298	0.48951	-2.788664
H	-2.202146	1.333195	-1.219989
H	-2.479673	-0.373091	-1.301238
Br	-4.909511	0.0	0.0
