19

C	0.0	0.0	0.0
C	-0.512342	-0.016098	-1.45532
Cl	1.841635	0.0	0.0
H	-1.576034	-0.274559	-1.360158
N	-0.492618	1.188739	0.596758
H	0.05899	2.004157	0.375747
H	-0.62375	1.096302	1.592516
C	-0.467286	-1.203503	0.793105
H	-0.089884	-1.12628	1.816642
H	-0.108923	-2.131557	0.354298
H	-1.562223	-1.189096	0.792068
N	0.127899	-1.126719	-2.231376
O	-0.26297	-2.272663	-2.003201
O	1.005751	-0.843215	-3.047754
C	-0.353065	1.295808	-2.190278
H	-1.017656	2.02063	-1.721842
H	0.680315	1.646728	-2.174664
H	-0.655647	1.176636	-3.231344
Br	-3.967727	0.0	0.0
