19

C	0.0	0.0	0.0
C	-0.243386	-0.262391	-1.550509
Cl	1.816044	0.0	0.0
H	0.571476	0.246115	-2.069131
N	-0.479381	1.236699	0.519726
H	-0.373797	1.970565	-0.169967
H	-1.485872	1.118679	0.668311
C	-0.485119	-1.12269	0.893795
H	-1.573216	-1.188322	0.799677
H	-0.229891	-0.859547	1.921397
H	-0.022216	-2.076884	0.646347
N	-1.420841	0.453358	-2.181642
O	-2.223231	-0.198868	-2.835601
O	-1.398888	1.683209	-2.112372
C	-0.270168	-1.727495	-1.930749
H	-0.292671	-1.834888	-3.015787
H	0.627913	-2.219183	-1.551845
H	-1.159431	-2.209247	-1.523344
Br	-3.855945	0.0	0.0
