15

C	-0.273199	0.136713	-1.49477
C	0.0	0.0	0.0
Br	-2.18902	0.656277	-1.867902
H	1.098278	0.0	0.0
H	-0.372682	-0.957046	0.370106
N	0.575694	1.152794	-2.036161
H	1.520299	1.022531	-1.663262
H	0.598434	1.120037	-3.047665
C	-0.159717	-1.167547	-2.168691
N	-0.02986	-2.199887	-2.718502
C	-0.483562	1.173956	0.837994
H	-0.201722	2.11509	0.363452
H	-1.566768	1.162582	0.977457
H	-0.00135	1.132121	1.817614
Br	3.555691	0.0	0.0
