15

C	-0.548484	8e-06	-1.423603
C	0.0	0.0	0.0
Br	0.173137	-1.57496	-2.355536
H	1.093252	0.0	0.0
H	-0.327117	-0.937453	0.464913
N	-1.998653	-0.079963	-1.546582
H	-2.399416	0.777714	-1.186374
H	-2.321597	-0.848753	-0.967739
C	-0.114439	1.189214	-2.165444
N	0.190794	2.180897	-2.714662
C	-0.486659	1.202346	0.806331
H	-0.035013	1.16229	1.799548
H	-1.574282	1.226529	0.930365
H	-0.161553	2.137716	0.344592
Br	3.630175	0.0	0.0
