15

C	-0.396332	-0.014351	-1.476408
C	0.0	0.0	0.0
Br	0.077064	1.715132	-2.315405
H	1.095289	0.0	0.0
H	-0.31621	-0.979674	0.38598
N	0.277685	-1.04364	-2.245477
H	-0.029297	-1.945582	-1.889378
H	1.274243	-0.961028	-2.036691
C	-1.850254	-0.149625	-1.637668
N	-3.014389	-0.296378	-1.707715
C	-0.575044	1.113041	0.858389
H	-1.669356	1.133914	0.82849
H	-0.196777	2.083739	0.537304
H	-0.263202	0.963769	1.894896
Br	3.610325	0.0	0.0
