18
Coordinates from ORCA-job run
  C   0.72612669553803     -0.25172220330755      0.02482564573539
  C   -0.69784422922303      0.19634574818385     -0.31840390116993
  Cl  0.82940554594821     -2.01060167692971      0.04901973209957
  H   -0.63601013232152      1.24769372612890     -0.61008100703084
  N   1.68972029058174      0.31317041858266     -1.04080881183309
  O   2.47207661754518     -0.43327332193041     -1.60079747268518
  O   1.61115716554378      1.52961315004007     -1.17234835600051
  C   1.21765159206830      0.31426752987852      1.34599681509606
  H   1.09797859260437      1.39864330340376      1.35652462510067
  H   0.66686161902125     -0.12938126311232      2.17382468937320
  H   2.27448410313573      0.06931237268995      1.46714155066221
  C   -1.69964754674777     -0.01175988452960      0.79523837690734
  H   -1.45805248382830      0.64006344064373      1.63541085248619
  H   -1.71431304220099     -1.04888194351950      1.12952293601044
  H   -2.69810220166148      0.24431780349187      0.44338034247226
  N   -1.12934850983257     -0.51745220930209     -1.57869917185548
  O   -2.14341703798342     -1.20549915255856     -1.54425610034826
  O   -0.40772703818752     -0.34585583785358     -2.55749074502004
