18
Coordinates from ORCA-job run
  C   0.63870235574721      0.06683390978055      0.62902158846607
  C   -0.81590635314216     -0.26509895841746      0.26368112540424
  Cl  0.72575774806035      0.50305440511847      2.34822898270623
  H   -1.18243942067095     -0.98071313815689      0.99829612089150
  N   1.36432978998376     -1.28175189675267      0.48238745189210
  O   2.31175874175059     -1.33115948725676     -0.29421595659829
  O   0.90857530747453     -2.21771865690721      1.12794457482569
  C   1.33279640067108      1.11966557029833     -0.19800446675916
  H   0.83781878469846      2.07757209221074     -0.05245856106162
  H   1.31219235588177      0.86290988014234     -1.25603414990295
  H   2.37180581829843      1.19972910197295      0.11835077353381
  C   -0.99167325463368     -0.77686400169190     -1.15420244542793
  H   -0.42944439591056     -1.70045514379475     -1.30041554529636
  H   -2.04656801624315     -0.99967549480143     -1.32629570586968
  H   -0.67432863659359     -0.03645988716292     -1.88654985283068
  N   -1.66962273252302      0.95406963700194      0.45567831964849
  O   -2.43300848272874      0.95181889067336      1.41797755777759
  O   -1.55974601012031      1.85524317774331     -0.37438981139905
