18
Coordinates from ORCA-job run
  C   0.75502852466702     -0.14353160188861     -0.02185623089347
  C   -0.73766911696767      0.09242476013672     -0.27307962678631
  Cl  1.11408696045482     -1.86855699735347     -0.01825010495188
  H   -0.84669026269885      1.14125426333445     -0.56003865871459
  N   1.55784773601528      0.55445191574859     -1.14068595899004
  O   1.29592122760563      1.74663739384879     -1.25681547128803
  O   2.40334179546919     -0.07092970889512     -1.75468845233475
  C   1.24062907167275      0.48915845866594      1.27088857764977
  H   0.81106434980912     -0.02726237321026      2.12777489801744
  H   2.32708583605425      0.39831493356485      1.32525748527282
  H   0.96779212529384      1.54517509386066      1.29631405937125
  C   -1.62772557708139     -0.25646812407407      0.89871805595431
  H   -1.43238768494925      0.42630927137540      1.72624646787139
  H   -1.47053476085832     -1.28364710543106      1.22702461409820
  H   -2.67263143446512     -0.14976522298237      0.61049538270704
  N   -1.13792074925594     -0.67858740338833     -1.50946149323241
  O   -0.51274414744411     -0.40328564570606     -2.53001951467231
  O   -2.03449389332122     -1.50969190760606     -1.41682402907844
