18
Coordinates from ORCA-job run
  C   0.70149256668264     -0.03284573597998      0.51795949544951
  C   -0.82200804231567      0.01359924322516      0.28032769264880
  Cl  0.95579476113960     -0.79097210353541      2.10086015635778
  H   -1.24988610494265      0.48083808361521      1.16835114222505
  N   1.33184627544192     -0.93590528281602     -0.55107089801352
  O   1.73428080770618     -0.35769292123289     -1.55624783223096
  O   1.33153605461545     -2.14419393134782     -0.36095891059596
  C   1.37409463833488      1.32211133725749      0.49510374931654
  H   2.43506265812692      1.20464027710291      0.71841475058621
  H   0.91884499615575      1.96072310929545      1.25259107801335
  H   1.27295866759351      1.79279306930228     -0.48036429375628
  C   -1.48611823424987     -1.31365541008852     -0.02119652923032
  H   -1.15326961465714     -1.71214422435904     -0.97757631801803
  H   -1.25695055924941     -2.03405203931753      0.76336223687487
  H   -2.56772303764861     -1.17103734763269     -0.06193750655341
  N   -1.10849548640436      0.99316284760529     -0.82544391350321
  O   -1.38897644092055      2.14069440386089     -0.48309661428743
  O   -1.01948390540861      0.58593662504521     -1.98107748528298
