17

C	-0.499902	-0.005051	-1.448199
C	0.0	0.0	0.0
Cl	0.094192	-1.489964	-2.175668
H	1.089355	0.0	0.0
N	-2.04247	0.032092	-1.536168
O	-2.515522	0.995231	-0.939869
O	-2.651496	-0.823756	-2.149204
N	-0.075802	1.09529	-2.243889
H	-0.251859	1.957498	-1.74246
H	0.924706	1.016489	-2.405971
N	-0.486891	-1.181365	0.769717
O	-1.605007	-1.625762	0.484224
O	0.309602	-1.674782	1.561779
N	-0.430376	1.21046	0.772663
O	-0.006828	2.278941	0.338724
O	-1.073273	1.04559	1.805962
F	2.492421	0.0	0.0
