13

C	-0.309842	-0.06914	-1.464916
C	0.0	0.0	0.0
F	-1.655094	-0.433565	-1.706577
H	1.091358	0.0	0.0
H	-0.21109	0.922356	-1.918483
H	-0.386633	-0.867579	0.529811
N	0.566027	-1.074349	-2.007429
H	0.69033	-0.93233	-3.002906
H	1.471234	-0.9411	-1.542698
N	-0.52398	1.194228	0.664487
O	-0.867858	1.085909	1.843778
O	-0.550893	2.260916	0.044608
F	2.594564	0.0	0.0
