13

C	-0.241999	0.1082	-1.496531
C	0.0	0.0	0.0
F	-0.13651	-1.211789	-2.034003
H	1.089084	0.0	0.0
H	-1.244536	0.424054	-1.793527
H	-0.41387	0.867492	0.516529
N	0.767667	0.96872	-1.968212
H	1.657748	0.707051	-1.517155
H	0.8287	0.949838	-2.975561
N	-0.669294	-1.189242	0.561592
O	-1.898511	-1.243835	0.439349
O	0.001594	-2.044086	1.134116
F	2.672482	0.0	0.0
