13

C	-0.474949	-0.047302	-1.429518
C	0.0	0.0	0.0
F	-0.062722	1.171472	-2.016746
H	1.089023	0.0	0.0
H	0.034992	-0.836434	-1.979339
H	-0.409909	0.868918	0.517489
N	-1.887027	-0.204838	-1.550678
H	-2.349749	0.558988	-1.073411
H	-2.159331	-0.185762	-2.525513
N	-0.462353	-1.190983	0.714951
O	-0.948605	-1.052639	1.843344
O	-0.295497	-2.285775	0.171848
F	2.564136	0.0	0.0
