13

C	-0.515134	0.003682	-1.407484
C	0.0	0.0	0.0
F	-0.027051	1.198646	-2.041093
H	1.08483	0.0	0.0
H	-0.020705	-0.818701	-1.934214
H	-0.436047	-0.849474	0.533124
N	-1.922176	-0.102291	-1.566139
H	-2.377961	0.625872	-1.019153
H	-2.191946	0.004624	-2.554436
N	-0.472538	1.197438	0.76699
O	0.362839	1.980269	1.208156
O	-1.699468	1.391814	0.90343
F	2.617328	0.0	0.0
