13

C	-0.201138	0.151441	-1.508423
C	0.0	0.0	0.0
F	-0.205202	-1.19143	-2.018591
H	1.088949	0.0	0.0
H	-1.178114	0.541298	-1.814739
H	-0.509893	-0.883321	0.372768
N	0.86737	0.9207	-1.994273
H	0.955921	0.868839	-2.998831
H	1.735623	0.656934	-1.494596
N	-0.571542	1.169469	0.694366
O	-1.764397	1.103025	1.026792
O	0.138316	2.151569	0.891124
F	2.673889	0.0	0.0
