13

C	-0.201185	-0.240193	-1.476734
C	0.0	0.0	0.0
F	-1.481599	-0.735254	-1.759242
H	1.090481	0.0	0.0
H	-0.09325	0.700781	-2.016888
H	-0.383475	-0.819694	0.607015
N	0.781454	-1.18649	-1.966664
H	0.578163	-2.0787	-1.528343
H	1.668921	-0.874557	-1.543754
N	-0.574002	1.243143	0.517077
O	-0.944221	1.258582	1.693582
O	-0.627231	2.22527	-0.22579
F	2.61576	0.0	0.0
