13

C	-0.474353	0.112054	-1.435262
C	0.0	0.0	0.0
F	-0.248949	1.44151	-1.788714
H	1.08793	0.0	0.0
H	0.146352	-0.510642	-2.081053
H	-0.399212	0.808872	0.612693
N	-1.862343	-0.176977	-1.713385
H	-1.970329	-1.182757	-1.715187
H	-2.433098	0.192224	-0.959371
N	-0.430917	-1.257014	0.597457
O	-0.481277	-2.257912	-0.132361
O	-0.670659	-1.29173	1.80583
F	2.545899	0.0	0.0
