13

C	-0.543268	-0.029616	-1.425411
C	0.0	0.0	0.0
F	0.006525	1.049222	-2.124773
H	1.091974	0.0	0.0
H	-0.33728	-0.900271	0.520563
C	-0.114565	-1.257919	-2.129715
N	0.151256	-2.236219	-2.720181
N	-1.968246	0.010625	-1.446428
H	-2.300044	0.045501	-2.403026
H	-2.288541	0.837116	-0.953523
C	-0.523034	1.174173	0.688633
N	-0.998423	2.116116	1.204064
Cl	3.307543	0.0	0.0
