13

C	-0.320208	0.043639	-1.495872
C	0.0	0.0	0.0
F	-0.110928	-1.273315	-1.970186
H	1.094754	0.0	0.0
H	-0.37726	-0.927559	0.431872
C	-1.742752	0.323296	-1.802872
N	-2.873848	0.519375	-2.049431
N	0.513231	0.992967	-2.111911
H	0.449156	0.95616	-3.120076
H	1.476555	0.872466	-1.797999
C	-0.520212	1.156556	0.71259
N	-0.958412	2.071986	1.302571
Cl	3.312804	0.0	0.0
