13

C	-0.370457	-0.14412	-1.471711
C	0.0	0.0	0.0
F	-1.697736	-0.573072	-1.595318
H	1.093994	0.0	0.0
H	-0.323954	-0.922818	0.488934
C	-0.332964	1.156467	-2.190716
N	-0.260408	2.167953	-2.782549
N	0.485935	-1.134638	-2.033599
H	1.438742	-1.014718	-1.688065
H	0.48559	-1.094963	-3.044027
C	-0.594053	1.149455	0.657929
N	-1.092023	2.064075	1.19948
Cl	3.28851	0.0	0.0
