13

C	-0.565043	-0.000177	-1.414392
C	0.0	0.0	0.0
F	-1.986187	0.076292	-1.294328
H	1.092062	0.0	0.0
H	-0.34299	0.904268	0.507848
C	-0.20011	1.234202	-2.141845
N	0.082044	2.202116	-2.742027
N	-0.160347	-1.123275	-2.152557
H	-0.231722	-1.978533	-1.618863
H	-0.648257	-1.194551	-3.03447
C	-0.506905	-1.167162	0.715197
N	-0.916612	-2.124908	1.256798
Cl	3.304248	0.0	0.0
