13

C	-0.549679	-0.067167	-1.419093
C	0.0	0.0	0.0
F	-1.892536	-0.531529	-1.327637
H	1.091939	0.0	0.0
H	-0.307444	-0.940472	0.471165
C	-0.676836	1.255997	-2.073902
N	-0.797811	2.284917	-2.625556
N	0.247331	-0.912104	-2.210159
H	-0.243763	-1.28945	-3.005958
H	0.766236	-1.601625	-1.687631
C	-0.561083	1.0982	0.772264
N	-1.031208	1.968016	1.404755
Cl	3.302203	0.0	0.0
