13

C	-0.542001	-0.040474	-1.425563
C	0.0	0.0	0.0
F	0.006637	1.033639	-2.132149
H	1.091968	0.0	0.0
H	-0.33776	-0.896266	0.527199
C	-0.111114	-1.273279	-2.120474
N	0.15547	-2.255299	-2.704825
N	-1.96739	-0.002301	-1.447521
H	-2.288213	0.826418	-0.958805
H	-2.298416	0.028929	-2.40447
C	-0.523443	1.179723	0.67836
N	-0.996308	2.126667	1.186914
Cl	3.31068	0.0	0.0
