13

C	-0.433725	-0.061078	-1.464656
C	0.0	0.0	0.0
F	-0.093095	-1.353851	-1.90044
H	1.09294	0.0	0.0
H	-0.346818	-0.889704	0.52915
C	-1.907426	0.018995	-1.61709
N	-3.072337	0.073896	-1.751152
N	0.191468	0.924854	-2.237862
H	1.043357	1.303066	-1.855374
H	-0.379749	1.553228	-2.771907
C	-0.510066	1.205162	0.63731
N	-0.92634	2.178932	1.14424
Cl	3.287373	0.0	0.0
