14
Coordinates from ORCA-job run
  C   -0.58154539221483     -0.13727880687780      0.37369670785042
  C   0.59490866517058      0.10978960882365     -0.30205649791084
  N   -1.19638847513068      0.57779519640038      1.36100391505953
  H   -1.03486648423601      1.57130473404314      1.32912160011094
  H   -2.15089262988431      0.28749932588534      1.51377385172031
  N   -1.25889132301232     -1.40779311906322      0.08103743197171
  O   -0.61715805451919     -2.30546217955467     -0.46505691851271
  O   -2.46854647825158     -1.44816458557385      0.31665671732338
  N   1.16763260893021     -0.65123461480755     -1.30010361680317
  H   1.28420021294252     -1.62818300434093     -1.08786977483211
  H   2.00968428536853     -0.20685594097887     -1.63956006517445
  N   1.24475802564217      1.40120519137779     -0.10123384558948
  O   2.30536258396635      1.59429300925641     -0.70392053892948
  O   0.70274245522855      2.24308518541018      0.62251103371594
