14
Coordinates from ORCA-job run
  C   0.63005889794884      0.10377263776869     -0.26697415703989
  C   -0.62985756458952     -0.10408219933401      0.26816863196762
  N   1.33892769757918     -0.69392672359110     -1.12723865902810
  H   2.31256910667982     -0.43581364122395     -1.18359329303538
  H   1.13029007949341     -1.67618229007123     -1.06801241084215
  N   1.29153731938304      1.38029027599184     -0.02326652848624
  O   2.45223590721905      1.48829051038729     -0.42973551202981
  O   0.68194470168327      2.27660899253590      0.57141090231990
  N   -1.33939272548793      0.69296861099785      1.12819669138905
  H   -2.31373215321610      0.43706757735287      1.18207209917544
  H   -1.12724967591839      1.67473965400021      1.07353795874579
  N   -1.29201563209227     -1.37949391756760      0.02181821067668
  O   -0.68012135164345     -2.27795845414291     -0.56722327893219
  O   -2.45519460703895     -1.48528103310385      0.42183934511928
