14
Coordinates from ORCA-job run
  C   0.62985756457795      0.10408219934899     -0.26816863199068
  C   -0.63005889794664     -0.10377263773888      0.26697415704521
  N   1.33939272543927     -0.69296861095366     -1.12819669149930
  H   2.31373215319089     -0.43706757736475     -1.18207209919693
  H   1.12724967580608     -1.67473965395388     -1.07353795894730
  N   1.29201563218475      1.37949391752278     -0.02181821056683
  O   0.68012135172271      2.27795845413710      0.56722327897182
  O   2.45519460721507      1.48528103296581     -0.42183934479475
  N   -1.33892769764350      0.69392672365166      1.12723865894953
  H   -2.31256910670708      0.43581364115164      1.18359329302465
  H   -1.13029007969181      1.67618229014916      1.06801241062379
  N   -1.29153731934595     -1.38029027598165      0.02326652853706
  O   -0.68194470155784     -2.27660899259792     -0.57141090209361
  O   -2.45223590724389     -1.48829051033640      0.42973551193732
