14
Coordinates from ORCA-job run
  C   0.61338953654649      0.10591459538812     -0.22278921863388
  C   -0.69309204454412     -0.08028438998534      0.08077560346971
  N   0.94421206225902      0.52426549011715     -1.52067059431976
  H   1.20700549709136      1.50381896644499     -1.53404110091623
  H   1.72604859162488     -0.00789254918423     -1.88330422018305
  N   1.67084330530408     -0.10105326275372      0.76104534100225
  O   1.41108110747592     -0.74674770359358      1.77433154462438
  O   2.77293620195677      0.37021107513155      0.47256327725725
  N   -1.71957396306543      0.12674880468033     -0.79213814395766
  H   -2.53075548566112     -0.45479282064370     -0.63935071036987
  H   -1.40417531720333      0.19150997466487     -1.75089551876215
  N   -1.18423213725396     -0.40146767961734      1.42859819422980
  O   -1.04332684157765      0.44812046242434      2.29752655537959
  O   -1.76836051295293     -1.47835096307344      1.52834899117960
