14
Coordinates from ORCA-job run
  C   0.65308619996048      0.08063726759725     -0.21416054388220
  C   -0.65261245515849     -0.08049662535430      0.21684118953979
  N   1.47765765352861     -0.83733749854473     -0.81136238390834
  H   2.44449209510158     -0.54923596405576     -0.81291192602809
  H   1.28787707967849     -1.79670019822324     -0.57542157284470
  N   1.24575402787272      1.41179673984921     -0.16970042294493
  O   0.54691019361404      2.37852397346617      0.15622523531543
  O   2.43927758757766      1.49576200267001     -0.47437887389408
  N   -1.47835247999015      0.83589828187230      0.81310097955905
  H   -2.44534755782115      0.54887222156423      0.81356646418109
  H   -1.28485505785246      1.79656516940440      0.58610635693734
  N   -1.24495236969500     -1.41247037428886      0.17276040211810
  O   -0.54771495002162     -2.37702369159126     -0.16215913193011
  O   -2.44221996679471     -1.49479130436541      0.46249422778165
