14
Coordinates from ORCA-job run
  C   0.65241071456041      0.13475666250754     -0.22358593505240
  C   -0.65192193460026     -0.08589542988343      0.06619822108594
  N   1.09992022077542      0.63246832365135     -1.41098231389280
  H   2.02286729554140      0.32456791717605     -1.68087632853907
  H   0.39671183413019      0.59107273425460     -2.13667342740710
  N   1.74445018775811     -0.01002099505829      0.74984491082303
  O   2.57458673801623     -0.87442605447797      0.47672577810462
  O   1.77708121549306      0.78080716116684      1.68255214430239
  N   -1.61141534071875      0.19430869323458     -0.91915283295716
  H   -2.12252055490029      1.04268920485264     -0.70036324541982
  H   -2.28522893851094     -0.55869536089023     -0.99054188026535
  N   -1.07796440342076     -0.58714670228993      1.36811343039510
  O   -2.28167753619498     -0.48684558535169      1.61519456884372
  O   -0.23629949792882     -1.09764056889205      2.10454690997890
