14
Coordinates from ORCA-job run
  C   0.65192193460506      0.08589542988377     -0.06619822107207
  C   -0.65241071455605     -0.13475666256464      0.22358593506268
  N   1.61141534073201     -0.19430869316628      0.91915283297765
  H   2.12252055484760     -1.04268920484125      0.70036324551555
  H   2.28522893856220      0.55869536092781      0.99054188021580
  N   1.07796440341394      0.58714670230605     -1.36811343038299
  O   2.28167753613730      0.48684558506078     -1.61519456903425
  O   0.23629949798316      1.09764056925729     -2.10454690978590
  N   -1.09992022081361     -0.63246832371750      1.41098231390070
  H   -0.39671183416035     -0.59107273422027      2.13667342739720
  H   -2.02286729553169     -0.32456791702124      1.68087632848425
  N   -1.74445018772312      0.01002099495591     -0.74984491085517
  O   -2.57458673803639      0.87442605428250     -0.47672577798401
  O   -1.77708121546007     -0.78080716114295     -1.68255214443944
