14
Coordinates from ORCA-job run
  C   0.62168897882803      0.07897971815832     -0.24341039751228
  C   -0.67472854331495     -0.05608906412728      0.17600302230532
  N   1.34831037750422     -0.94841118203581     -0.83907427083896
  H   1.82333445884106     -1.54295383329308     -0.17390696438895
  H   2.01544949130964     -0.57247792914378     -1.49835150637477
  N   1.27178087342521      1.38043640424672     -0.10601174467100
  O   0.62988878653909      2.32065446611834      0.38204953864452
  O   2.42397112088507      1.47351010848666     -0.52985795016154
  N   -1.55334900519774      0.83959143186570      0.66740863506653
  H   -2.39867578631349      0.49553641892579      1.08917839154868
  H   -1.20398883969731      1.74507238144371      0.93040749579895
  N   -1.27394114766327     -1.40240273299780      0.06189426861494
  O   -2.43843006570274     -1.45296894520967     -0.33453699843329
  O   -0.59131069944283     -2.35847724243782      0.41720848040185
