14
Coordinates from ORCA-job run
  C   -0.64586063797678     -0.07475098253538      0.23677608541403
  C   0.64660137477606      0.07479960834338     -0.23682098175327
  N   -1.44049102789712      0.84668720496755      0.86702311397305
  H   -0.94721955498754      1.55487556750290      1.38365024106786
  H   -2.24438545815424      0.42956372637259      1.31125639644155
  N   -1.35927936269648     -1.31243345396268     -0.05638429632151
  O   -2.46920353900726     -1.44828258023307      0.46682856640486
  O   -0.83462229663262     -2.15666874553604     -0.79165582867810
  N   1.44259960146115     -0.84734036462140     -0.86532703550612
  H   2.24220714402280     -0.42800114046985     -1.31537589582679
  H   0.94843780306967     -1.55622753195665     -1.38030297823442
  N   1.35935055448744      1.31272739935592      0.05634267940514
  O   0.83435464655747      2.15629605949561      0.79222681065771
  O   2.46851075297747      1.44975523327711     -0.46823687704399
