14
Coordinates from ORCA-job run
  C   0.68920195824230      0.10625116958116     -0.08080364739892
  C   -0.60899460689440     -0.13043803560477      0.22229472855928
  N   1.72384013760051     -0.07206037048952      0.78891565873569
  H   1.41337853127790     -0.15714427623376      1.74763277197445
  H   2.51385628810393      0.53868033976964      0.63952410206645
  N   1.16623320212239      0.45919846340094     -1.42610586337844
  O   1.71424233378398      1.55592245687304     -1.51461661153876
  O   1.05690833586078     -0.38642113638812     -2.30356104363632
  N   -0.92266510647144     -0.57460903468699      1.51602050736738
  H   -1.72466152547341     -0.07711124275124      1.88379298672485
  H   -1.14770316319519     -1.56361799136338      1.51879429188591
  N   -1.67440128842625      0.04741377179480     -0.75856426948394
  O   -1.44049061135268      0.71573714161211     -1.76340723241196
  O   -2.75974448517840     -0.46180125551390     -0.47091637946570
