14
Coordinates from ORCA-job run
  C   0.60899461058125      0.13043802647736     -0.22229474303241
  C   -0.68920195663822     -0.10625115498907      0.08080364397967
  N   0.92266511185253      0.57460901086179     -1.51602052416653
  H   1.14770321746202      1.56361795637923     -1.51879431157918
  H   1.72466150143124      0.07711119014230     -1.88379303011923
  N   1.67440128658434     -0.04741376549307      0.75856427207782
  O   2.75974446393664      0.46180131750868      0.47091641251135
  O   1.44049060457257     -0.71573711804268      1.76340724175629
  N   -1.72384015480471      0.07206041677164     -0.78891564088478
  H   -2.51385630474049     -0.53868029218488     -0.63952406510551
  H   -1.41337855333475      0.15714430404206     -1.74763275868854
  N   -1.16623319479076     -0.45919848377086      1.42610585850910
  O   -1.71424223100121     -1.55592252244567      1.51461659711998
  O   -1.05690840111045      0.38642111474319      2.30356104762198
