14
Coordinates from ORCA-job run
  C   -0.62406160649542     -0.11713065639381      0.27538832293688
  C   0.62288293345211      0.11865678445183     -0.27854398642697
  N   -1.28157960757528      0.59712136436515      1.24313102960015
  H   -2.25842555679333      0.35415118520284      1.30969544941888
  H   -1.05130007063679      1.57550481196388      1.28192113589989
  N   -1.32651102781713     -1.34384193353859     -0.08155816043450
  O   -2.47317733229388     -1.47278975456225      0.35751658365660
  O   -0.76256684991324     -2.18108524806567     -0.79561707630479
  N   1.28213678256081     -0.59425858449203     -1.24565428456597
  H   2.26170822459000     -0.35961691275912     -1.30182465371546
  H   1.04213361884043     -1.56997982732881     -1.29397024707307
  N   1.32800602043236      1.34269905007175      0.08371029409734
  O   2.48186802439473      1.46203938473344     -0.33874822375192
  O   0.75888644725462      2.18653033635138      0.78555381666296
