14
Coordinates from ORCA-job run
  C   0.64083770429560      0.14078167397441     -0.07965307927043
  C   -0.63485472550197     -0.18261404752132      0.23927718177341
  N   1.60237963975679      0.15133958474437      0.94226733907099
  H   2.45576734416738     -0.30270252562145      0.63983477314645
  H   1.83866498501831      1.09987514209613      1.21297285558585
  N   1.02952819117068      0.49193318793551     -1.44128185416288
  O   2.12653921615587      1.04131552433061     -1.56242166009480
  O   0.27257657812906      0.19328029171180     -2.36267395349065
  N   -1.05530639228744     -0.48880626768368      1.49959830799689
  H   -0.28584432137215     -0.69445361149329      2.12302552766822
  H   -1.83277443879648     -1.13167578595392      1.54323994117929
  N   -1.75824053424572     -0.11731566100600     -0.70665477937443
  O   -2.08459000935737      0.98746894231651     -1.11862369305418
  O   -2.31668323713256     -1.18942644782968     -0.92890690697372
