14
Coordinates from ORCA-job run
  C   -0.60738284300237     -0.04605199769298      0.25750654052764
  C   0.56245880828919      0.09482177833784     -0.40972551956348
  N   -1.80577425145219      0.14082693102664     -0.44804657004181
  H   -2.25992102408447     -0.74549350599936     -0.64026718677299
  H   -2.45368242974077      0.70853362159570      0.08472434107839
  N   -0.64916649060881     -0.39905341539800      1.67255395489649
  O   -1.74089438311571     -0.78079357614435      2.09948114677667
  O   0.37323696375167     -0.26267368617990      2.34143597255958
  N   0.65698753102487      0.39410348441154     -1.73640886600181
  H   1.48411448007273      0.91142269826917     -1.99689335927951
  H   -0.21251284439664      0.74416137043137     -2.11631514243130
  N   1.88024380675010     -0.18707900867585      0.17786002944264
  O   2.12828006656974     -1.34748353635660      0.47549828631066
  O   2.64201260994265      0.77575884237477      0.23659637249884
