14
Coordinates from ORCA-job run
  C   0.64364557054385      0.06178237027640     -0.27096198501831
  C   -0.62775770646550     -0.05486203199132      0.22628803385807
  N   1.40861118439606     -0.80199806042768     -0.99224189013745
  H   1.12184992725030     -1.76716259974512     -0.93627469454707
  H   2.39848182024775     -0.61430253725724     -0.91955403473080
  N   1.30499294159222      1.37312560462311     -0.13038364206799
  O   2.52035252157023      1.34200069185650      0.07056483283240
  O   0.61735727662340      2.38758283338191     -0.19794104753550
  N   -1.30693284966166      0.94585466363222      0.91233758942036
  H   -2.06473236655877      0.54181371343832      1.44592591758680
  H   -1.64197168584644      1.68982707808342      0.31721240321249
  N   -1.29026157431088     -1.35294951074113      0.15127824882956
  O   -2.37645646523538     -1.45815846071179      0.72455666681195
  O   -0.70617859414520     -2.29455375441760     -0.40080639851452
