14
Coordinates from ORCA-job run
  C   -0.59277518111918     -0.08358591471490      0.31404137404514
  C   0.59972208124804      0.10095782703574     -0.34396022969415
  N   -1.17612718568035      0.79173174436441      1.21065613891497
  H   -1.39809027675069      1.69709459712320      0.82731151192394
  H   -1.96218979068183      0.35734860254796      1.67384468231528
  N   -1.22959841057483     -1.40556156126797      0.24432609994611
  O   -0.79646547285876     -2.24316157012332     -0.55306721690682
  O   -2.23701399206602     -1.56681304487007      0.93720805153596
  N   1.20725241964408     -0.66821968234600     -1.30736563456508
  H   0.94975105018920     -1.64237508598701     -1.26932684248843
  H   2.19894761183307     -0.47421740741529     -1.34686099557791
  N   1.29257596955311      1.38620459252162     -0.17182604556823
  O   0.62730680727278      2.38197240765736      0.11162276363509
  O   2.51470436999138      1.36762449547427     -0.32560365751588
