14
Coordinates from ORCA-job run
  C   -0.59970912235255     -0.10095700824755      0.34397516244162
  C   0.59281948291709      0.08357997800178     -0.31397218790490
  N   -1.20722319438304      0.66818672207895      1.30744122796777
  H   -0.94965874161424      1.64232486428563      1.26948694360678
  H   -2.19891310370907      0.47417565874984      1.34692851251713
  N   -1.29257525473355     -1.38618423418718      0.17178949833685
  O   -0.62734433069809     -2.38195505288259     -0.11174775638042
  O   -2.51472529830532     -1.36755048326800      0.32539879943713
  N   1.17622830024708     -0.79174880931012     -1.21051279067438
  H   1.39794791329800     -1.69719380050354     -0.82724172721976
  H   1.96234830388968     -0.35743940350215     -1.67366320283302
  N   1.22955027787292      1.40562047438073     -0.24439859383306
  O   2.23679566161589      1.56693479918505     -0.93750872021425
  O   0.79645910595519      2.24320629521915      0.55302483475250
