14
Coordinates from ORCA-job run
  C   -0.66958965590743     -0.05183167889565      0.16792553389492
  C   0.66910653892262      0.05231870114800     -0.16945564722084
  N   -1.52360927474013      0.92744434547136      0.60372559054377
  H   -2.37299287665572      0.55496165992066      1.00057871981695
  H   -1.08527041583610      1.68829396620791      1.09443197070769
  N   -1.35397559092796     -1.31756494221071     -0.06877822114407
  O   -2.51500610616047     -1.40399296605909      0.34187815337728
  O   -0.75706512041972     -2.23119286990842     -0.64974819739147
  N   1.52354638357808     -0.92791276193299     -0.60311166851467
  H   2.37393716733823     -0.55546267072803     -0.99782365214603
  H   1.08577414780892     -1.68768958445433     -1.09597235465648
  N   1.35351757980783      1.31783129248841      0.06872246256638
  O   2.51574869755675      1.40342307594144     -0.33894330228091
  O   0.75587852563509      2.23237443301145      0.64757061244748
