14
Coordinates from ORCA-job run
  C   -0.66910653882527     -0.05231870134211      0.16945564782873
  C   0.66958965619014      0.05183167910473     -0.16792553411923
  N   -1.52354638391073      0.92791276178533      0.60311166874932
  H   -2.37393716669385      0.55546266959901      0.99782365370842
  H   -1.08577414805925      1.68768958460573      1.09597235442564
  N   -1.35351757977626     -1.31783129237712     -0.06872246289079
  O   -0.75587852632351     -2.23237443129515     -0.64757061633334
  O   -2.51574869639538     -1.40342307752503      0.33894330531042
  N   1.52360927476289     -0.92744434564532     -0.60372559060567
  H   2.37299287598746     -0.55496166029629     -1.00057872157961
  H   1.08527041498650     -1.68829396655773     -1.09443196994216
  N   1.35397559121803      1.31756494257830      0.06877822133511
  O   2.51500610696880      1.40399296650409     -0.34187815225287
  O   0.75706511987044      2.23119287086158      0.64974819636602
