14
Coordinates from ORCA-job run
  C   -0.59444994312890     -0.14894780628659      0.33039948355701
  C   0.65742325231636      0.08370117241626     -0.21292760817818
  N   -1.27388460352680      0.57592112191723      1.27376894497899
  H   -2.27481391020075      0.46358390160574      1.21816975385536
  H   -0.92516261074536      1.50871555117630      1.42199050188503
  N   -1.31964327304118     -1.35112167157187     -0.06369310671096
  O   -0.74195447222154     -2.22682508300934     -0.71898564779209
  O   -2.50492563756079     -1.41221698403469      0.27464368906902
  N   1.45404304704498     -0.76254070480395     -0.93775199182017
  H   0.98394731765927     -1.56974425304100     -1.31313045715598
  H   2.09968070344909     -0.28122327935041     -1.54509092505068
  N   1.30513984780342      1.36621970542924      0.03635192954655
  O   2.31393887259749      1.61028428127638     -0.63136913706548
  O   0.82166140955471      2.14419404827670      0.86762457088159
