14
Coordinates from ORCA-job run
  C   -0.65742325133043     -0.08370117247178      0.21292761038703
  C   0.59444994454340      0.14894780383837     -0.33039948148168
  N   -1.45404304354969      0.76254070336431      0.93775199733644
  H   -0.98394731485156      1.56974425101219      1.31313046441060
  H   -2.09968070690547      0.28122327759263      1.54509092274347
  N   -1.30513984913224     -1.36621970382523     -0.03635193052680
  O   -2.31393888191342     -1.61028427440061      0.63136912613950
  O   -0.82166140701774     -2.14419404909726     -0.86762456731177
  N   1.27388460446170     -0.57592112397327     -1.27376894382935
  H   2.27481391085694     -0.46358389937202     -1.21816975602049
  H   0.92516261462265     -1.50871555473146     -1.42199049814241
  N   1.31964327319149      1.35112167132552      0.06369310560494
  O   2.50492563519966      1.41221698955256     -0.27464369805733
  O   0.74195447182472      2.22682508118603      0.71898564874786
