14
Coordinates from ORCA-job run
  C   -0.58403150063325     -0.22295450397937      0.25415206870625
  C   0.52281081023055      0.27790180819192     -0.33157739857515
  N   -1.90664242025278      0.07105413833632     -0.05187134190623
  H   -2.03140007347682      0.82861889608004     -0.70378578839848
  H   -2.46275806056759     -0.74200710132752     -0.27781113025582
  N   -0.50374944788233     -1.16004158436092      1.38148559592842
  O   -1.19990166063379     -2.16768962665823      1.26411712445684
  O   0.18348467760531     -0.85807499743720      2.35006204270625
  N   0.59155636260276      1.02534748152831     -1.50086265307017
  H   -0.27199181840916      1.08327069555516     -2.01595711428915
  H   1.04653584250497      1.92040734206702     -1.38700559308531
  N   1.86103210104670      0.03230624784219      0.21821492451868
  O   2.17704475505530     -1.11581387231832      0.50880373531338
  O   2.57901043281013      1.02867507648058      0.29303552795049
