14
Coordinates from ORCA-job run
  C   -0.64223900415617     -0.07871277323216      0.24690478669999
  C   0.64181210524644      0.07870112890152     -0.24673630643422
  N   -1.42272072782380      0.82936342427324      0.91379276053079
  H   -2.21740847749654      0.40216692584036      1.36509902028207
  H   -0.91703465151633      1.52236855344084      1.43901306274811
  N   -1.36420381848021     -1.30722212006689     -0.06288140571789
  O   -0.85689468177395     -2.13297939576469     -0.83059684558070
  O   -2.46335786679750     -1.45458497848572      0.47960738437473
  N   1.42160615783200     -0.82895507532571     -0.91462412563659
  H   2.21744977537892     -0.40253848998604     -1.36452093432761
  H   0.91655811166714     -1.52221424809942     -1.44002728080847
  N   1.36408120668042      1.30693290316961      0.06341380081773
  O   2.46401975516168      1.45348754742726     -0.47773303758832
  O   0.85633211607790      2.13318659790780      0.83028912064037
