14
Coordinates from ORCA-job run
  C   0.60446612223917      0.19916373680872     -0.20476034651127
  C   -0.67421719302549     -0.14929355329477      0.07825452631467
  N   0.88341998948440      0.71707442427663     -1.47381025283452
  H   1.19701150410263      0.00533734800955     -2.12328240135540
  H   1.58159272009764      1.44722220985660     -1.43760848671904
  N   1.67079240433251      0.10333340245900      0.78828305383791
  O   2.82099013661155      0.17381133501088      0.34845491983509
  O   1.36094724927440      0.03334852954756      1.97471895364952
  N   -1.71848002822562     -0.02381217082023     -0.79097338150837
  H   -2.61395788615010      0.10433288148328     -0.34179373055252
  H   -1.50764945918364      0.61412854164055     -1.54773541463630
  N   -1.07442369627109     -0.88341501438531      1.29273451559511
  O   -0.51127137385417     -1.94378135936585      1.52692470147435
  O   -2.02022048943220     -0.39845031122661      1.91059334341078
