14
Coordinates from ORCA-job run
  C   0.67421729421235      0.14929344220499     -0.07825424700001
  C   -0.60446606754946     -0.19916370992934      0.20476052826345
  N   1.71848023744945      0.02381171623407      0.79097349405733
  H   1.50765033794282     -0.61413043580114      1.54773450185902
  H   2.61395820116063     -0.10433164325610      0.34179356412643
  N   1.07442362847667      0.88341508964557     -1.29273419361799
  O   0.51127029539990      1.94378080342794     -1.52692488408383
  O   2.02022084136762      0.39845120480721     -1.91059298466185
  N   -0.88342058441105     -0.71707426897483      1.47381027422662
  H   -1.58159402914757     -1.44722132683990      1.43760853479414
  H   -1.19701092916243     -0.00533710360053      2.12328288031439
  N   -1.67079229566212     -0.10333298749930     -0.78828321529306
  O   -2.82099003016385     -0.17381089916418     -0.34845513734411
  O   -1.36094689991297     -0.03334988125445     -1.97471911564051
