14
Coordinates from ORCA-job run
  C   -0.59330446343048     -0.12694571033008      0.34192099334881
  C   0.65679621043652      0.06761780399124     -0.22079327516641
  N   -1.26394096865993      0.65384379974106      1.24582649457976
  H   -2.26566267058601      0.54345534033790      1.20238884909766
  H   -0.90891262591582      1.59103823468246      1.34167681099626
  N   -1.32742984178411     -1.34482923189888      0.01974716462783
  O   -0.75870693005781     -2.25849449639444     -0.59004916120362
  O   -2.51068223688699     -1.38082100173733      0.36855535242314
  N   1.44433735802142     -0.82258177861586     -0.90189881971520
  H   2.08857469654283     -0.37889833996108     -1.53879947803745
  H   0.96671330507248     -1.64529688369026     -1.23138588261211
  N   1.31273876989294      1.35804521903295     -0.04697000305282
  O   2.31733809509513      1.56008917281589     -0.73478382667169
  O   0.84014130225982      2.18277787202639      0.74456478138586
