14
Coordinates from ORCA-job run
  C   -0.65679621046356     -0.06761780426191      0.22079327484643
  C   0.59330446329671      0.12694571042697     -0.34192099398997
  N   -1.44433735787284      0.82258177859229      0.90189881923188
  H   -2.08857469583158      0.37889834003569      1.53879947827935
  H   -0.96671330444734      1.64529688356304      1.23138588179871
  N   -1.31273877000885     -1.35804521903059      0.04697000316071
  O   -0.84014130273900     -2.18277787248714     -0.74456478113542
  O   -2.31733809481727     -1.56008917240714      0.73478382751354
  N   1.26394096872636     -0.65384379962881     -1.24582649514176
  H   0.90891262591425     -1.59103823459505     -1.34167681146585
  H   2.26566267058463     -0.54345534033818     -1.20238884909674
  N   1.32742984152359      1.34482923180210     -0.01974716423332
  O   2.51068223704607      1.38082100215472     -0.36855535082162
  O   0.75870692908881      2.25849449617402      0.59004916105406
