14
Coordinates from ORCA-job run
  C   -0.63329222800919     -0.06217633114597      0.29055221018001
  C   0.63512828894088      0.05844200750792     -0.23477768861217
  N   -1.37584778521453      0.82938914662843      1.02113721696788
  H   -2.35019006813784      0.56542122863491      1.05615796444068
  H   -1.19593726918501      1.79729075548134      0.80819259614300
  N   -1.29565061194005     -1.36492710113433      0.16346349298471
  O   -0.60668949832767     -2.34939634637832     -0.10933086191449
  O   -2.52859288029297     -1.35603830651153      0.17843057186085
  N   1.34512841512087     -0.88979410526064     -0.94368891051661
  H   1.35146648392262     -1.80776681506725     -0.53038029215285
  H   2.26639524607183     -0.54002894068776     -1.17008724925477
  N   1.29051695318454      1.36128168541060     -0.16895165078091
  O   0.65311006815708      2.33564077299819      0.24308113472661
  O   2.44445488570944      1.42266234952440     -0.60379853407194
