14
Coordinates from ORCA-job run
  C   -0.60954175469696     -0.08052744600275      0.37198265095885
  C   0.59586141418323      0.09006244882462     -0.23870876312048
  N   -0.74749531955210     -0.35779400065850      1.69906380410920
  H   0.11873633616077     -0.38156648675041      2.21468970340212
  H   -1.46010725623763     -1.00951286449648      1.98482992897487
  N   -1.87808462451900     -0.03831753529555     -0.36628659323945
  O   -2.87674081291003      0.25917836183840      0.28968784715469
  O   -1.86367759068091     -0.38939130949867     -1.54201950417942
  N   1.78420371758165     -0.25205840343495      0.40850680590033
  H   2.59652767263011      0.16584469630982     -0.02256832369043
  H   1.91682865942277     -1.25124769880697      0.50491757370323
  N   0.73034789621865      0.84656860485010     -1.48388525140731
  O   1.78161935948692      0.66791681725441     -2.10490641584777
  O   -0.08747769708746      1.73284481586695     -1.71530346271845
