14
Coordinates from ORCA-job run
  C   0.63594419783583      0.07350213595381     -0.26369357640222
  C   -0.63601998940772     -0.07327445470002      0.26314638051223
  N   1.41199237580605     -0.85664203304968     -0.90475303956277
  H   2.19184338856733     -0.44308408415353     -1.39310649909589
  H   0.90293172049911     -1.57880784878364     -1.38555851080022
  N   1.35101443151804      1.32197014683589     -0.02665662473236
  O   2.43696271197426      1.45480976320555     -0.59873211935116
  O   0.85116539150215      2.17748356969941      0.71290020462280
  N   -1.41216626067798      0.85703803559308      0.90402695880696
  H   -2.19184986033590      0.44331591733167      1.39254253667596
  H   -0.90261658520844      1.57832504745929      1.38573277872003
  N   -1.35079312388546     -1.32202299153269      0.02636997479729
  O   -0.85084361315299     -2.17767629750262     -0.71294084442041
  O   -2.43656478503428     -1.45493690635651      0.59872238022975
