14
Coordinates from ORCA-job run
  C   -0.58487058353446     -0.06366823074396      0.32617609945960
  C   0.58891208826797      0.06650228873049     -0.30968703310542
  N   -1.18634007635624      0.92797801236360      1.09963202526415
  H   -0.99948022570512      0.80313049551779      2.08714514262278
  H   -2.18562937972641      0.96945052153433      0.94350397896605
  N   -1.28105856718900     -1.35494761022615      0.16285523654321
  O   -1.54491714171826     -1.95014803021054      1.20588019217975
  O   -1.58779181341328     -1.70195424017244     -0.97562460235675
  N   1.18419273969196     -0.92191253268469     -1.09216233609330
  H   2.19238167516065     -0.90875606041865     -1.00743219250916
  H   0.92146701212234     -0.84385167263747     -2.06728566714490
  N   1.28932250540013      1.35484276088963     -0.15072982256236
  O   1.53336633392290      1.95024073645608     -1.19854899620218
  O   1.66044543307682      1.67309356160198      0.97627797493854
