14
Coordinates from ORCA-job run
  C   -0.67451000159448     -0.03923034807540      0.20645267114861
  C   0.61405806027569      0.08654980867381     -0.29337530649311
  N   -1.41462516271678      0.87312401397513      0.91674895511247
  H   -2.15906650576621      0.43843196001238      1.44002323788397
  H   -0.91034776829227      1.61895642574670      1.36341690129713
  N   -1.35295267213670     -1.30695269392696      0.03606562009827
  O   -0.85846062465854     -2.15958963209265     -0.71542120739622
  O   -2.37508601322619     -1.49109678343408      0.70616877890314
  N   1.30038539398415     -0.75828555241877     -1.10240640974882
  H   0.86748980212269     -1.58995106885339     -1.45580659030645
  H   2.26880196130042     -0.54649429794250     -1.26593452311062
  N   1.36459878062584      1.30291024075680      0.00094878039282
  O   0.77175622525477      2.27390006652594      0.47978348671858
  O   2.55795852482760      1.29872786105299     -0.31566439449977
