14
Coordinates from ORCA-job run
  C   -0.61405808937211     -0.08654967818631      0.29337515674491
  C   0.67450998864143      0.03923039215153     -0.20645275990276
  N   -1.30038573009265      0.75828604559630      1.10240563850646
  H   -0.86748995055101      1.58995101175445      1.45580689322839
  H   -2.26880167589763      0.54649339528655      1.26593566771927
  N   -1.36459878167034     -1.30291015896659     -0.00094880774974
  O   -0.77175603064338     -2.27390030525162     -0.47978260126665
  O   -2.55795870980080     -1.29872746039066      0.31566364923770
  N   1.41462514196363     -0.87312400989403     -0.91674904133657
  H   0.91034770114571     -1.61895627248031     -1.36341718512466
  H   2.15906644952085     -0.43843186103366     -1.44002331962128
  N   1.35295277462746      1.30695265165849     -0.03606564945167
  O   2.37508644807389      1.49109642193736     -0.70616837112968
  O   0.85846046405496      2.15958982781852      0.71542073014628
