14
Coordinates from ORCA-job run
  C   -0.52295827500453     -0.27394848754194      0.38071740016402
  C   0.57935769566268      0.21058422223182     -0.23879705749965
  N   -0.52569701366305     -0.80264396099489      1.63743996310448
  H   0.40496075305701     -1.02827207070426      1.96291603055409
  H   -1.22560207340484     -1.51290154307118      1.79659242925148
  N   -1.88301051349492     -0.17102432696893     -0.16791836194070
  O   -2.43847756942618     -1.24471347729434     -0.39045314497309
  O   -2.36410616049602      0.94852471172499     -0.27642362416345
  N   1.80562512945513      0.15648978223271      0.44097285697400
  H   2.07278465220124      1.07128804112307      0.78819295926096
  H   2.54442698306342     -0.16688555033931     -0.17178871762162
  N   0.51896798170343      0.79345633003236     -1.57486386563996
  O   -0.46706194554797      0.56290986422633     -2.27179092091923
  O   1.50079035589460      1.45613646534356     -1.91679594655134
