14
Coordinates from ORCA-job run
  C   -0.61003372148966     -0.09603932211668      0.31307507920621
  C   0.60998920904087      0.09615975299206     -0.31270081029519
  N   -1.42377223928459      0.83148155754924      0.91054788754554
  H   -0.94912986145404      1.63613615737337      1.28363283788376
  H   -2.13291049557612      0.40935416307521      1.49084724397253
  N   -1.22704123586861     -1.41569071684652      0.25112706738022
  O   -2.26120568377912     -1.57419612390156      0.90653216240323
  O   -0.69996711128234     -2.30155314114446     -0.43164848641590
  N   1.42347190654251     -0.83038039066302     -0.91107773924942
  H   0.95064297912514     -1.63784681109159     -1.28027288613009
  H   2.13253609665339     -0.40877923400955     -1.49174717092669
  N   1.22662647942636      1.41635418914001     -0.25167677050254
  O   2.25813290685780      1.57606542401482     -0.91086690550460
  O   0.70166077108844      2.30093449562868      0.43422849063296
