14
Coordinates from ORCA-job run
  C   -0.62703121564694     -0.06551804815737      0.27470753001019
  C   0.63190350888965      0.07104746724187     -0.28037891572455
  N   -1.36526104660255      0.90442324742326      0.92035817051511
  H   -1.45352206335649      1.77540321535798      0.42559503850139
  H   -2.23480497471396      0.52675780157684      1.26805844569011
  N   -1.18962770186262     -1.39922043648020      0.37786433165445
  O   -2.28532160735504     -1.50305887308922      0.94003206416216
  O   -0.56560637853434     -2.35931466507528     -0.09472434534806
  N   1.41058032213228     -0.84544417521150     -0.90217717730396
  H   1.19284369476122     -1.81823948039573     -0.78474900363682
  H   2.34231527809119     -0.54947338938131     -1.13741946959567
  N   1.22254452731925      1.40783565102855     -0.31586596278644
  O   2.43564952819739      1.47013771903037     -0.53016638354442
  O   0.48533812868097      2.38366396613174     -0.16013432259347
