14
Coordinates from ORCA-job run
  C   -0.61958406089072     -0.12667880194936      0.30644628759264
  C   0.49406358523015      0.15803223783432     -0.40939955839809
  N   -1.89098643169785      0.07318952582459     -0.14385833504872
  H   -1.92725565844156      0.21496462734530     -1.14466496446981
  H   -2.57788038390513     -0.56608852325442      0.22922501782746
  N   -0.60269127327818     -0.56340973963709      1.70962836921005
  O   -1.07487370445147     -1.67955670320211      1.91477645876933
  O   -0.20228212332854      0.23627908613290      2.54443472134651
  N   0.34167773449205      0.67778077806083     -1.70365605635785
  H   0.97280098765408      0.22282481376841     -2.35215302458498
  H   0.54229659190065      1.67177826511630     -1.72566445182556
  N   1.83271651075344     -0.04940930842522      0.13284454630168
  O   2.75102123808064      0.50277862526848     -0.47685192256303
  O   1.96097698788244     -0.77348488288294      1.11789291220037
