14
Coordinates from ORCA-job run
  C   -0.65023256462625     -0.06809312652756      0.23925584157062
  C   0.68802607553702      0.02862374363947     -0.10222504827970
  N   -1.44757651771046      0.84869801248146      0.87177109299382
  H   -2.42768757011644      0.73924827707378      0.66003202937146
  H   -1.08313150947407      1.78701827743619      0.88843692387290
  N   -1.35491000993303     -1.31696876196669     -0.02489946768548
  O   -2.58261963321516     -1.29078747523328      0.09801678684610
  O   -0.71632845820285     -2.31828900186389     -0.37079316393003
  N   1.55542898968591     -0.96186897546633     -0.48024644715597
  H   2.32172249369770     -0.62749791755569     -1.04454912016327
  H   1.11781212808140     -1.82325396816139     -0.76312339469989
  N   1.34643908691470      1.32589916789209     -0.00590855494410
  O   2.46816492467704      1.41083590551551     -0.51347585246061
  O   0.76489256468449      2.26743584273632      0.54670837466416
