14
Coordinates from ORCA-job run
  C   -0.61475232539289     -0.07676982775001      0.30932999807597
  C   0.61499309735685      0.07684245499887     -0.30817515170708
  N   -1.35479137751651      0.85321424556778      0.99224901836772
  H   -1.21272015435701      1.80635652838062      0.70362931307197
  H   -2.30787082828033      0.55785738189421      1.14131533541943
  N   -1.19405447204342     -1.41235694764115      0.38959907098504
  O   -0.53824905237613     -2.38378273505847     -0.00411006414261
  O   -2.33625301987898     -1.49313998297251      0.85131260340276
  N   1.35560356732625     -0.85433455239713     -0.98804181658103
  H   1.21493739601509     -1.80726147086865     -0.69845076671113
  H   2.30692090014579     -0.55732981873895     -1.14428934915640
  N   1.19369006269296      1.41241286510617     -0.39101711073377
  O   2.33365509948009      1.49358236421735     -0.85809877092135
  O   0.53889110682820      2.38370949526187      0.00474769063049
