14
Coordinates from ORCA-job run
  C   -0.61499309714305     -0.07684245420650      0.30817514776807
  C   0.61475232383202      0.07676982943357     -0.30933000342063
  N   -1.35560356302998      0.85433455561579      0.98804181398088
  H   -1.21493740609527      1.80726147091513      0.69845074542117
  H   -2.30692088775231      0.55732981660921      1.14428938382751
  N   -1.19369006217024     -1.41241286589105      0.39101710810020
  O   -0.53889110777646     -2.38370949521343     -0.00474769785856
  O   -2.33365509634588     -1.49358236622821      0.85809877404687
  N   1.35479137580172     -0.85321424214031     -0.99224902627667
  H   2.30787083191985     -0.55785738661487     -1.14131532795993
  H   1.21272014688727     -1.80635652609979     -0.70362932549060
  N   1.19405447039696      1.41235694785018     -0.38959906880895
  O   0.53824904208173      2.38378273529867      0.00411005186470
  O   2.33625302939361      1.49313998067162     -0.85131257519407
