14
Coordinates from ORCA-job run
  C   -0.56637649384679     -0.12848952934737      0.38367722132277
  C   0.63832675931729      0.08517088115030     -0.26454965821302
  N   -1.23443696735358      0.69109029288650      1.25483963648843
  H   -2.22787545059046      0.51818597285319      1.28192923118041
  H   -0.93654693008408      1.65269928161092      1.24435709650528
  N   -1.23980867679012     -1.40988132138565      0.21114208212711
  O   -2.39776794238928     -1.48251125806505      0.63204926697142
  O   -0.64942388606518     -2.34058848700071     -0.35052106468770
  N   1.44133526034363     -0.81626562691131     -0.91139033443767
  H   2.02478950379680     -0.39638832357017     -1.61896609718038
  H   0.99926914809633     -1.69152670214601     -1.13918090005140
  N   1.22469576808131      1.42009166264889     -0.23729204189759
  O   2.18321851988703      1.61381029506695     -0.99009679739015
  O   0.74060138759713      2.28560286220954      0.50200235926249
