14
Coordinates from ORCA-job run
  C   -0.58664087232793     -0.08827746781079      0.36431572608087
  C   0.65451301535697      0.05519997206582     -0.23201395763653
  N   -1.29406220310047      0.81518776258367      1.11281140289256
  H   -2.28974580714556      0.65426386445098      1.09516675832825
  H   -0.98197263028841      1.76889265391885      1.03057822332604
  N   -1.26476339312643     -1.37597154138420      0.27533482679494
  O   -0.65180967998123     -2.36153983723307     -0.15251965978879
  O   -2.44822483232316     -1.39814592138958      0.62440149699150
  N   1.48277504540478     -0.90855659559403     -0.74324016486558
  H   2.10309042202711     -0.56288274235024     -1.45963137757163
  H   1.04531747643737     -1.80068312122129     -0.90548955767651
  N   1.24959354948361      1.38410337042322     -0.30534717666051
  O   2.24428388798162      1.50058719562401     -1.02665332180146
  O   0.73864602160175      2.31882240791661      0.32328678158685
