14
Coordinates from ORCA-job run
  C   -0.61641692646763     -0.07608120143958      0.30583741439731
  C   0.61645559687099      0.07602471587632     -0.30579833377135
  N   -1.35512506058217      0.85455232318272      0.98905252708912
  H   -2.30975755914720      0.56334234660508      1.13582950146016
  H   -1.20784911421824      1.80800436412550      0.70406518169691
  N   -1.20100693452005     -1.40971527415775      0.37989965286599
  O   -0.54820445429452     -2.38236245250527     -0.01582709094061
  O   -2.34451597110942     -1.48768614734156      0.83872337932775
  N   1.35539894253122     -0.85469015714240     -0.98864878395425
  H   1.20836749105739     -1.80806217232725     -0.70327712412345
  H   2.30995787312074     -0.56329682427375     -1.13553955789937
  N   1.20074711764804      1.40975847097477     -0.38030309428417
  O   2.34432473028333      1.48781723547756     -0.83894050370339
  O   0.54762426882750      2.38239477294561      0.01492683183935
