14
Coordinates from ORCA-job run
  C   -0.64784783429264     -0.13939296791788      0.23323200752863
  C   0.53400906275696      0.22451304998037     -0.31838390949668
  N   -1.85288135071464      0.39542306423461     -0.11406902324654
  H   -1.81168075411433      0.90311256064487     -0.98785847114350
  H   -2.63928914385020     -0.22951724338106     -0.01096365758931
  N   -0.77160089945813     -1.06292700286221      1.37053046465482
  O   -0.32204426061149     -0.69419429833163      2.44691836781127
  O   -1.39655551951171     -2.09558416221698      1.13902353135119
  N   0.52816747268311      1.20265283562135     -1.32454951518227
  H   0.86604090957013      2.09192887292429     -0.97271678101432
  H   1.12616163750815      0.93063518250887     -2.09548988851525
  N   1.79899483096621     -0.35972509847861      0.11432397411944
  O   2.81674532987076      0.23863030968653     -0.24073459502090
  O   1.77178051919782     -1.40555510241252      0.75973749574341
