13
Coordinates from ORCA-job run
  C   -0.16755516377083      0.15208250565794      0.43356899790968
  C   1.03729413995224     -0.67242115774962     -0.05540358573275
  Cl  -0.44700012093335     -0.31182207279766      2.14645101973197
  H   1.90873460828073     -0.45794344399598      0.56819037649979
  H   0.79815489574702     -1.73389362539247      0.05564448793763
  C   -1.42712885018201     -0.13282003279747     -0.37360662812980
  H   -1.27592568799472      0.15967396324475     -1.41503875151282
  H   -1.65611508395840     -1.19936458723826     -0.32651292207733
  H   -2.26930414028103      0.42695414091372      0.03369796566900
  C   0.15916589319775      1.57838290187566      0.39763260035234
  N   0.42075563445977      2.72230938761859      0.33817907853098
  C   1.34588582049540     -0.38359980024541     -1.45377788511021
  N   1.57103805498742     -0.14653817909379     -2.58102475406848
