13
Coordinates from ORCA-job run
  C   -0.17659193799871      0.14429113388605      0.22346277846048
  C   0.75325036474104     -0.63788620834398     -0.71773537720655
  Cl  0.18027600750651     -0.34560548023704      1.91127920726771
  H   0.49784795259842     -0.38524538305690     -1.75206422404559
  H   0.56902157655969     -1.70607501072965     -0.57264749937536
  C   -1.63686488479572     -0.16738814517936     -0.08562256983707
  H   -1.87353139441711      0.13776912793612     -1.10791947527896
  H   -2.29081682550869      0.36830701788574      0.60253167926434
  H   -1.81307680921346     -1.23907446460490      0.02393266127556
  C   0.07476087723548      1.58065062317494      0.09757311375582
  N   0.24354837388041      2.73481001850336     -0.04402344157447
  C   2.16748597568610     -0.35421050588470     -0.49187882618756
  N   3.30569072372603     -0.12734272334969     -0.31988802651836
