13
Coordinates from ORCA-job run
  C   -0.17803519851415      0.16066474378654      0.42836317317888
  C   1.04974772038199     -0.64800224320694     -0.02881429013953
  Cl  -0.46916486121079     -0.27357074220274      2.14685792645267
  H   1.90896485776253     -0.40197261065969      0.60021082482935
  H   0.83169816043554     -1.71180745105484      0.10202713130457
  C   -1.42122829074074     -0.16694048566804     -0.38796481175459
  H   -1.26293573069982      0.10732988741448     -1.43326555754776
  H   -1.62904231742240     -1.23674265640771     -0.32181552157397
  H   -2.27961007535044      0.38356068468670     -0.00243727416808
  C   0.11892909044837      1.59258046047142      0.36643657949397
  N   0.35782995764915      2.74020498083159      0.28622174670776
  C   1.36956728984181     -0.38206610005143     -1.42924489020778
  N   1.60427939741896     -0.16523846793934     -2.55857503657547
