13
Coordinates from ORCA-job run
  C   -0.15066670158161      0.12751857856289      0.44357308820395
  C   1.01076093296087     -0.71942542133212     -0.10791194550440
  Cl  -0.42294182492202     -0.41263538554656      2.13508620805300
  H   1.90152092892791     -0.57031182088483      0.50761107570698
  H   0.73059969908711     -1.77479902510579     -0.04281170627787
  C   -1.43357408680825     -0.06221254341951     -0.35471825478218
  H   -2.24439334601612      0.51010289238904      0.09637858446232
  H   -1.70723458368816     -1.11917529368075     -0.35934682158286
  H   -1.28635743620480      0.27817822098923     -1.38202640427671
  C   0.23480785330303      1.53916626525735      0.47508967347624
  N   0.54294035759598      2.67303992936709      0.47044133430752
  C   1.30559637031164     -0.37585507433026     -1.49703976168399
  N   1.51894183703445     -0.09459132226578     -2.61632507010201
