17

C	-0.267975	-0.145878	-1.486477
C	0.0	0.0	0.0
Br	-2.464728	-0.70556	-1.650815
H	1.103167	0.0	0.0
N	-0.142592	1.042827	-2.151207
H	-0.406064	1.025412	-3.125644
H	-0.551363	1.800091	-1.613149
N	0.37037	-1.285191	-2.018378
H	1.341569	-1.25991	-1.707093
H	0.320641	-1.306418	-3.032107
N	-0.412571	-1.145901	0.791982
H	-1.012259	-1.75124	0.248404
H	0.41271	-1.66657	1.061977
N	-0.516212	1.275933	0.47386
H	0.157845	1.661143	1.122154
H	-1.364979	1.079385	0.990335
Cl	3.367131	0.0	0.0
