16
Coordinates from ORCA-job run
  C   0.53576707495123      0.40461425277272      0.06521847204363
  C   -0.87166018557301      0.13980690216766     -0.50015241092704
  Cl  0.84964032227063      2.19943886574789     -0.21699863420776
  H   -0.89472523102027      0.49921387690641     -1.53236831812715
  C   1.59806606537166     -0.35968069208839     -0.69906056201882
  H   2.58824762708364     -0.07515733236966     -0.33613923061853
  H   1.54419901298581     -0.12446641919043     -1.76224838927136
  H   1.44383689617203     -1.42866886740554     -0.56186194742842
  N   0.54985193852600      0.05515591297307      1.44345078931239
  H   1.49020846122067      0.06987115686920      1.81762002618172
  H   -0.03101532365878      0.67721494225465      1.99476947392920
  C   -1.86976377837011      0.90904475266038      0.27446818786589
  N   -2.68715649073910      1.44075981170453      0.93017877650361
  N   -1.11652056078095     -1.29317761162294     -0.49184854805750
  H   -1.10475330905606     -1.61885168071417      0.46820421034463
  H   -2.02522251938339     -1.49511787066538     -0.89123189552449
