16
Coordinates from ORCA-job run
  C   0.52748105377352      0.42785194320655      0.05286395755529
  C   -0.87429543341962      0.13411081911259     -0.51738303227842
  Cl  0.85481519461345      2.17600497436274     -0.22162511437964
  H   -0.85313836976123      0.28729050873554     -1.60113217592506
  C   1.58850042271049     -0.37649802890843     -0.67739700794804
  H   1.37853351034798     -1.43944449476987     -0.54921550664115
  H   2.57230482785124     -0.13883267382435     -0.26885198123906
  H   1.58952829818528     -0.14564018016979     -1.74407448879127
  N   0.48872201826596      0.14986003137135      1.47977419305924
  H   1.08901402644868     -0.63555464666089      1.69807608200824
  H   0.78729368437787      0.94601042562236      2.02481000608550
  C   -1.87519676207964      1.05518602151152      0.05568053913568
  N   -2.72824943619161      1.72343518367617      0.50868529855799
  N   -1.17389786725661     -1.26421375867806     -0.24107638276928
  H   -2.00186056466214     -1.54776675322872     -0.75125763192403
  H   -1.37055460320363     -1.35179937135869      0.75012324549401
