16
Coordinates from ORCA-job run
  C   0.59684742922875      0.17581836558480      0.01507123486653
  C   -0.91511918659391     -0.09666723266959      0.07368831126631
  Cl  0.97751495167031      0.53068356487026     -1.77532492841935
  H   -1.12578386815919     -0.30740713940193      1.12808909005965
  C   1.42606598676406     -1.03257866690680      0.39457330363241
  H   1.18446855574108     -1.31950707879689      1.42109338090155
  H   1.23972452931609     -1.86997990203807     -0.27729325213712
  H   2.48786275989783     -0.78327378386177      0.34333859836778
  N   0.86066697756935      1.27454147930164      0.85919874434478
  H   0.24108966271097      2.04556056898717      0.63969902641894
  H   1.82796226846238      1.56583388636552      0.80990189510810
  C   -1.27783111600498     -1.29438726378134     -0.70467118543654
  N   -1.62273723721977     -2.23197422506510     -1.32254996530318
  N   -1.65461282681970      1.10168010845417     -0.29289293717776
  H   -2.62447861789228      1.01136525645243     -0.01709071013430
  H   -1.62064026867097      1.22929206250551     -1.29783060635779
