16
Coordinates from ORCA-job run
  C   0.55041136108604      0.16343763385170     -0.13925983272958
  C   -0.96894354111023     -0.10485282406540     -0.10232810254443
  Cl  1.08688764056865      0.26660855580160     -1.83989687326048
  H   -1.21414111346213     -0.15802166648777      0.97453723952557
  C   1.33149866558423     -0.95179971126698      0.53836509704491
  H   1.00153417674006     -1.05487476822409      1.57758485312593
  H   1.19251165387488     -1.90677310820053      0.03014194994968
  H   2.39503534439253     -0.70631145444844      0.53300459958994
  N   0.74582690814671      1.47972543095523      0.46027097643409
  H   0.76325406394190      1.38217011063866      1.47100567618653
  H   1.63956980894956      1.85855705554067      0.17081535410205
  C   -1.28530555390831     -1.42249708084792     -0.66718101788009
  N   -1.55869395511864     -2.48427279840706     -1.08613380594753
  N   -1.68736201608386      0.93191108195749     -0.81632266857410
  H   -1.31693079877127      1.82226581412786     -0.50228748133054
  H   -2.67515264483010      0.88372772907499     -0.60131596369195
