16
Coordinates from ORCA-job run
  C   0.58948916350859      0.42653199467714      0.10122955363853
  C   -0.92531120110627      0.35297858198139     -0.19084220658764
  Cl  1.25249261478282      1.69237485016680     -1.05399813586227
  H   -1.31820991541571      1.37038133981100     -0.08825173716178
  C   1.29383904653191     -0.87905340157709     -0.20099473077030
  H   2.36253320773237     -0.78161036426921      0.00125876198331
  H   1.17275782963686     -1.13957700141553     -1.25145650643819
  H   0.88735294874821     -1.66846020153244      0.43669513357873
  N   0.77128039580035      0.79513082135635      1.46116401499787
  H   0.39783069429946      1.71740516057912      1.65287938694071
  H   1.75099537384475      0.78607990826316      1.71565767507545
  C   -1.57307874826185     -0.49025128758964      0.83340825346077
  N   -2.13630086390872     -1.21789331491878      1.56399031398289
  N   -1.19534923175936     -0.10491130188943     -1.54331494034610
  H   -2.08256161202883      0.25742899683399     -1.86613509449715
  H   -1.24575970240459     -1.11555478047684     -1.57228974199485
