10
Coordinates from ORCA-job run
  C   -0.44016184149727     -0.01844016189755     -0.06928332984990
  C   0.62179147725668     -0.75652146678793     -0.50444203424220
  H   0.46412590292210     -1.64580851153005     -1.10071040458083
  N   -0.36167345668575      1.17715765834488      0.59761020842607
  H   -1.14858766755522      1.42998464850815      1.17271127377681
  H   0.54080387350906      1.41287370070094      0.98486868511405
  C   -1.76745222911071     -0.46543707927000     -0.39219119593228
  N   -2.85867419671775     -0.83245458204360     -0.63411358266644
  C   1.94101914255185     -0.34619120901191     -0.18163144555517
  N   3.00880899532700      0.04483700298706      0.12718182550989
