10
Coordinates from ORCA-job run
  C   -0.43796545786183     -0.06592544929815      0.05355875200877
  C   0.66428138460547     -0.86209705287276      0.16748503621087
  H   0.57190831463605     -1.88069430812265      0.52097545429742
  N   -0.45788613125263      1.19740760293852     -0.47962370945825
  H   0.43878770313940      1.64912581544550     -0.58877528311355
  H   -1.20524426857655      1.80448431406207     -0.18491299338593
  C   -1.71604149624201     -0.59912167145046      0.43830055824142
  N   -2.76447318052775     -1.01906909540740      0.76706456791397
  C   1.93860318463805     -0.35288532360211     -0.19309032025963
  N   2.96902994744179      0.12877516830743     -0.50098206245511
