10
Coordinates from ORCA-job run
  C   -0.43756804210136     -0.08408780344548      0.00736720910545
  C   0.67850907359100     -0.86840103434141      0.03556523180136
  H   0.59475993909682     -1.93802285626776      0.17642181558891
  N   -0.46219124011520      1.25956472405172     -0.26511495657612
  H   0.42483279968330      1.74064471096435     -0.21985013208556
  H   -1.24642653353729      1.78215397178874      0.08977086475803
  C   -1.72072122139694     -0.70312882399398      0.19675416805757
  N   -2.77709242045715     -1.19133774251773      0.36863752146678
  C   1.95716387950018     -0.27552203962075     -0.12787615068363
  N   2.98873376573665      0.27813689338230     -0.26167557143279
