10
Coordinates from ORCA-job run
  C   -0.44109711479947     -0.04021818029884     -0.04762770144586
  C   0.62190159087520     -0.84630159006827     -0.33434535904645
  H   0.46476073978904     -1.85121275037114     -0.70380512967389
  N   -0.36652489997824      1.27756888827480      0.32329912342426
  H   -1.14360960494069      1.64980794763659      0.84428931287093
  H   0.54115518168126      1.60756793390795      0.61835360304251
  C   -1.76867220332037     -0.56386919819799     -0.21963510552449
  N   -2.86049267599195     -0.98449866127200     -0.34122214384773
  C   1.94162983921580     -0.35650585035323     -0.15752208964455
  N   3.01094914746941      0.10666146074212      0.01721548984528
