10
Coordinates from ORCA-job run
  C   -0.27359764907711      0.24622754806270      0.05557417028271
  C   1.04567544753224     -0.08999017169485      0.02306069486565
  H   1.78886277127786      0.59390748869401      0.42313939989731
  N   -0.76687344277412      1.45715044776785      0.48820095379940
  H   -0.13806561193458      2.01614890262795      1.04402085505537
  H   -1.71686160024076      1.45467601537521      0.82396107607714
  C   -1.25999780469501     -0.65778834282282     -0.47091333854988
  N   -2.09224842480429     -1.38300841673071     -0.87792794279811
  C   1.50390738996456     -1.31326103006354     -0.53053318137783
  N   1.90919892475120     -2.32406244121581     -0.97858268725176
