10
Coordinates from ORCA-job run
  C   -0.26504530513931      0.25052111671468      0.07103426633973
  C   1.04406862546684     -0.10982799801092     -0.03196773449332
  H   1.82087650572709      0.64805540596376      0.01715993036786
  N   -0.71308257217471      1.52771949881526      0.32567054944071
  H   -1.64459548163767      1.74240135868033      0.00764973640869
  H   -0.04664828031152      2.26856413022907      0.17187974445464
  C   -1.29479816636461     -0.75077682052241      0.00713121934994
  N   -2.16291926642638     -1.54240341018232     -0.05636921897249
  C   1.44891824230796     -1.46050282359775     -0.18873864559803
  N   1.81122569855233     -2.57275045808970     -0.32444984729774
