10
Coordinates from ORCA-job run
  C   -0.26320658717391      0.26253011494664      0.01753008852429
  C   1.04206807247294     -0.12611709808536      0.01953194681812
  H   1.81932040328715      0.58764651478789      0.27816710022709
  N   -0.70177888741918      1.54896801903320      0.23974185146456
  H   -1.64326079793393      1.64352723545521      0.58553927216333
  H   -0.04019516679560      2.17142372506334      0.67741535688761
  C   -1.29403785260985     -0.67992969607388     -0.32369849978008
  N   -2.16095123960247     -1.43201813768692     -0.58242652150859
  C   1.44218091234785     -1.44423711663004     -0.32001151610193
  N   1.79986114342701     -2.53279356081008     -0.59178907869439
