10
Coordinates from ORCA-job run
  C   -0.43861480774120     -0.07896891644264      0.02070152914620
  C   0.66928104949291     -0.87289247294075     -0.03947308921915
  H   0.57836258502644     -1.94836076150404      0.03614381185137
  N   -0.45990780255866      1.27884286715008     -0.17102039612245
  H   0.43354099275227      1.74867371315051     -0.13625653528138
  H   -1.22151190823043      1.78521345220163      0.25074078847938
  C   -1.72041892937886     -0.69898884888598      0.21718128656644
  N   -2.77335956897875     -1.19177529265480      0.39665828495042
  C   1.94794963300705     -0.28423571280619     -0.21645020363246
  N   2.98267875660924      0.26149197273218     -0.35822547673837
