10
Coordinates from ORCA-job run
  C   -0.42060514103655     -0.04826641355009      0.13938235882500
  C   0.65533933401914     -0.88380524427713      0.06194892613348
  H   0.55490933196496     -1.93295001323342      0.30714671385910
  N   -0.39113571330250      1.31037003695673     -0.04434232095792
  H   0.43834992746909      1.68302876161353     -0.48381518772639
  H   -1.25267388516614      1.75127538901171     -0.32224302632584
  C   -1.69210837146743     -0.59551457940347      0.52649935531335
  N   -2.74263074493893     -1.03067967916926      0.82796393418048
  C   1.91677333439391     -0.36914226868927     -0.33393607295989
  N   2.93378192806445      0.11668401074067     -0.67760468034136
