10
Coordinates from ORCA-job run
  C   -0.43221000232564     -0.07367269841713      0.08066651175001
  C   0.60141718831950     -0.86039550235385     -0.33691779443454
  H   0.42671717034266     -1.88776189427739     -0.62867066783795
  N   -0.31694040523718      1.20160122164442      0.57205466451649
  H   0.56392351703875      1.66586767394868      0.40295216335438
  H   -1.12828586461451      1.79307561750068      0.49567833918868
  C   -1.75814149196144     -0.62842070697562      0.09735505488938
  N   -2.85170126281319     -1.06180971081416      0.09932465835244
  C   1.91550393007696     -0.32751120738476     -0.37940781535096
  N   2.97971722117408      0.17802720712913     -0.40203511442793
