10
Coordinates from ORCA-job run
  C   -0.41127235566348     -0.05618814951403      0.13731020799941
  C   0.68974627981919     -0.86446860361580      0.13805088218148
  H   0.61925725992535     -1.88472880791176      0.49065017749295
  N   -0.44327465368717      1.24019309582312     -0.27768120051449
  H   0.34082446764475      1.61574120457297     -0.78698932804020
  H   -1.31403969517550      1.73797801251101     -0.31576617193335
  C   -1.65048068853106     -0.57936088733896      0.64547852452028
  N   -2.68168534213718     -0.98772083542236      1.03592351699465
  C   1.93003781006982     -0.35444684754297     -0.32851179216125
  N   2.92188691773531      0.13300181843878     -0.73846481653949
