10
Coordinates from ORCA-job run
  C   -0.43366894986324     -0.05606012305488      0.08491792444103
  C   0.55789729056059     -0.86936662633032     -0.38094599532828
  H   0.33409886124630     -1.87798385867577     -0.70273406102252
  N   -0.25658687027420      1.19567738874122      0.61587606124625
  H   0.63908900425127      1.63034538145916      0.44654099045763
  H   -1.04502100742241      1.82099525382142      0.58109125429716
  C   -1.78015173843935     -0.55859385109246      0.11291884650027
  N   -2.88881522521452     -0.95143327766719      0.12822280403857
  C   1.89327960993767     -0.39273655390634     -0.43083512237036
  N   2.98087902521789      0.06015626670515     -0.45505270225976
