10
Coordinates from ORCA-job run
  C   -0.26387952833674      0.22792692211348      0.13002092730187
  C   1.01431447254842     -0.24186372755595      0.12432453039953
  H   1.78793278606513      0.28406178804772      0.67653209998866
  N   -0.70442092847949      1.30359475142059      0.86887185053556
  H   0.01158506466235      1.92304464780670      1.21562869778222
  H   -1.51990727420213      1.77883809147358      0.51639986091269
  C   -1.28852773795960     -0.46540957568083     -0.60267205074121
  N   -2.14593240478137     -1.00010335222323     -1.20534350487524
  C   1.38637414352716     -1.41913643341433     -0.57456630062474
  N   1.72246140695626     -2.38995311198773     -1.15019611067934
