10
Coordinates from ORCA-job run
  C   -0.39577263395107     -0.06072671190893      0.19531547435849
  C   0.66078777302037     -0.87771746032682     -0.08363992100781
  H   0.59968133405589     -1.94010782899358      0.11277945230158
  N   -0.39802901992112      1.30658443443289      0.08998240201672
  H   0.35883072057780      1.71421023073275     -0.44016684605214
  H   -1.29223038770196      1.75142128381918     -0.03855293427803
  C   -1.59722749420555     -0.64468730704641      0.72588595724550
  N   -2.59486009762869     -1.10777838868245      1.14288917141133
  C   1.85097001257583     -0.32718103621392     -0.62540562312417
  N   2.80884979317850      0.18698278418730     -1.08008713287147
