10
Coordinates from ORCA-job run
  C   -0.43312149398097     -0.07710600167911     -0.07249548736254
  C   0.67308457413852     -0.87077158277570      0.01938755208118
  H   0.57926110795072     -1.94834692307196     -0.01297478044396
  N   -0.42993912257947      1.29208934569806     -0.14847080459793
  H   -1.26584871607431      1.76682550405225      0.15148404412382
  H   0.43339654053164      1.75073475508290      0.10517239715324
  C   -1.72148163926813     -0.70414716165940     -0.18795586054540
  N   -2.78201902071270     -1.20653633443559     -0.26777290473650
  C   1.95521493904343     -0.27745482610013      0.15079968599379
  N   2.99045283095127      0.27371322488870      0.26482615833430
