10
Coordinates from ORCA-job run
  C   -0.26231078985027      0.22437212048782      0.13939366024081
  C   1.00476899239925     -0.00502268084181     -0.30393899499147
  H   1.68323739422467      0.82874553620419     -0.46101228584112
  N   -0.75885220377004      1.45736994348169      0.50038919310699
  H   -1.75828093924646      1.56854685217868      0.43752805751491
  H   -0.23746803160781      2.25543595376151      0.17183105310514
  C   -1.16213176394564     -0.87752648044792      0.34830025002268
  N   -1.92718635893164     -1.75613158963811      0.51269679150445
  C   1.49449754540591     -1.31181010295742     -0.55984005111568
  N   1.92372615532203     -2.38497955222865     -0.78534767354670
