10
Coordinates from ORCA-job run
  C   -0.28348260067908      0.20042700822279      0.13434684438452
  C   1.01917951324546     -0.19568284866955      0.15643745582596
  H   1.73237182374311      0.32279402634816      0.79106714771373
  N   -0.82100680913644      1.18310081846008      0.93617093080554
  H   -1.64550492564380      1.64145272301895      0.58219056717617
  H   -0.15927666152358      1.80953387533112      1.36801595175544
  C   -1.22988259019819     -0.48354340313065     -0.70475013280379
  N   -2.02440597496239     -1.01202463220903     -1.39301110541989
  C   1.49508406092903     -1.28525441738543     -0.61755448315230
  N   1.91692416422587     -2.18180314998643     -1.25391317628539
