10
Coordinates from ORCA-job run
  C   -0.43533435829028     -0.09149524208289      0.02558416652969
  C   0.69706005294200     -0.85259121648823      0.01938387478109
  H   0.63947828195731     -1.92308857802771      0.16692836600505
  N   -0.49759052241021      1.24951390725960     -0.25453117231950
  H   -1.27762051290150      1.75864146372927      0.12796302223357
  H   0.38067136637950      1.74811479855273     -0.24549132834781
  C   -1.69812687168037     -0.73711164539249      0.25930752031193
  N   -2.73658915175963     -1.24984283450712      0.46542296927568
  C   1.95667584659549     -0.23601634252528     -0.19477965989950
  N   2.97237586916768      0.33487568948212     -0.37078775857021
