10
Coordinates from ORCA-job run
  C   -0.44238133511236     -0.05329455321245      0.01589224220846
  C   0.60916701553029     -0.89710063228866     -0.19321328493738
  H   0.43812746781874     -1.93338474343077     -0.45369137080626
  N   -0.35080299457568      1.24429635822215      0.45041607230248
  H   -1.11603921486403      1.85630468792331      0.21849104299920
  H   0.56396352262526      1.66894788026063      0.39553118870762
  C   -1.77701826083749     -0.56256532072716     -0.14372378902648
  N   -2.87441914511006     -0.96111486652584     -0.28737513465262
  C   1.93606641629625     -0.41294574935995     -0.05947685080084
  N   3.01333652822908      0.04985693913870      0.05814988400583
