14

C	-0.319622	-0.065348	-1.461933
C	0.0	0.0	0.0
F	-1.687005	-0.340147	-1.697637
H	1.091596	0.0	0.0
H	-0.124802	0.911212	-1.90727
H	-0.387763	-0.85823	0.548686
C	0.543925	-1.128838	-2.100082
H	0.240156	-2.117084	-1.741802
H	0.460442	-1.110352	-3.188409
H	1.569103	-0.935751	-1.772749
N	-0.529094	1.199221	0.661985
O	-0.534907	2.265376	0.042659
O	-0.903834	1.090105	1.832903
F	2.60912	0.0	0.0
