14

C	-0.282587	-0.011899	-1.481885
C	0.0	0.0	0.0
F	-1.650558	-0.203876	-1.773629
H	1.090028	0.0	0.0
H	-0.044621	1.005736	-1.812958
H	-0.429881	0.866274	0.498986
C	0.575196	-0.986723	-2.257468
H	0.24052	-2.008347	-2.089835
H	1.58809	-0.868796	-1.859701
H	0.545699	-0.760859	-3.326684
N	-0.506733	-1.173289	0.723166
O	-1.052649	-0.981598	1.815453
O	-0.339074	-2.293772	0.237692
F	2.610552	0.0	0.0
