16

C	0.0	0.0	0.0
C	-0.709846	0.03922	-1.31543
Br	1.929912	0.0	0.0
H	-0.673637	-0.934806	-1.801959
H	-1.843386	0.184944	-0.935495
N	-0.390301	1.233609	0.849379
O	-1.030671	2.127013	0.31991
O	-0.023085	1.219204	2.022004
C	-0.481716	-1.21942	0.773913
H	-0.06028	-1.213073	1.777438
H	-1.575181	-1.138089	0.782702
H	-0.160731	-2.122065	0.250401
N	-0.255311	1.014286	-2.309674
O	0.448897	1.965415	-1.973188
O	-0.641417	0.823938	-3.466861
F	-2.916951	0.0	0.0
