16

C	0.0	0.0	0.0
C	-0.263699	0.222595	-1.495178
Br	1.952602	0.0	0.0
H	0.296582	-0.544071	-2.028098
H	0.097927	1.21048	-1.768953
N	-0.447143	1.180642	0.831855
O	-0.535305	2.263852	0.266471
O	-0.580109	0.986934	2.033145
C	-0.437555	-1.321084	0.586048
H	-0.03275	-1.432529	1.591517
H	-1.53426	-1.246207	0.569144
H	-0.064033	-2.124673	-0.052367
N	-1.641929	0.122695	-2.079436
O	-1.992503	-0.998207	-2.44344
O	-2.194107	1.175112	-2.373369
F	-2.542615	0.0	0.0
