16

C	0.0	0.0	0.0
C	-0.619864	-0.015976	-1.380792
Br	1.931429	0.0	0.0
H	-0.378423	0.886635	-1.929719
H	-1.735504	-0.091055	-1.099136
N	-0.380748	1.367672	0.608289
O	-0.516192	2.315082	-0.156371
O	-0.460944	1.431946	1.8265
C	-0.481703	-1.089829	0.931135
H	-1.574621	-0.988485	0.917674
H	-0.063712	-0.941699	1.925314
H	-0.170804	-2.054086	0.535099
N	-0.16996	-1.139051	-2.21906
O	-0.242639	-2.288586	-1.781205
O	0.216693	-0.865794	-3.360883
F	-2.83644	0.0	0.0
