16

C	0.0	0.0	0.0
C	-0.64508	-0.019974	-1.365115
Br	1.943662	0.0	0.0
H	-0.441237	0.887775	-1.921174
H	-1.770386	-0.085152	-1.044959
N	-0.361479	1.377585	0.597447
O	-0.409355	2.333066	-0.169402
O	-0.509726	1.443769	1.808879
C	-0.474908	-1.076848	0.951092
H	-0.047111	-0.92085	1.939535
H	-0.170887	-2.043968	0.559195
H	-1.565865	-0.973539	0.953413
N	-0.252011	-1.135859	-2.231562
O	-0.271757	-0.914392	-3.446733
O	0.017992	-2.23632	-1.745396
F	-2.847752	0.0	0.0
