16

C	0.0	0.0	0.0
C	-0.520495	0.328784	-1.405922
Br	1.950044	0.0	0.0
H	0.306867	0.560409	-2.084348
H	-1.210617	1.155449	-1.339585
N	-0.377255	1.176682	0.905023
O	-0.518399	0.955828	2.098001
O	-0.39934	2.288777	0.388208
C	-0.379107	-1.30991	0.66951
H	0.038644	-1.312859	1.675189
H	-1.470362	-1.316286	0.679134
H	0.036506	-2.136597	0.100025
N	-1.284425	-0.733434	-2.121261
O	-2.1083	-0.321084	-2.931059
O	-0.964339	-1.911161	-1.993272
F	-2.511498	0.0	0.0
