16

C	0.0	0.0	0.0
C	-0.672121	0.073712	-1.340354
Br	1.930464	0.0	0.0
H	-1.783792	0.237529	-1.012775
H	-0.624245	-0.897958	-1.830267
N	-0.411406	1.196382	0.877432
O	-0.942789	2.156542	0.339846
O	-0.149576	1.102939	2.073119
C	-0.47793	-1.258525	0.705739
H	-0.129533	-2.130983	0.14908
H	-1.572963	-1.183628	0.693695
H	-0.077874	-1.292166	1.716942
N	-0.164986	1.042037	-2.324145
O	-0.478256	0.822138	-3.497822
O	0.505102	2.006507	-1.960763
F	-2.870133	0.0	0.0
