14

C	-0.468911	-0.044907	-1.415354
C	0.0	0.0	0.0
Br	-2.629386	-0.158099	-1.392774
H	1.092051	0.0	0.0
H	-0.353832	0.913029	0.479958
N	-0.072323	1.100065	-2.102424
H	-0.438093	1.156783	-3.041541
H	-0.231425	1.947991	-1.578778
C	-0.130305	-1.230169	-2.198694
N	0.156045	-2.08921	-2.947689
N	-0.467143	-1.111413	0.817529
O	-0.547717	-2.226414	0.299262
O	-0.689316	-0.877843	2.007625
F	2.474372	0.0	0.0
