14

C	-0.511556	0.05869	-1.42489
C	0.0	0.0	0.0
Br	0.014775	-1.707164	-2.323053
H	1.087419	0.0	0.0
H	-0.358344	0.901073	0.511816
N	-1.892539	0.346891	-1.574078
H	-2.172369	0.319149	-2.546705
H	-2.422606	-0.321001	-1.028413
C	0.268169	1.062239	-2.153504
N	0.802303	1.928435	-2.74028
N	-0.567921	-1.137149	0.761784
O	0.130871	-1.634649	1.636672
O	-1.728942	-1.505537	0.523321
F	2.530874	0.0	0.0
