14

C	-0.554146	-0.012031	-1.411271
C	0.0	0.0	0.0
Br	0.35573	-1.304067	-2.589173
H	1.088083	0.0	0.0
H	-0.37998	0.895659	0.498062
N	-1.962587	-0.346903	-1.430779
H	-2.343701	-0.230994	-2.361846
H	-2.454118	0.261892	-0.784921
C	-0.282233	1.307365	-2.011372
N	-0.186737	2.393122	-2.453952
N	-0.546053	-1.134043	0.760932
O	-1.311249	-0.87758	1.701074
O	-0.206785	-2.268347	0.438022
F	2.517047	0.0	0.0
