14

C	-0.15184	-0.049685	-1.531083
C	0.0	0.0	0.0
Br	-0.10061	1.879678	-2.083817
H	1.091439	0.0	0.0
H	-0.480925	0.832492	0.50352
N	0.940979	-0.720326	-2.178602
H	1.770956	-0.505628	-1.592834
H	0.762245	-1.718472	-2.095222
C	-1.446656	-0.541661	-2.012159
N	-2.498846	-0.915441	-2.380342
N	-0.455113	-1.244215	0.633448
O	-0.420578	-2.291041	-0.020913
O	-0.797963	-1.182966	1.813933
F	2.580812	0.0	0.0
