14

C	-0.152397	-0.0559	-1.532041
C	0.0	0.0	0.0
Br	-0.129973	1.874083	-2.087515
H	1.09145	0.0	0.0
H	-0.484474	0.830198	0.500733
N	0.948171	-0.710895	-2.174232
H	1.776973	-0.502698	-1.583608
H	0.772556	-1.709079	-2.118008
C	-1.44009	-0.563725	-2.011323
N	-2.475008	-0.963917	-2.398285
N	-0.448876	-1.245732	0.634801
O	-0.411885	-2.290968	-0.022535
O	-0.789929	-1.185361	1.816851
F	2.585333	0.0	0.0
