14

C	-0.543433	-0.034739	-1.428676
C	0.0	0.0	0.0
Br	-0.128431	-1.799688	-2.219332
H	1.088055	0.0	0.0
H	-0.388937	0.921609	0.447888
N	-1.961798	0.201878	-1.63729
H	-2.137976	1.182991	-1.440795
H	-2.45921	-0.337645	-0.93414
C	0.20192	0.961766	-2.20448
N	0.697796	1.823679	-2.829801
N	-0.601224	-1.09881	0.790122
O	-1.813073	-1.013565	1.055939
O	0.107481	-2.035306	1.142404
F	2.539719	0.0	0.0
