14

C	-0.153049	0.201193	-1.514475
C	0.0	0.0	0.0
Br	-1.883862	1.226043	-1.989402
H	1.091114	0.0	0.0
H	-0.488358	-0.896329	0.366849
N	0.985106	0.850828	-2.012729
H	1.805665	0.658662	-1.388408
H	1.158418	0.666275	-2.989631
C	-0.430061	-1.10174	-2.13892
N	-0.58208	-2.14595	-2.659715
N	-0.458121	1.133055	0.812389
O	-0.098406	2.260973	0.4889
O	-1.13896	0.869266	1.808078
F	2.615172	0.0	0.0
