14

C	-0.155241	0.210109	-1.512995
C	0.0	0.0	0.0
Br	-1.881921	1.249272	-1.98087
H	1.09119	0.0	0.0
H	-0.487122	-0.898614	0.363017
N	0.984913	0.855843	-2.008758
H	1.806597	0.659437	-1.387433
H	1.152677	0.687298	-2.990064
C	-0.445402	-1.086413	-2.144123
N	-0.617846	-2.122279	-2.67458
N	-0.456142	1.127924	0.820675
O	-0.106036	2.258784	0.498246
O	-1.126418	0.857107	1.821797
F	2.614581	0.0	0.0
