16

C	0.0	0.0	0.0
C	-0.325441	0.08293	-1.533108
Br	1.950798	0.0	0.0
H	-0.066929	-0.896472	-1.94652
H	0.406881	0.793253	-1.930307
C	-0.608993	1.109678	0.80533
H	-1.699551	0.927618	0.727209
H	-0.271217	1.090203	1.840584
H	-0.342488	2.06598	0.347235
N	-0.409874	-1.339368	0.602248
O	-0.580826	-2.287303	-0.155483
O	-0.491315	-1.393311	1.825074
N	-1.639391	0.486895	-1.95276
H	-2.362413	0.118184	-1.275445
H	-1.707985	1.492215	-1.83294
F	-3.162348	0.0	0.0
