16

C	0.0	0.0	0.0
C	-0.322387	0.069448	-1.533873
Br	1.950962	0.0	0.0
H	0.400454	0.787756	-1.933478
H	-0.048886	-0.908498	-1.940082
C	-0.612383	1.116154	0.793613
H	-0.281014	1.102655	1.831132
H	-0.34334	2.069208	0.330537
H	-1.702712	0.932886	0.713508
N	-0.410857	-1.333818	0.612421
O	-0.502891	-1.374329	1.83493
O	-0.571709	-2.289864	-0.137134
N	-1.642155	0.449999	-1.956971
H	-2.362275	0.086311	-1.273832
H	-1.724458	1.456298	-1.856103
F	-3.171041	0.0	0.0
