16

C	0.0	0.0	0.0
C	-0.551682	0.21961	-1.396257
Br	1.954644	0.0	0.0
H	-0.328703	1.266517	-1.628803
H	-1.642922	0.112283	-1.2126
C	-0.540431	1.031039	0.961094
H	-0.182315	0.846608	1.97298
H	-1.637861	0.906221	0.86804
H	-0.214199	2.021681	0.635309
N	-0.389056	-1.385057	0.515964
O	-0.355052	-1.565623	1.728295
O	-0.66064	-2.25248	-0.30893
N	0.039363	-0.613325	-2.449626
H	-0.414152	-1.515944	-2.406084
H	-0.212256	-0.196707	-3.337421
F	-2.925252	0.0	0.0
