16

C	0.0	0.0	0.0
C	-0.528168	-0.274923	-1.415095
Br	1.951657	0.0	0.0
H	-0.336029	0.647901	-1.973013
H	-1.616881	-0.343308	-1.223054
C	-0.526557	1.309045	0.531222
H	-0.172811	1.497693	1.543626
H	-1.625447	1.159351	0.483328
H	-0.196192	2.113708	-0.1302
N	-0.392797	-1.114852	0.96472
O	-0.608164	-2.230884	0.500667
O	-0.413825	-0.845341	2.160231
N	-0.015033	-1.396327	-2.182231
H	0.998215	-1.36385	-2.197531
H	-0.278973	-2.242274	-1.697305
F	-2.870458	0.0	0.0
