16

C	0.0	0.0	0.0
C	-0.555975	0.070515	-1.412309
Br	1.943146	0.0	0.0
H	-0.352224	1.093465	-1.747558
H	-1.644444	-0.036325	-1.221293
C	-0.548369	1.126252	0.842108
H	-1.645199	0.987853	0.757132
H	-0.22349	2.076594	0.411402
H	-0.196973	1.052728	1.869575
N	-0.391176	-1.324308	0.65668
O	-0.610781	-2.284834	-0.074905
O	-0.405234	-1.368667	1.880652
N	0.053078	-0.845583	-2.383163
H	-0.2824	-0.566882	-3.298134
H	-0.322536	-1.766147	-2.197081
F	-2.931013	0.0	0.0
