13
Coordinates from ORCA-job run
  C   -0.64326049269723      0.02665443327673     -0.52476987731477
  C   0.85261663946248     -0.23275165589108     -0.50247974988615
  F   -1.07618614205746      0.19501619682661     -1.80526718085773
  H   1.31289500875289      0.61660336421566     -1.01009673272491
  H   1.03766971343062     -1.13361413025716     -1.10039319933258
  C   -1.40093548207684     -1.04524881457578      0.12569900149036
  N   -1.94415501616700     -1.97771663840894      0.58882585544059
  N   -0.90708130894133      1.34323638898131      0.20561916177340
  O   -0.35535357689362      2.31498465926994     -0.29257774645728
  O   -1.62704462454728      1.32082054738769      1.19366471326232
  N   1.27478094519048     -0.29569517775532      0.88177197666653
  H   2.18839510167095      0.11194390370153      1.01146028634806
  H   1.28865923487333     -1.24423307677119      1.22954349159217
