13
Coordinates from ORCA-job run
  C   -0.55343466521467      0.10305029635384     -0.27283201422077
  C   0.88380010253340      0.12618789290887      0.21055919436746
  F   -0.57398111732598      0.13932502872059     -1.64087618482323
  H   1.33885376007371      1.04781404363025     -0.16486709159031
  H   0.87447817577112      0.17545359283868      1.30200273638756
  C   -1.28464524622687     -1.07287155327931      0.20333961864493
  N   -1.84580584485818     -2.01580045013714      0.62012540819698
  N   -1.31542441710381      1.35683774379144      0.16574851257650
  O   -0.64211295201481      2.36725998025153      0.34108688767665
  O   -2.53451907802786      1.26366790175758      0.23939337551719
  N   1.50928113617737     -1.10625513377355     -0.23336915193279
  H   2.25066596668419     -1.38400619978667      0.39256523519091
  H   1.89084417953238     -1.00266314327609     -1.16287652599109
