13
Coordinates from ORCA-job run
  C   -0.63486433568005     -0.14825924469180     -0.33217766028700
  C   0.75264282875405     -0.56910873095166      0.12177596515733
  F   -0.64281502091348      0.05564198065296     -1.67308451063829
  H   0.71060344085104     -0.74386088368753      1.19719441912384
  H   0.97320456055368     -1.52315203544563     -0.37649316016638
  C   -1.67755134668999     -1.10980083977147      0.03564186177587
  N   -2.47651681720664     -1.91693932119929      0.33479287265631
  N   -0.96619775685752      1.18307517945170      0.34832428431756
  O   -1.13724554645325      2.15359324007660     -0.36486903492030
  O   -1.00937947695007      1.12091258142988      1.56910591760216
  N   1.66300780672715      0.51863011331693     -0.16919233577237
  H   2.46819121411694      0.49027041970688      0.43897772201637
  H   1.97692044974817      0.48899754111245     -1.12899634086512
