13
Coordinates from ORCA-job run
  C   -0.64784884006890      0.02917823458294     -0.52416080625252
  C   0.85992112253586     -0.15015197431093     -0.52157376854499
  F   -1.09519974725389      0.26905998877050     -1.78864466441042
  H   1.09046757554874     -0.99436738675171     -1.18279705479660
  H   1.27174922608677      0.75712707076197     -0.96655972906442
  C   -1.34177462400085     -1.12744744992898      0.04693147720630
  N   -1.80909565978515     -2.11552009100039      0.47628633202953
  N   -0.97989322691194      1.27265432813493      0.30107070689441
  O   -0.47119453582145      2.30423050739621     -0.11616136282223
  O   -1.70794430675546      1.14267653089049      1.27474560197134
  N   1.29016457384145     -0.29052835206453      0.85461203853511
  H   2.17685843873868      0.16275854221335      1.01578440443484
  H   1.36379000384616     -1.25966994869389      1.13046682481962
