13
Coordinates from ORCA-job run
  C   -0.62051855224792     -0.15384927063591     -0.35551608122374
  C   0.75932659599581     -0.55638279690661      0.13705203496903
  F   -0.58792890085108      0.07495085353329     -1.69211055741996
  H   1.01446786041715     -1.49760336900013     -0.36919711014097
  H   0.68480825216801     -0.75082756493027      1.20735444699537
  C   -1.65534920475329     -1.14242336506943     -0.04090977406339
  N   -2.44623249567981     -1.97308884044963      0.21175564228529
  N   -1.00054776636109      1.15788164374618      0.33728545929287
  O   -1.16535318216265      2.13851361014075     -0.36336491691831
  O   -1.08454990803261      1.07161245783444      1.55458438556906
  N   1.65718308101346      0.55321802528311     -0.10449179921947
  H   2.44165182707649      0.53113604443908      0.53018700884615
  H   2.00304239341753      0.54786257201514     -1.05362873897196
