13
Coordinates from ORCA-job run
  C   -0.47820118115214      0.08588958102426     -0.35632557105121
  C   0.91608829179216      0.20168318658870      0.27178365839943
  F   -0.36306421883791     -0.11910604349341     -1.69272194086234
  H   1.39830136244494      1.05397786363181     -0.21807973700688
  H   0.79404988727670      0.43755915302551      1.33047943721897
  C   -1.27407537063512     -0.98673308471695      0.24301229489073
  N   -1.85032763377342     -1.88020006305136      0.74208873731516
  N   -1.20951184875820      1.40708839081362     -0.13834783323584
  O   -1.32203933286071      2.14986981400573     -1.09995044803906
  O   -1.55213920739934      1.61239320372783      1.01978075789272
  N   1.73479502257118     -0.97172113522401      0.11551574305559
  H   1.83042682575920     -1.23068852232806     -0.85680256086523
  H   1.37469740357268     -1.75901234400364      0.63856746228798
