13
Coordinates from ORCA-job run
  C   -0.54527444929035      0.06387508286174     -0.35248117852460
  C   0.85431170886899      0.08770593103961      0.24235833037217
  F   -0.47215927776996     -0.17542155400564     -1.68455433641622
  H   1.38454681840861      0.92082845069254     -0.24179357699866
  H   0.76216379255003      0.30988115816105      1.30623379205793
  C   -1.42663077012482     -0.91464419407164      0.28639553238096
  N   -2.12961045970527     -1.69520935735804      0.81063259173531
  N   -1.16245829534880      1.45177751721360     -0.15836238929495
  O   -1.38812864815790      1.74751531065222      1.00850707971642
  O   -1.32229787104529      2.14133392032472     -1.15218427496466
  N   1.44158443232953     -1.22037783725850      0.04762648241540
  H   2.13718252664401     -1.41789536918759      0.75175289194488
  H   1.86677049264124     -1.29936905906413     -0.86513094442397
