13
Coordinates from ORCA-job run
  C   -0.55400066407926     -0.07507364543992     -0.42908211974819
  C   0.71678008899394     -0.74534004101993      0.10770348216203
  F   -0.35183341506775      0.34213436824498     -1.70393932176850
  H   0.90315986869874     -1.60317850784101     -0.54516992071662
  H   0.50685875249028     -1.12008853236230      1.11078247391208
  C   -1.73688249119786     -0.93219424818991     -0.35803243249619
  N   -2.64663217126100     -1.67455460334504     -0.32224157227419
  N   -0.81134033138988      1.16189518441993      0.42846045925689
  O   -0.62472182594896      2.25318122250367     -0.08456739382998
  O   -1.12647316131917      0.91803929815804      1.58654470527530
  N   1.87504695069649      0.10869507919065      0.13204903722024
  H   2.03841161644672      0.54399261079841     -0.76564403907400
  H   1.81362678293775      0.82249181488241      0.84513664208108
