13
Coordinates from ORCA-job run
  C   -0.65101145453898      0.03421869985317     -0.51802576944517
  C   0.85680486723333     -0.14053267628292     -0.53005848631995
  F   -1.11050637968384      0.28187117393484     -1.77642113925740
  H   1.26222559664278      0.77438679939116     -0.96522654191475
  H   1.08530084947189     -0.97528364159905     -1.20421444834284
  C   -1.33556462112853     -1.12955371241463      0.05058797993591
  N   -1.79140546762197     -2.12444038598653      0.47659130538108
  N   -0.98005731877542      1.27001040738610      0.31996288610699
  O   -0.48628589752453      2.30806793936261     -0.09881644257490
  O   -1.69718708788277      1.12888318953721      1.30016434881588
  N   1.29857165495336     -0.29289833710769      0.84160662051598
  H   1.34634209380717     -1.26469419270988      1.11509967625216
  H   2.20277316504756      0.12996473663561      0.98875001084702
