13
Coordinates from ORCA-job run
  C   -0.61704900011209      0.01552165304517     -0.54769840910508
  C   0.89208158439259     -0.18496938942102     -0.45738972479029
  F   -0.97108078437723      0.18888601541209     -1.84368387164469
  H   1.11885756031623     -0.96022446814511     -1.19378505130832
  H   1.34971464300019      0.75219726006630     -0.81002429136565
  C   -1.38972616634042     -1.07521589507372      0.04814388738628
  N   -2.02584245041913     -1.96944430985177      0.46556390949862
  N   -0.97834748258532      1.30890017685669      0.19526841102076
  O   -0.86052819889911      1.25428341976936      1.41375595020937
  O   -1.28537677623680      2.27529349046048     -0.48230500811111
  N   1.28330210918374     -0.64646792494341      0.85482122724098
  H   2.20389241828530     -1.06089515832734      0.82525634076134
  H   1.28110254379204      0.10413513015228      1.53107663020781
