13
Coordinates from ORCA-job run
  C   -0.58416227634232     -0.00348771327598     -0.43969360539493
  C   0.68558003117002     -0.65454013648499      0.08171798281691
  F   -0.37135178031837      0.50193724930300     -1.68033431113641
  H   0.46645890929537     -1.06423686436514      1.06815693964039
  H   0.91668816016069     -1.48770762465897     -0.59634265460328
  C   -1.73218571586847     -0.91381330665608     -0.45940394426610
  N   -2.61932493500400     -1.68304785906903     -0.47743111730631
  N   -0.92739344883237      1.16294782418231      0.49129463613798
  O   -0.92009718707441      2.28353183370841      0.01789665836547
  O   -1.16372353521479      0.82677724315566      1.64351104865489
  N   1.69971864083806      0.37364022602750      0.18668530793217
  H   2.40253989978134      0.12138978618975      0.86592749943522
  H   2.14925323740924      0.53860934194354     -0.70298444027598
