13
Coordinates from ORCA-job run
  C   -0.52308310314473      0.05559802479280     -0.38657144650357
  C   0.82052286169198      0.13809040548109      0.32119452472199
  F   -0.33128247981622     -0.00131628207082     -1.72719935217641
  H   0.63035058802346      0.20955106492894      1.39283549364060
  H   1.29128439363596      1.07491624884426     -0.01114016865127
  C   -1.33701643162411     -1.07841078159780      0.05398278248951
  N   -1.98297047009987     -1.98406394611732      0.42927458790450
  N   -1.29739710478223      1.34009042810719     -0.07784671371958
  O   -1.46224894213242      2.13206739368952     -0.99124373959735
  O   -1.63288171791096      1.46046520284010      1.09388904610444
  N   1.55675432686431     -1.07007655690896      0.01780054445252
  H   2.22108543268159     -1.28664356733269      0.74610906285587
  H   2.04788264661325     -0.98926763465630     -0.86108462152124
