13
Coordinates from ORCA-job run
  C   -0.51379230266730     -0.02721949564346     -0.31425665197162
  C   0.93321754275674      0.26937476238441      0.09848470109667
  F   -0.52778325837274     -0.64755692157689     -1.52112737045504
  H   1.34331823753900      0.91674602095130     -0.68360001183044
  H   0.91206803303861      0.83134130655585      1.03398948993360
  C   -1.21963869374583     -0.84660298714530      0.67232988065981
  N   -1.71535351232199     -1.53386072488844      1.48564406152602
  N   -1.25045220402214      1.30149128989093     -0.45308157376721
  O   -1.48582545190683      1.86484741625179      0.60904074385265
  O   -1.47191719946040      1.70308886953735     -1.58392652515181
  N   1.75992073860571     -0.90014150390204      0.24018775026502
  H   1.76435411861508     -1.45603526640491     -0.60393179474090
  H   1.47288395194211     -1.47647276601057      1.02024730058326
