13
Coordinates from ORCA-job run
  C   -0.57040435951183     -0.08353111317020     -0.17539370199452
  C   0.93404255780042      0.21397032347637     -0.18810509494615
  F   -0.85420385077017     -1.04951042243910     -1.08501561062695
  H   1.16716588488053      0.54769150058409     -1.20456826691051
  H   1.12313936697284      1.04204398230834      0.49741102896627
  C   -1.04854146722879     -0.49264491916376      1.14649027486303
  N   -1.36036780584330     -0.86051747740736      2.21745879730613
  N   -1.31001650761880      1.18701888059096     -0.58295997883744
  O   -1.77320637034679      1.22775821755284     -1.71119652698126
  O   -1.29942412542637      2.07352405239875      0.26255585299163
  N   1.76299345590222     -0.91215822477281      0.15248213591011
  H   1.57819890471856     -1.70412479647913     -0.44769487463258
  H   1.64962431647149     -1.18952000347900      1.11853596489221
