13
Coordinates from ORCA-job run
  C   -0.63980989001230     -0.00489494991571     -0.51020640908909
  C   0.86309368163530     -0.19184968417207     -0.53251505823619
  F   -1.11873960066242      0.26334603963719     -1.76137255116215
  H   1.06252078329230     -1.09028030008458     -1.12180017311816
  H   1.29160644054638      0.66461471021465     -1.05942053916778
  C   -1.33722853004775     -1.16170243725041      0.05532656427396
  N   -1.85383338994053     -2.14122632964352      0.44501779784858
  N   -0.99026413433310      1.22946734043176      0.32555976009874
  O   -2.09487935222763      1.24449720539914      0.85300767387742
  O   -0.16083220975161      2.13232361969255      0.32588805934285
  N   1.30316767368249     -0.34291612824466      0.84048685270004
  H   1.72300978898837      0.50695225745909      1.18733869498674
  H   1.95118873883048     -1.10733134352343      0.95068932764509
