13
Coordinates from ORCA-job run
  C   -0.56437419458261     -0.08371507026871     -0.41549504964181
  C   0.74426934140735     -0.72327914465303      0.06402852611027
  F   -0.41667410000298      0.37322284961210     -1.68406674306670
  H   0.57880676333639     -1.13044775462651      1.06273008139861
  H   0.93920848890921     -1.55729902834313     -0.61659621589964
  C   -1.71530860606178     -0.98222477354454     -0.33052033138743
  N   -2.59939178485461     -1.75371215295075     -0.27300727790648
  N   -0.83672957071021      1.12148299034127      0.48253846370769
  O   -1.09461259155889      0.83742246771719      1.64556338942033
  O   -0.70817100636550      2.23131044293853     -0.00795284247272
  N   1.87299348584823      0.16995887206277      0.07582421789537
  H   1.80968790522354      0.86179813610263      0.81008735713979
  H   1.99229586941186      0.63448216561218     -0.81413357529727
