13
Coordinates from ORCA-job run
  C   -0.52905211811516     -0.13105124234606     -0.44713066649208
  C   0.72793222200279     -0.70918964339209      0.21458116931235
  F   -0.26989718786661      0.17193362192359     -1.74360619522787
  H   0.97067151192335     -1.61839917520118     -0.34330549699535
  H   0.47456614470867     -0.99468288349127      1.23680549145154
  C   -1.69162846565971     -1.01387133461597     -0.35577592265176
  N   -2.57835821949704     -1.78236424581970     -0.29923359491620
  N   -0.86443729368842      1.17172585714713      0.27560840459687
  O   -0.67834967763161      2.21600259205608     -0.32756199872126
  O   -1.22725889191110      1.02695504260304      1.43636145115719
  N   1.86118746698436      0.17820551445438      0.21577572825273
  H   1.74180921876580      0.95601791566858      0.85027342796905
  H   2.06281528998464      0.52871798101348     -0.71079179773522
