13
Coordinates from ORCA-job run
  C   -0.52584681108486     -0.13420381180751     -0.44951997456562
  C   0.72954324923702     -0.70622757949099      0.21994665126410
  F   -0.26110725873326      0.16731953791827     -1.74513817493760
  H   0.97945148946842     -1.61522238120024     -0.33514243610859
  H   0.47165420199301     -0.99110151462500      1.24118339551386
  C   -1.68603381131199     -1.02087084072268     -0.36334440627959
  N   -2.56904283786841     -1.79467191164236     -0.32316626748931
  N   -0.86999264683054      1.16864070964804      0.26901260706118
  O   -0.68618940243200      2.21259630173127     -0.33532275294681
  O   -1.23810249325702      1.02430973033528      1.42817859101440
  N   1.85877759403449      0.18640674292746      0.22668431086234
  H   2.06165084998242      0.54077245590180     -0.69812098277726
  H   1.73423787680278      0.96125256102669      0.86374943938889
