13
Coordinates from ORCA-job run
  C   -0.55527361541630     -0.08606581031371     -0.42691223307553
  C   0.74179774604503     -0.72406265691238      0.08502951912596
  F   -0.38005852267038      0.36167944723104     -1.69509129047146
  H   0.94999959038171     -1.56363813779279     -0.58474386245644
  H   0.55424187654563     -1.12335901474018      1.08300575948687
  C   -1.70953045197663     -0.98183508674602     -0.35934686880228
  N   -2.59808821583099     -1.74878833847319     -0.31161990396555
  N   -0.84461256900510      1.12606386056766      0.45675879735612
  O   -1.12829976827888      0.85103160765629      1.61590619132738
  O   -0.70790231716316      2.23212287446271     -0.04005494626532
  N   1.87147648289293      0.16746287230514      0.11402753608806
  H   2.01133692703195      0.62399029124790     -0.77702988267814
  H   1.79391283744418      0.86539809150754      0.84107118433033
