13
Coordinates from ORCA-job run
  C   -0.58081136359816      0.03365517238835     -0.55521272546916
  C   0.95194578907043     -0.13374628639585     -0.51405418973986
  F   -0.98477073134869      0.19562498764537     -1.83701084766301
  H   1.36809797416336      0.80589740184151     -0.89136162034365
  H   1.17421571987219     -0.90902310727673     -1.25237105634809
  C   -1.28247380247720     -1.09028131781501      0.06598076851636
  N   -1.78895260609508     -2.04979115563060      0.51609619839924
  N   -0.94107628727145      1.30317974349977      0.20976446881314
  O   -0.88047429095939      1.20648503718914      1.43134105476681
  O   -1.17406223134205      2.30257970135033     -0.44998310254187
  N   1.54795492605051     -0.47667048334802      0.74655880354148
  H   1.25253945759567     -1.38968209438094      1.06571631330173
  H   1.33786744633989      0.20277240093270      1.46453593476689
