13
Coordinates from ORCA-job run
  C   -0.65735898667597     -0.00307721235531     -0.49150054438123
  C   0.84313604932893     -0.20267782047014     -0.55643394053147
  F   -1.17035686636608      0.26108143553216     -1.72996368954985
  H   1.02024654378310     -1.10799969903432     -1.14237177486160
  H   1.26079173394448      0.64588825646852     -1.10370308991793
  C   -1.34662399225828     -1.15075470386111      0.10169598491772
  N   -1.85462547211628     -2.12833040729482      0.50733254141832
  N   -0.96677654270103      1.23983605196142      0.34684996824111
  O   -2.02559113428508      1.24865748901033      0.96118426767060
  O   -0.15385690660004      2.15367532609219      0.26539034353252
  N   1.32171324663560     -0.33501821877437      0.80576770597995
  H   1.93701833918605     -1.12546400162291      0.91971982878979
  H   1.79128398812456      0.50318350434837      1.11503239869208
