17

C	-0.534042	0.001095	-1.427425
C	0.0	0.0	0.0
F	-0.093474	1.095894	-2.114085
H	1.094613	0.0	0.0
N	0.018808	-1.18108	-2.255936
O	0.688449	-2.041825	-1.699433
O	-0.3177	-1.190276	-3.439786
N	-1.944379	-0.025887	-1.438712
H	-2.295006	-0.215025	-2.368865
H	-2.231017	-0.732811	-0.768354
N	-0.590281	-1.157734	0.687826
H	0.056096	-1.933166	0.593364
H	-0.619016	-0.893997	1.665321
N	-0.424677	1.212592	0.681925
H	0.308039	1.90258	0.583354
H	-1.275103	1.572953	0.267149
Cl	3.44879	0.0	0.0
