17

C	-0.370228	-0.185126	-1.472348
C	0.0	0.0	0.0
F	-1.634983	-0.69354	-1.643763
H	1.098775	0.0	0.0
N	-0.444374	1.211076	-2.132696
O	0.640895	1.724784	-2.377907
O	-1.544158	1.702877	-2.354065
N	0.565446	-1.030592	-2.090556
H	0.499196	-1.012895	-3.098216
H	1.510199	-0.797649	-1.789338
N	-0.505914	-1.167688	0.740906
H	-0.528101	-1.969479	0.119582
H	0.192881	-1.380188	1.445283
N	-0.499057	1.246132	0.53317
H	-1.350615	1.048711	1.042835
H	0.18728	1.629143	1.168899
Cl	3.400623	0.0	0.0
