17

C	-0.538871	0.008998	-1.426545
C	0.0	0.0	0.0
F	-1.958416	0.156892	-1.328676
H	1.090587	0.0	0.0
N	-0.174891	1.244724	-2.241318
O	-0.641864	1.26903	-3.379263
O	0.536584	2.110326	-1.743424
N	-0.160238	-1.096826	-2.159269
H	-0.157503	-1.914427	-1.563991
H	-0.666472	-1.194352	-3.026591
N	-0.423943	-1.292069	0.546279
H	-1.377472	-1.19388	0.885184
H	0.164366	-1.467514	1.354424
N	-0.458654	1.124458	0.80062
H	-1.369377	1.433099	0.483168
H	0.194391	1.887294	0.682613
Cl	3.456726	0.0	0.0
