17

C	-0.534091	-0.087499	-1.428316
C	0.0	0.0	0.0
F	0.219083	0.780054	-2.202552
H	1.096253	0.0	0.0
N	-0.317595	-1.426147	-2.13684
O	0.298563	-2.323712	-1.570231
O	-0.784593	-1.493182	-3.27211
N	-1.909511	0.179231	-1.505335
H	-2.163449	0.349246	-2.469643
H	-2.059248	1.008544	-0.940322
N	-0.571366	-1.024137	0.875331
H	0.045444	-1.051482	1.682548
H	-0.456872	-1.925292	0.427452
N	-0.439927	1.31737	0.487785
H	0.376106	1.861969	0.733043
H	-1.00015	1.155847	1.315591
Cl	3.430887	0.0	0.0
