17

C	-0.267106	0.011437	-1.511585
C	0.0	0.0	0.0
F	-0.182565	-1.290944	-2.016325
H	1.101783	0.0	0.0
N	-1.717252	0.373877	-1.821557
O	-1.95283	1.352053	-2.522958
O	-2.565205	-0.375264	-1.34291
N	0.597369	0.913828	-2.122813
H	0.513809	0.932079	-3.129687
H	1.554926	0.741614	-1.815891
N	-0.500773	-1.12752	0.737326
H	-1.453681	-1.319309	0.451243
H	0.073778	-1.933417	0.528917
N	-0.587093	1.22259	0.54308
H	-0.411942	1.188227	1.54092
H	-0.067072	2.011621	0.171125
Cl	3.440865	0.0	0.0
