15

C	-0.633139	-0.022049	-1.383843
C	0.0	0.0	0.0
Cl	0.009816	-1.303813	-2.398446
H	1.089169	0.0	0.0
H	-1.713717	-0.132925	-1.315309
N	-0.42113	1.321679	-2.029706
O	0.711303	1.624097	-2.370649
O	-1.433385	2.014352	-2.136156
N	-0.482211	-1.293704	0.655434
O	-1.695723	-1.345561	0.894416
O	0.326863	-2.175321	0.912216
N	-0.459028	1.149559	0.703456
H	-1.40411	1.03901	1.044959
H	0.182544	1.375355	1.450554
Cl	3.30733	0.0	0.0
