15

C	-0.573156	-0.029995	-1.417825
C	0.0	0.0	0.0
Cl	0.080384	-1.355089	-2.359102
H	1.091776	0.0	0.0
H	-1.656977	-0.117155	-1.385838
N	-0.307599	1.298497	-2.08134
O	0.711755	1.460588	-2.7318
O	-1.177549	2.146898	-1.865609
N	-0.519376	-1.270977	0.647921
O	-1.739102	-1.448672	0.578893
O	0.270858	-1.996888	1.234175
N	-0.450512	1.09383	0.79846
H	0.300071	1.757532	0.920746
H	-1.285568	1.542933	0.454304
Cl	3.295439	0.0	0.0
