15

C	-0.383364	-0.211889	-1.465357
C	0.0	0.0	0.0
Cl	-0.096542	1.262046	-2.399959
H	1.09712	0.0	0.0
H	0.186837	-1.013681	-1.919876
N	-1.833514	-0.576107	-1.643927
O	-2.647341	0.007416	-0.927215
O	-2.103192	-1.402927	-2.507199
N	-0.414719	-1.278085	0.723439
O	-0.434179	-2.304229	0.036556
O	-0.656942	-1.229039	1.918017
N	-0.467226	1.139964	0.674368
H	-1.342048	1.500716	0.332353
H	0.250033	1.842925	0.752757
Cl	3.218294	0.0	0.0
