12
Coordinates from ORCA-job run
  C   0.48721501632365      0.77077554090942     -0.00733192725446
  C   -0.78873730268314      0.15013703129731     -0.50993601576864
  Br  1.13602984136391      2.03951493527893     -1.30781480247933
  H   -1.55603294905666      0.91065791916836     -0.66105581213416
  H   0.38118386091903      1.28158194468360      0.94520249956855
  H   -0.63399719170183     -0.40773714266107     -1.43021973558443
  N   1.54834380054977     -0.28069931246629      0.20165874033112
  O   2.40583294400079     -0.01739104519073      1.03352872567576
  O   1.47233498187443     -1.29337052692405     -0.48542797297907
  N   -1.33941910910541     -0.81863968774159      0.49384355823568
  O   -2.25449410764806     -1.53099786595117      0.10418729963497
  O   -0.85525978483649     -0.80283179040270      1.62336544275401
