12
Coordinates from ORCA-job run
  C   0.48586464485578      0.76895351549005      0.05804360350101
  C   -0.79474324820032      0.19392964019411     -0.48561571366487
  Br  1.11830549584071      2.15351267914001     -1.12700980276780
  H   -1.56438004045193      0.96364024852900     -0.55779972891005
  H   0.38824026873669      1.19026777176234      1.05429822413855
  H   -0.64935353257151     -0.27611551926249     -1.45515153323843
  N   1.55076584163440     -0.29443628282350      0.15887726883805
  O   2.41692038050549     -0.10600156263063      1.00199870140773
  O   1.46840786820502     -1.24031251704750     -0.61702401433631
  N   -1.33339517177231     -0.86393354562193      0.43073842823999
  O   -0.83613987144586     -0.95172389571021      1.55125739216560
  O   -2.25249263533618     -1.53878053201924     -0.01261282537347
