12
Coordinates from ORCA-job run
  C   0.47299840160744      0.54238582300056     -0.11325226348158
  C   -0.46263711216715     -0.61903690642488      0.13301428991156
  Br  0.39840179065940      1.13703566545389     -1.94293268421850
  H   -0.31933557564718     -1.42442637011218     -0.58093523499225
  H   0.25222928511517      1.39377148325214      0.52498950222665
  H   -0.34083203494096     -0.98488732972322      1.15587072317748
  N   1.88140736175491      0.11707660550561      0.19945303247300
  O   2.60456334661199      0.96805170139550      0.70462744678935
  O   2.18944660914670     -1.03710338469127     -0.08221293667488
  N   -1.87522229822403     -0.14492196067756      0.01890575346058
  O   -2.16063460902633      0.87781889277580      0.63626778808514
  O   -2.64038516488997     -0.82576421975439     -0.65479541675657
