14
Coordinates from ORCA-job run
  C   0.54862594823328     -0.46194525228898     -0.26031053990752
  C   -0.54862594823470      0.46194525229562      0.26031053988863
  H   0.35382630131875     -0.68990197856186     -1.31488581627422
  H   -0.49657511979538      1.41682409552716     -0.27590799383455
  H   0.49657511978233     -1.41682409552698      0.27590799380250
  H   -0.35382630130701      0.68990197858599      1.31488581624927
  C   1.94564904162325      0.13380902361480     -0.11344655029058
  H   2.17242282466408      0.34261393885446      0.93559673525401
  H   2.02872209087101      1.07422286179043     -0.66502055953999
  H   2.71399011816218     -0.54444333808462     -0.49243678583829
  C   -1.94564904162321     -0.13380902361999      0.11344655030285
  H   -2.71399011816164      0.54444333808285      0.49243678584597
  H   -2.02872209085626     -1.07422286178328      0.66502055957559
  H   -2.17242282467668     -0.34261393888560     -0.93559673523367
