17
Coordinates from ORCA-job run
  C   -0.81888945973350      0.23558758385184      0.37156820445061
  C   0.38895545948111      0.33186065435736     -0.57232517413561
  Cl  -1.29692150085248      1.78818340631503      1.01500701319871
  H   0.04110786044202      0.97440473508688     -1.39332152530615
  N   -0.50682086244526     -0.74529653825041      1.49843389518976
  O   -0.87393583700398     -1.89816376868319      1.33338283881824
  O   0.15164821596103     -0.29664460989884      2.42616232975468
  N   -2.05135184973800     -0.33622356093110     -0.33903022236580
  O   -1.95713007265446     -0.53861177367305     -1.54503426575806
  O   -3.03669770003561     -0.51259269626657      0.35888703263795
  N   0.74397553912300     -1.01204496427342     -0.98304559659829
  H   0.17547351332484     -1.32527221330727     -1.75676228766754
  H   1.71998065336825     -1.06112660163567     -1.23933323008066
  C   1.59613813890189      0.98171689427222      0.09348614209447
  H   2.36131245261925      1.13829246802771     -0.67086641579140
  H   1.36089498373237      1.94632325815050      0.53784171218021
  H   2.00326046550952      0.32860772685797      0.86594954937889
