17
Coordinates from ORCA-job run
  C   -0.92171728621900     -0.27397334514679      0.03839410088401
  C   0.36972966492989      0.06539077945934     -0.71732114974352
  Cl  -2.00970321425089     -1.19529824156768     -0.97983095576121
  H   0.02686361467142      0.55602807801049     -1.63707883442462
  N   -1.70353624721744      0.95504708932205      0.48257459613574
  O   -1.56974346130135      1.95484617235135     -0.21228549641474
  O   -2.44636055073894      0.81474657265343      1.44322010126643
  N   -0.59043561757603     -1.04525929202576      1.31097233653445
  O   -0.01812973800117     -0.35997222613622      2.15055536030063
  O   -0.87202893937577     -2.22662536081540      1.38147564562759
  N   1.04130452450426     -1.20856280277043     -0.93657194182111
  H   0.63475824745199     -1.71733136066454     -1.71077961644945
  H   2.02016175362738     -1.05236950010873     -1.13672079375613
  C   1.32117939613991      1.00727102838728      0.00929816332620
  H   1.79069139735927      0.50683773162212      0.85476385223725
  H   2.09890399886969      1.30398517905037     -0.69991316135371
  H   0.82806245712678      1.91223949837911      0.35724779341219
