17
Coordinates from ORCA-job run
  C   -0.56518317252122     -0.37379724403602      0.52008061787439
  C   0.38980317627233      0.26762458786485     -0.48489109789958
  Cl  0.09004194966273     -1.79034552738486      1.28352912667834
  H   -0.10533611368529      1.19423861534768     -0.78320396328607
  N   -1.86625121801104     -0.70753454318199     -0.23103991631170
  O   -2.20178201277695     -1.86743660588625     -0.35845196491711
  O   -2.43520183986342      0.29293394929958     -0.64978771702474
  N   -1.04526082980843      0.59646717777237      1.60270701460656
  O   -0.64678480515275      1.75302964137453      1.53800566143829
  O   -1.82732993181036      0.13130800405895      2.41968001086759
  N   0.40177034616924     -0.62026739337413     -1.63866937021412
  H   1.09760504144641     -1.34760160938708     -1.52610473611847
  H   0.61637444853896     -0.10175953027027     -2.47945516587015
  C   1.76130708728630      0.58279081694863      0.10029397956829
  H   2.29875581944388     -0.33559560023648      0.34439264266803
  H   2.34113799179423      1.12414129046981     -0.65076825043327
  H   1.69733406301537      1.20380397062067      0.99368312837373
