17
Coordinates from ORCA-job run
  C   -0.61437823487561     -0.46763265582953      0.39297318644735
  C   0.40955296225056      0.24860678840854     -0.49832038259274
  Cl  -0.18554691665158     -2.09186693526864      0.80180249655679
  H   -0.03708046847734      1.22973719244961     -0.70053654095928
  N   -2.00801567733064     -0.47324296372641     -0.24639330665887
  O   -2.12090195375040      0.03425742306686     -1.35564995648850
  O   -2.89795091192820     -0.96571462392288      0.43067385139895
  N   -0.82083747297995      0.38770791926192      1.64686723264557
  O   -1.37612347766022      1.45773492828104      1.41744281634995
  O   -0.37903713496939     -0.00418090854836      2.71340837238985
  N   0.61742975425196     -0.54508111228239     -1.69125304268807
  H   -0.03889670732492     -0.28748560726127     -2.41423750951588
  H   1.56009577706242     -0.43344568457397     -2.03636704840658
  C   1.71976781161514      0.43794934010975      0.25369811300205
  H   1.59324270300486      1.00059255393211      1.17908482944582
  H   2.17111975580915     -0.52757889737413      0.48752383537921
  H   2.40856019195415      1.00064324327776     -0.38071694630560
