17
Coordinates from ORCA-job run
  C   -0.79780180875553      0.28385253585050      0.29996267679536
  C   0.43497823831274      0.38589303445582     -0.63820871675756
  Cl  -1.38597110642853      1.85659231730692      0.77815340738593
  H   0.14714189484931      1.14606906098834     -1.36953681876982
  N   -0.43076236028244     -0.55659657353633      1.51176203064130
  O   -0.19746944084488     -1.73064646038570      1.23775416730332
  O   -0.31386777915572     -0.01721396192002      2.59961627517259
  N   -1.97620285568716     -0.42641258651815     -0.35641162521206
  O   -2.07029033298119     -0.29223286567582     -1.57035752345277
  O   -2.75700387929811     -1.00291200876006      0.38655389028645
  N   0.79119110413628     -0.80577045674934     -1.36291152302860
  H   1.00804420042982     -1.57268727492220     -0.74025095623929
  H   0.05885767273244     -1.08750450457302     -1.99937171318237
  C   1.63639957858381      0.87287058231574      0.16482895159117
  H   1.41867691446859      1.76480844987691      0.75220731141655
  H   2.44232099859037      1.09269985394128     -0.53474057646270
  H   1.98775896133021      0.08919085830513      0.84195074251248
