17
Coordinates from ORCA-job run
  C   -0.55150966549819     -0.36532335738134      0.55402346202911
  C   0.39670632557738      0.27282407071043     -0.47018214923695
  Cl  0.15338896729381     -1.69353467890081      1.42239551536421
  H   -0.08977991110043      1.20759486493062     -0.75625738904338
  N   -1.80878527377759     -0.80749277590596     -0.20709919856846
  O   -2.12706210769577     -1.97890347242771     -0.21882698266070
  O   -2.37337464091523      0.13177347477960     -0.75614761467512
  N   -1.10789318124103      0.63432936399798      1.56806203062463
  O   -2.02350101987935      0.22381046036555      2.26716522928972
  O   -0.60527514776999      1.75160342958420      1.59125103959979
  N   0.42189428321479     -0.63068568573362     -1.61071915684476
  H   0.24841046133455     -0.14111689407012     -2.47608273763172
  H   1.30293124176361     -1.12079110709571     -1.67703732548498
  C   1.77692832860100      0.57183587772961      0.09757866362032
  H   1.72513946729918      1.13146950788656      1.03068230465958
  H   2.32911953459117     -0.35341300486949      0.27393939186392
  H   2.33066233820210      1.16701992640019     -0.63174508290521
