15

C	0.0	0.0	0.0
C	-0.482801	0.050454	-1.467687
Cl	1.792474	0.0	0.0
H	-1.589687	0.14579	-1.281794
C	-0.460364	1.101035	0.852644
N	-0.580399	1.969767	1.63579
C	-0.445284	-1.27249	0.57872
N	-0.628968	-2.323128	1.072574
N	-0.111979	-1.127689	-2.156667
H	-0.738255	-1.289465	-2.930808
H	0.835972	-1.071457	-2.507159
N	0.044438	1.313438	-2.120226
O	-0.169575	2.377352	-1.547812
O	0.615755	1.204788	-3.207138
F	-2.494824	0.0	0.0
