15

C	0.0	0.0	0.0
C	-0.453943	0.145484	-1.50356
Cl	1.790291	0.0	0.0
H	-1.499851	0.452819	-1.407192
C	-0.442568	1.101849	0.858103
N	-0.599109	1.996926	1.604001
C	-0.481436	-1.280032	0.514754
N	-0.580997	-2.388752	0.898172
N	-0.33367	-1.033495	-2.284962
H	0.572774	-1.472516	-2.173948
H	-1.063095	-1.672915	-1.992984
N	0.333691	1.263702	-2.127699
O	1.136635	1.008132	-3.020924
O	0.108402	2.385978	-1.676713
F	-2.408636	0.0	0.0
