15

C	0.0	0.0	0.0
C	-0.501858	0.092206	-1.454041
Cl	1.797766	0.0	0.0
H	-1.6128	0.178406	-1.237286
C	-0.443718	1.072202	0.897512
N	-0.581822	1.90211	1.718452
C	-0.426886	-1.288679	0.559282
N	-0.579923	-2.324026	1.093561
N	-0.147646	-1.070175	-2.180614
H	-0.790219	-1.20781	-2.94678
H	0.792395	-1.007614	-2.550143
N	0.008041	1.36847	-2.08246
O	-0.12646	2.410374	-1.446813
O	0.482925	1.298486	-3.219144
F	-2.51288	0.0	0.0
