15

C	0.0	0.0	0.0
C	-0.416251	0.24845	-1.530778
Cl	1.798228	0.0	0.0
H	0.523912	0.368791	-2.075157
C	-0.414482	1.170334	0.777337
N	-0.536567	2.168091	1.387287
C	-0.453705	-1.220327	0.664948
N	-0.587298	-2.183599	1.32717
N	-1.283844	1.317076	-1.831838
H	-2.06707	1.179515	-1.174211
H	-0.806851	2.195536	-1.673278
N	-0.961767	-1.054273	-2.079385
O	-0.249149	-2.035341	-1.860479
O	-1.980768	-1.050237	-2.748062
F	-2.351057	0.0	0.0
