15

C	0.0	0.0	0.0
C	-0.563318	0.229624	-1.409982
Cl	1.788242	0.0	0.0
H	-1.691006	0.260156	-1.095548
C	-0.430467	0.977932	1.010414
N	-0.605439	1.718927	1.90524
C	-0.427799	-1.339984	0.42955
N	-0.59363	-2.435319	0.820559
N	-0.240006	-0.858569	-2.261599
H	-0.922089	-0.928256	-3.002958
H	0.676762	-0.750141	-2.677071
N	-0.127758	1.557263	-1.946365
O	0.03306	1.645256	-3.168709
O	-0.022336	2.500685	-1.165468
F	-2.588828	0.0	0.0
