14

C	-0.374681	0.264711	-1.460055
C	0.0	0.0	0.0
Br	0.292377	1.995973	-2.000111
H	1.11371	0.0	0.0
C	0.143688	-0.761726	-2.353778
N	0.501368	-1.594632	-3.103295
N	-1.918804	0.263979	-1.688289
O	-2.608902	-0.099409	-0.744903
O	-2.302078	0.582344	-2.802147
C	-0.417482	-1.325996	0.444678
N	-0.704092	-2.399251	0.826179
C	-0.51763	1.040692	0.876067
N	-0.949133	1.885391	1.569222
Cl	3.050447	0.0	0.0
