14

C	-0.503356	-0.04075	-1.45408
C	0.0	0.0	0.0
Br	0.317287	-1.521805	-2.391655
H	1.095401	0.0	0.0
C	-1.953219	-0.153091	-1.546748
N	-3.125772	-0.237917	-1.592336
N	-0.099319	1.249473	-2.201366
O	0.735891	1.958879	-1.665556
O	-0.653828	1.422295	-3.278753
C	-0.459591	-1.205826	0.688609
N	-0.83759	-2.17491	1.234993
C	-0.5213	1.183713	0.683085
N	-0.968969	2.119534	1.235054
Cl	3.103673	0.0	0.0
