16

C	0.0	0.0	0.0
C	-0.389767	-0.056896	-1.48259
F	1.395943	0.0	0.0
H	0.071946	-0.971036	-1.879055
H	-0.317994	0.955322	0.429591
C	-0.537625	-1.153175	0.806684
H	-0.113278	-1.12501	1.812791
H	-0.270275	-2.105554	0.340802
H	-1.625745	-1.080675	0.883171
C	0.244379	1.067951	-2.180566
N	0.728351	1.988469	-2.725879
C	-1.895315	-0.078218	-1.74364
H	-2.412434	0.753021	-1.267042
H	-2.09168	-0.038647	-2.8172
H	-2.358751	-0.977448	-1.342876
Br	-4.905643	0.0	0.0
