16

C	0.0	0.0	0.0
C	-0.512467	0.15907	-1.428685
F	1.393308	0.0	0.0
H	-1.606454	0.048126	-1.362899
H	-0.32806	0.874529	0.570945
C	-0.468515	-1.273174	0.662971
H	-0.060351	-1.331114	1.674917
H	-0.118128	-2.139601	0.095918
H	-1.559681	-1.273012	0.706791
C	0.025415	-0.90372	-2.279892
N	0.471453	-1.727154	-2.988511
C	-0.171988	1.53253	-2.010013
H	0.905885	1.707539	-1.981994
H	-0.677334	2.30028	-1.419696
H	-0.516629	1.615532	-3.042552
Br	-3.871466	0.0	0.0
