15

C	-0.437892	0.11324	-1.441552
C	0.0	0.0	0.0
F	-1.76648	0.379814	-1.572984
H	1.09155	0.0	0.0
C	0.322758	1.074416	-2.248024
N	0.843224	1.809679	-3.002223
N	-0.199644	-1.271067	-2.08394
O	0.956238	-1.51764	-2.399372
O	-1.177068	-1.998303	-2.182681
C	-0.482663	-1.185821	0.657643
N	-0.787747	-2.193409	1.184189
N	-0.321355	1.195323	0.740945
O	-0.403329	1.102319	1.973129
O	-0.307103	2.261362	0.102951
H	2.308931	0.0	0.0
