15

C	-0.592755	0.008682	-1.391409
C	0.0	0.0	0.0
F	-0.188827	-1.125804	-2.045604
H	1.094312	0.0	0.0
C	-2.061118	0.059542	-1.407887
N	-3.23525	-0.000714	-1.392611
N	-0.060625	1.157102	-2.257894
O	-0.760574	1.451444	-3.220878
O	1.047425	1.587516	-1.985997
C	-0.353007	-1.21934	0.69117
N	-0.577395	-2.244971	1.221572
N	-0.418376	1.159762	0.733496
O	-0.143121	1.187756	1.943695
O	-0.885863	2.117953	0.075087
H	2.299772	0.0	0.0
