15

C	-0.576604	0.0014	-1.396055
C	0.0	0.0	0.0
F	-0.163044	-1.135293	-2.039378
H	1.094292	0.0	0.0
C	-2.043734	0.053064	-1.438377
N	-3.217297	-0.007968	-1.447369
N	-0.032821	1.146171	-2.259701
O	1.01603	1.665518	-1.915476
O	-0.667194	1.352722	-3.292492
C	-0.361527	-1.215915	0.69231
N	-0.602079	-2.238695	1.223529
N	-0.425524	1.161019	0.729145
O	-0.126014	1.202478	1.931881
O	-0.935073	2.099258	0.080049
H	2.305406	0.0	0.0
