15

C	-0.492651	0.060184	-1.424451
C	0.0	0.0	0.0
F	-1.854698	0.024843	-1.511941
H	1.091591	0.0	0.0
C	0.006101	1.177311	-2.23398
N	0.325014	2.00898	-3.000209
N	0.031927	-1.224379	-2.10327
O	1.192592	-1.174385	-2.492329
O	-0.735072	-2.176458	-2.137246
C	-0.424704	-1.202118	0.674531
N	-0.689741	-2.214614	1.212544
N	-0.355473	1.175168	0.759361
O	-0.288198	1.084997	1.991606
O	-0.540014	2.23001	0.130951
H	2.31837	0.0	0.0
