15

C	-0.438668	0.06087	-1.445131
C	0.0	0.0	0.0
F	-1.750901	0.390739	-1.589016
H	1.094004	0.0	0.0
C	0.369265	0.94032	-2.298859
N	0.923117	1.604976	-3.093688
N	-0.27704	-1.363564	-2.019224
O	0.870352	-1.703885	-2.270977
O	-1.298986	-2.022554	-2.136725
C	-0.492164	-1.15382	0.704323
N	-0.827038	-2.140979	1.251254
N	-0.30932	1.228339	0.687919
O	-0.407179	1.189439	1.922356
O	-0.266045	2.265444	0.00474
H	2.304798	0.0	0.0
