17

C	0.0	0.0	0.0
C	-0.444207	-0.146597	-1.460248
Br	1.982916	0.0	0.0
H	-1.524073	-0.324912	-1.402269
H	0.030095	-1.038416	-1.883172
N	-0.465909	1.184097	0.674645
H	-1.483125	1.079124	0.737528
H	-0.279633	2.001246	0.104477
C	-0.433778	-1.213165	0.804937
H	-0.048564	-2.132723	0.359476
H	-0.072119	-1.126323	1.830813
H	-1.52776	-1.233739	0.799465
C	-0.183355	1.059724	-2.3522
H	0.872377	1.344894	-2.353327
H	-0.782719	1.916836	-2.036068
H	-0.474985	0.832377	-3.381414
Cl	-3.747821	0.0	0.0
