17

C	0.0	0.0	0.0
C	-0.26857	-0.363611	-1.478494
Br	1.991974	0.0	0.0
H	0.232929	0.399338	-2.086885
H	0.250577	-1.304867	-1.690923
N	-0.479291	1.288869	0.411425
H	-1.47772	1.202903	0.601507
H	-0.363652	1.959186	-0.340889
C	-0.509099	-1.049437	0.965061
H	-0.203973	-0.801071	1.982885
H	-0.129166	-2.038272	0.703059
H	-1.603826	-1.054712	0.91288
C	-1.725717	-0.46824	-1.897371
H	-1.765148	-0.700913	-2.96711
H	-2.283628	0.449722	-1.725636
H	-2.273422	-1.239221	-1.359905
Cl	-4.369856	0.0	0.0
