16

C	-0.651157	0.096765	-1.598113
C	0.296137	0.020603	-0.412108
Cl	-0.205191	-1.143262	-2.813401
H	1.322831	0.156809	-0.761216
H	0.233788	-0.990977	0.008992
C	-2.102949	-0.067119	-1.22511
H	-2.22233	-1.032809	-0.729576
H	-2.745542	-0.030763	-2.103367
H	-2.385452	0.736074	-0.545644
N	-0.439448	1.443868	-2.28562
O	0.712239	1.744607	-2.567134
O	-1.432639	2.127995	-2.519167
N	-0.043254	1.092864	0.5102
H	0.806758	1.27157	1.049425
H	-0.697297	0.736994	1.198293
Br	2.659552	0.270057	2.364072
