16

C	-0.515526	0.02314	-1.481319
C	-0.108783	0.206222	-0.029264
Cl	-0.448635	1.609536	-2.321489
H	0.932936	0.553978	-0.025432
H	-0.749816	0.970992	0.411352
C	0.323229	-0.987434	-2.214692
H	0.040961	-1.045941	-3.265033
H	0.188117	-1.959461	-1.742155
H	1.372544	-0.710884	-2.105597
N	-1.991746	-0.377058	-1.512957
O	-2.330237	-1.266616	-2.28779
O	-2.752323	0.236144	-0.771617
N	-0.262466	-1.079128	0.637876
H	-0.630471	-0.935863	1.568544
H	0.673843	-1.476655	0.730798
Br	3.150615	-1.306568	0.346515
