12

C	0.0	0.0	0.0
C	-0.510988	-0.000222	-1.425113
Br	1.963822	0.0	0.0
H	-1.604328	-0.020625	-1.377413
H	-0.270859	-0.933684	0.493723
H	-0.155146	-0.873147	-1.976771
H	-0.186832	0.901959	-1.950335
C	-0.510988	1.177704	0.802472
H	-0.155144	1.142213	1.834491
H	-1.604328	1.126795	0.792483
H	-0.186833	2.119686	0.352518
Br	-4.053508	0.0	0.0
