16

C	0.0	0.0	0.0
C	-0.446574	0.119203	-1.465838
F	1.36198	0.0	0.0
H	0.352011	0.720765	-1.917432
H	-0.385827	-0.85805	0.551502
N	-0.349429	1.210464	0.832307
O	-0.264624	2.307802	0.284383
O	-0.574702	1.023074	2.024244
N	-1.698994	0.755783	-1.780905
H	-2.500391	0.330061	-1.30963
H	-1.677533	1.723269	-1.492771
C	-0.423924	-1.288463	-2.057466
H	-0.543346	-1.221643	-3.139167
H	-1.26732	-1.8587	-1.659611
H	0.505546	-1.815782	-1.826147
Br	-4.41843	0.0	0.0
