16

C	0.0	0.0	0.0
C	-0.476617	0.094648	-1.464944
F	1.362035	0.0	0.0
H	0.382267	0.556723	-1.96735
H	-0.384914	-0.843913	0.571481
N	-0.357223	1.23039	0.792713
O	-0.01603	2.306618	0.303699
O	-0.895305	1.071611	1.884231
N	-1.642945	0.881845	-1.772431
H	-2.484636	0.525997	-1.312257
H	-1.512877	1.840759	-1.47864
C	-0.67507	-1.326319	-1.980349
H	-1.572683	-1.750992	-1.522538
H	-0.82527	-1.299343	-3.06035
H	0.184633	-1.964568	-1.752688
Br	-4.379914	0.0	0.0
