16

C	0.0	0.0	0.0
C	-0.471964	-0.283346	-1.443744
F	1.368705	0.0	0.0
H	0.412371	-0.025165	-2.038507
H	-0.381337	-0.674529	0.764875
N	-0.353227	1.389554	0.463034
O	-0.896871	1.507982	1.556769
O	0.000233	2.3092	-0.273357
N	-1.594264	0.448729	-1.978571
H	-2.439698	0.284005	-1.425691
H	-1.400398	1.441981	-1.95874
C	-0.746766	-1.779767	-1.557485
H	-1.654318	-2.017362	-0.998001
H	0.088282	-2.37534	-1.172193
H	-0.917133	-2.028458	-2.606488
Br	-4.261828	0.0	0.0
