15

C	0.0	0.0	0.0
C	-0.482193	-0.238323	-1.434332
Cl	1.797549	0.0	0.0
H	-1.582014	-0.214168	-1.410563
H	-0.130885	0.572412	-2.078519
C	-0.444942	1.38162	0.467353
H	-0.069486	1.564132	1.478031
H	-1.538346	1.402259	0.475395
H	-0.062131	2.167091	-0.189853
N	-0.469535	-1.091278	0.815924
H	-1.490677	-1.09193	0.729546
H	-0.252733	-0.890175	1.787077
C	-0.033523	-1.511935	-1.989781
N	0.309782	-2.52146	-2.48001
Br	-3.834713	0.0	0.0
