15

C	0.0	0.0	0.0
C	-0.48856	-0.111101	-1.447099
Cl	1.795395	0.0	0.0
H	-1.587882	-0.10406	-1.411675
H	-0.154834	-1.070885	-1.848926
C	-0.437388	1.314241	0.634365
H	-0.04195	2.174221	0.089098
H	-1.529878	1.340038	0.633583
H	-0.074058	1.35886	1.664669
N	-0.473044	-1.184371	0.679113
H	-0.2406	-1.10672	1.664494
H	-1.495399	-1.158154	0.612796
C	-0.020922	0.969231	-2.306857
N	0.352045	1.831039	-3.011242
Br	-3.836452	0.0	0.0
