15

C	-0.231895	-0.013913	-1.489473
C	0.0	0.0	0.0
Br	-2.153621	-0.036223	-1.974168
H	1.096152	0.0	0.0
H	0.137366	0.933546	-1.878078
C	0.502161	-1.185676	-2.109984
H	0.064763	-2.135673	-1.792514
H	0.47573	-1.130362	-3.20054
H	1.531052	-1.112625	-1.740216
C	-0.521036	-1.156248	0.69356
N	-0.896887	-2.141332	1.214161
N	-0.432436	1.25469	0.651646
O	-0.378317	2.28389	-0.018929
O	-0.743413	1.210861	1.841366
F	2.486429	0.0	0.0
