15

C	-0.362011	0.091485	-1.490497
C	0.0	0.0	0.0
Br	-0.045405	-1.655428	-2.314279
H	1.091669	0.0	0.0
H	-1.429894	0.278577	-1.636934
C	0.541513	1.128077	-2.140834
H	0.487196	1.07848	-3.230975
H	1.558439	0.937842	-1.777147
H	0.240202	2.132797	-1.824024
C	-0.630173	-1.097192	0.704504
N	-1.11026	-1.990063	1.299739
N	-0.499469	1.286511	0.608382
O	0.322111	2.174245	0.820467
O	-1.714277	1.384525	0.811417
F	2.537978	0.0	0.0
