15

C	-0.462391	-0.041876	-1.45043
C	0.0	0.0	0.0
Br	0.428716	1.303422	-2.563281
H	1.09125	0.0	0.0
H	-0.053274	-0.979104	-1.833743
C	-1.963211	0.01417	-1.677046
H	-2.361433	0.980119	-1.369069
H	-2.196668	-0.140258	-2.732766
H	-2.444376	-0.778459	-1.094754
C	-0.436049	-1.216479	0.660511
N	-0.772433	-2.247494	1.116783
N	-0.465601	1.15816	0.7895
O	-0.840918	2.168006	0.19071
O	-0.387956	1.064098	2.014561
F	2.444996	0.0	0.0
