15

C	-0.365397	0.093417	-1.490063
C	0.0	0.0	0.0
Br	-0.037368	-1.651671	-2.315666
H	1.091772	0.0	0.0
H	-1.433945	0.271449	-1.633479
C	0.530152	1.137028	-2.137938
H	0.477306	1.087252	-3.226164
H	0.219897	2.136765	-1.820212
H	1.546382	0.954851	-1.774197
C	-0.628954	-1.097486	0.7053
N	-1.107778	-1.990835	1.300963
N	-0.498899	1.285524	0.60863
O	-1.714211	1.388388	0.804313
O	0.322104	2.170691	0.830085
F	2.537139	0.0	0.0
