15

C	-0.360721	0.079911	-1.492681
C	0.0	0.0	0.0
Br	-0.050247	-1.677913	-2.298526
H	1.091667	0.0	0.0
H	-1.427093	0.269081	-1.640987
C	0.549849	1.105487	-2.149785
H	0.252161	2.113054	-1.843228
H	1.563798	0.91412	-1.780802
H	0.497762	1.0456	-3.237863
C	-0.630958	-1.090239	0.7149
N	-1.111835	-1.978007	1.317295
N	-0.498284	1.291695	0.595471
O	0.322836	2.1787	0.808925
O	-1.713616	1.396917	0.789974
F	2.538215	0.0	0.0
