15

C	-0.501109	-0.016036	-1.407024
C	0.0	0.0	0.0
Cl	-2.278681	0.050681	-1.546603
H	1.102934	0.0	0.0
H	-0.135844	0.896692	-1.871567
N	0.033354	-1.122207	-2.295694
O	-0.36118	-1.11744	-3.461106
O	0.889383	-1.857535	-1.827999
N	-0.492523	-1.114605	0.804936
O	-0.444228	-0.976983	2.036964
O	-0.862293	-2.151523	0.237609
N	-0.260809	1.287567	0.588315
H	-1.094902	1.259828	1.165894
H	0.534312	1.490833	1.189279
H	2.465771	0.0	0.0
