15

C	-0.558901	-0.100622	-1.4169
C	0.0	0.0	0.0
Cl	0.476242	-1.015857	-2.524483
H	1.090342	0.0	0.0
H	-1.542389	-0.559885	-1.44173
N	-0.762356	1.291876	-1.953645
O	0.151217	1.872809	-2.520638
O	-1.876315	1.769537	-1.715916
N	-0.425558	-1.210307	0.735745
O	-0.936703	-2.149165	0.098278
O	-0.138366	-1.264919	1.931483
N	-0.284806	1.177473	0.74378
H	-1.091933	1.702415	0.443882
H	0.554252	1.746117	0.791621
H	2.485893	0.0	0.0
