15

C	-0.369322	-0.124882	-1.46226
C	0.0	0.0	0.0
Cl	-0.019413	1.385278	-2.325481
H	1.09712	0.0	0.0
H	0.187894	-0.920094	-1.949172
N	-1.826549	-0.428808	-1.706109
O	-2.643801	0.119404	-0.968853
O	-2.097409	-1.169184	-2.645206
N	-0.388993	-1.260745	0.663041
O	-0.608022	-2.237764	-0.077827
O	-0.351081	-1.318734	1.889111
N	-0.395299	1.140196	0.734243
H	-1.228966	1.583413	0.383144
H	0.383575	1.782229	0.800461
H	2.530444	0.0	0.0
