18

C	-0.066158	0.002961	-1.523332
C	0.0	0.0	0.0
Br	-1.949428	0.214811	-2.186956
H	1.105243	0.0	0.0
N	0.727759	1.107823	-2.027912
H	0.379791	1.930762	-1.53701
H	1.650252	0.923077	-1.600776
C	0.5061	-1.284551	-2.081636
H	0.614788	-1.1952	-3.162853
H	1.49314	-1.380042	-1.614353
H	-0.118157	-2.151094	-1.85479
N	-0.626519	-1.16954	0.636195
H	-0.139841	-1.996921	0.303826
H	-0.37928	-1.104931	1.620844
N	-0.506471	1.236439	0.548006
H	-1.492897	1.120454	0.760163
H	-0.002102	1.452998	1.398843
F	2.741054	0.0	0.0
