15
Coordinates from ORCA-job run
  C   0.84695147308178      0.48093323783904     -0.22643133711804
  C   -0.66341729284423      0.48745332153353      0.02396869658262
  F   1.27441377727051      1.73795491476285     -0.49151946059841
  H   -1.09457700410792      0.97799310909443     -0.85702703540473
  N   1.07790844624208     -0.35020581898115     -1.49497279955173
  O   1.50277252518073     -1.48888376323593     -1.34880512283013
  O   0.74974738154044      0.20325796673678     -2.53410827430387
  C   1.61573668880669     -0.09655603595410      0.87525143486053
  N   2.19917631507411     -0.52630885634143      1.80028165816194
  C   -0.92972683131629      1.32272534033745      1.19531682179290
  N   -1.16065314714995      1.96934490321180      2.14780457863865
  C   -1.24061717367723     -0.92018361714896      0.19499301891843
  H   -0.75105949607722     -1.44582575822764      1.01684681529160
  H   -2.30544583160955     -0.84789660353935      0.41785383033787
  H   -1.12220983041395     -1.50280234008732     -0.71945282477764
