15
Coordinates from ORCA-job run
  C   0.67731468379109      0.10909656456246     -0.51580149424127
  C   -0.44358386244614     -0.14642651077715      0.49699060176884
  F   0.38655936000435     -0.45604356580518     -1.70526366674628
  H   -0.12141821745570      0.29633959054055      1.44488719232135
  N   1.96482625047047     -0.53972838754234      0.02073484532380
  O   2.36090604303795     -0.06149414162318      1.07498958691780
  O   2.43632149251512     -1.45866672626249     -0.62448985959760
  C   0.94385377096111      1.53992267696130     -0.68326974862833
  N   1.11400049264502      2.69493507900988     -0.81557860028105
  C   -0.57867370813352     -1.59297527573827      0.68341492551294
  N   -0.71160954929699     -2.75144577608994      0.82200976855184
  C   -1.76218670012223      0.47761425443764      0.03091870142645
  H   -2.54160965385054      0.27300799866165      0.76556184455843
  H   -1.65724656821658      1.55955770562868     -0.06841048262562
  H   -2.06845383390343      0.05630651403640     -0.92669361426131
