14
Coordinates from ORCA-job run
  C   -0.44546115181000     -0.45355927377374     -0.17857250118482
  C   1.02777491949249     -0.43822395580738      0.17133978696677
  Br  -0.91395804310143     -2.40352217405539     -0.41367955791100
  H   1.61283344064474     -0.93930960884339     -0.59699119542902
  H   1.19049616274693     -0.88736246487111      1.14888269189154
  N   -0.74560784645437      0.37604064917592     -1.24824182310203
  H   -0.24423869248441      0.13724635940709     -2.09257888297620
  H   -1.73809907507379      0.48381018173383     -1.40626682172852
  N   -1.30710432884095     -0.04159828284117      1.02225476931211
  O   -0.92363830517294     -0.39888066386293      2.12359608414107
  O   -2.33413885015261      0.57040699115493      0.76133835809361
  N   1.49554709971017      0.98085466013450      0.22494782721091
  O   2.36617381467572      1.31195772209917     -0.57504923859791
  O   0.95842085582045      1.70113986034967      1.05902050331348
