14
Coordinates from ORCA-job run
  C   -0.38788179880156     -0.42883916811627      0.05876770038518
  C   0.64194788993558      0.57932492586182      0.55644841596706
  Br  -0.19480303521802     -2.16037338722579      0.93101232016634
  H   0.34455656286559      1.58397690939150      0.25193489540428
  H   0.76028721268375      0.52223044987982      1.63365119148785
  N   -0.35058189678170     -0.59007376348957     -1.32493545251293
  H   -1.11384310621802     -1.15438497923862     -1.67201029645914
  H   -0.27316956891599      0.28594523882202     -1.82597118047185
  N   -1.76756851168368      0.09387716060090      0.59049557603750
  O   -2.73087176301690     -0.10364055603677     -0.13740339977191
  O   -1.77366743872677      0.64262248348921      1.68539795398249
  N   1.95783245744083      0.30972468132471     -0.08550410728001
  O   2.16790953608069      0.87737649209583     -1.15619182802660
  O   2.71885346035620     -0.45776648735878      0.49430821109175
