14
Coordinates from ORCA-job run
  C   -0.43838774738438     -0.45562379187504     -0.19112926104692
  C   1.03514249312287     -0.42615675533534      0.15674958658642
  Br  -0.87582366619812     -2.40434974596161     -0.48300128753794
  H   1.62661452755145     -0.89403063543626     -0.62746748765371
  H   1.20782154341009     -0.90202313302644      1.11983191306455
  N   -0.75395667167772      0.40044525368070     -1.23569886616600
  H   -1.74851223863335      0.49670530333401     -1.38828254570580
  H   -0.25189029363841      0.19280099832742     -2.08785610746279
  N   -1.30420573338927     -0.09263024429642      1.02249090488772
  O   -0.91292755639721     -0.47614950509913      2.11229581687529
  O   -2.34148157718812      0.51006807552556      0.78111217955103
  N   1.47986055731529      0.99827523240486      0.25200260575949
  O   0.93268120426138      1.68467097417733      1.10781568014425
  O   2.34506515884549      1.36599797358035     -0.53786313129560
