15
Coordinates from ORCA-job run
  C   0.74813910151075     -0.29410099137734     -0.22782352495936
  C   -0.68983228172244      0.25634735571820     -0.11489797215593
  F   0.77099425184947     -1.64153171250501     -0.25547739131546
  H   -0.68161579958367      1.32513544770642     -0.32049912886885
  C   1.35882679441637      0.23913014335703     -1.44886863460673
  N   1.79450775570470      0.68002006550581     -2.44716083671784
  N   1.59294972630088      0.19024226577425      0.95388082011663
  O   1.49803395540478      1.39508170517165      1.15617568507072
  O   2.26505593971672     -0.63253449036085      1.54591379539709
  N   -1.15433522792137      0.13559081223802      1.32178062344736
  O   -1.86736454983233      1.03672667080474      1.74049895324583
  O   -0.82376448127585     -0.88786834658146      1.91748792972451
  N   -1.61885065834982     -0.42070518174723     -0.94422408486977
  H   -1.76189540379975      0.02468059818373     -1.83679745896037
  H   -1.43084912241845     -1.40821434188797     -1.03898877454780
