15
Coordinates from ORCA-job run
  C   0.75711256525007     -0.22446525578346     -0.25289353798962
  C   -0.70273762125105      0.21946668519714     -0.05809145490049
  F   0.85539835569794     -1.55805232462822     -0.42851095156873
  H   -0.75284283847454      1.30660190197467     -0.09133421585558
  C   1.30372384003254      0.47098957494625     -1.42260826521894
  N   1.70078271326944      1.03668181583737     -2.37322190041671
  N   1.61476877376058      0.18464335327932      0.94949358067806
  O   1.42208072942131      1.33686941643255      1.31771538038369
  O   2.39937954791343     -0.63528994969271      1.38620756050607
  N   -1.16353296358194     -0.14333474746844      1.34618700360315
  O   -2.12052819042643      0.49103517012940      1.76336743228033
  O   -0.57515582456136     -1.05994844391055      1.91531975359251
  N   -1.59181071385860     -0.36471032123770     -0.99320782905699
  H   -1.33021418311704     -1.29466157134726     -1.28558602632771
  H   -1.81542419007436      0.23217469627164     -1.77283652970903
