15
Coordinates from ORCA-job run
  C   0.81844402958123      0.09294051808250     -0.51940453551994
  C   -0.72058235558174      0.01257497447760     -0.41960564230973
  F   1.24132640685641     -0.69992378383557     -1.53690590875940
  H   -1.13073515750504      0.73423336313913     -1.13249890073722
  C   1.30990723011110      1.45260612608452     -0.73929230402987
  N   1.66818695393308      2.53687137872237     -1.01533369199746
  N   1.47895769606877     -0.49044813619739      0.73361820701623
  O   2.59928566181851     -0.08770956797515      1.00542897001797
  O   0.84997435824543     -1.38115359830885      1.29499172253487
  N   -1.11720892764876      0.60377104724140      0.95349258396194
  O   -0.34484032635108      1.41589886206715      1.45487608943838
  O   -2.19569819323874      0.24466116556668      1.40233539773268
  N   -1.23361278310770     -1.26412669658041     -0.68667625118217
  H   -0.99060714645357     -1.92914695013834      0.03380822528667
  H   -2.23279744672791     -1.24104870234562     -0.82783396145295
