15
Coordinates from ORCA-job run
  C   0.80802431586572      0.08362698687653     -0.58495950261040
  C   -0.72392157404766      0.01960142452476     -0.41582520322045
  F   1.10200285370259     -0.39680677739934     -1.81111719894681
  H   -1.13561105959764      0.44335472968722     -1.33397283366392
  C   1.44500265907504      1.38792081208218     -0.40351212532462
  N   2.03803869483022      2.39709130477569     -0.29808850691451
  N   1.42867547087048     -0.85859252140463      0.45209405089082
  O   1.09941524248724     -0.59624705693280      1.60292679228522
  O   2.15576284590160     -1.74705575981120      0.05242147118722
  N   -1.19410168993335      0.98228132398871      0.68425556421741
  O   -1.69822415773066      0.49119941004831      1.68562217286632
  O   -1.05355423542108      2.17496684334010      0.43573841528570
  N   -1.12949020170639     -1.31909559537640     -0.23645029460301
  H   -2.07161216574835     -1.47206788969332     -0.56622764628359
  H   -1.07140699854776     -1.59117723470582      0.73809484483461
