15
Coordinates from ORCA-job run
  C   0.76843246588232     -0.22603337087034     -0.26976397846868
  C   -0.65898526318631      0.28404382247501     -0.05307892115022
  F   0.78267942676905     -1.57475156887816     -0.15700250936315
  H   -0.63546116850663      1.36762462204379      0.06925479183452
  C   1.28113678869001      0.18589970089621     -1.57579720473394
  N   1.72334098795581      0.50257804286726     -2.61705937722263
  N   1.72097131865315      0.36345467065308      0.78461174626525
  O   1.79231252240046      1.58253803040724      0.75685296970492
  O   2.30335370811613     -0.42149451473079      1.50884093612283
  N   -1.10356668336430     -0.26938362717929      1.31990798317166
  O   -2.01620238016634     -1.08480585248233      1.32481400234959
  O   -0.49583324394921      0.16487598932778      2.29224904303363
  N   -1.47301054440088     -0.11444849084119     -1.12933788569229
  H   -2.36626430042435      0.35711368042849     -1.12274475858579
  H   -1.62390363446895     -1.11521113411678     -1.13174683726571
