15
Coordinates from ORCA-job run
  C   0.75940053207348     -0.18273451329332     -0.17284158253980
  C   -0.72962046828899      0.21467042198080     -0.04994494185537
  F   0.88920527517875     -1.51952358100748     -0.02754015206440
  H   -0.79363025848159      1.30204555917757     -0.00391821058850
  C   1.28069017600657      0.24646056565598     -1.47001209928349
  N   1.64567640725048      0.58161103069699     -2.53555364936858
  N   1.58281165239245      0.51460770144117      0.91706531861769
  O   1.63519284909314      1.72988772351905      0.79455426775747
  O   2.06794273312873     -0.18997199458424      1.78353780474481
  N   -1.16672052073481     -0.29988719135006      1.30993094392295
  O   -1.74941594495414     -1.37460090477840      1.33853183065583
  O   -0.85203409268520      0.40139009224037      2.26758664446214
  N   -1.57970869973186     -0.31432662987836     -1.04811987654472
  H   -1.52909048170805      0.19792919120167     -1.91663377476604
  H   -1.45969915853896     -1.30755747102172     -1.18864252315000
