15
Coordinates from ORCA-job run
  C   0.80969178646564      0.41565019862098     -0.09605605111452
  C   -0.61074070719927     -0.04951169546477     -0.41935676935348
  F   1.06294750168314      1.61186002574167     -0.67494650159753
  H   -0.71024024350610     -0.06281807641052     -1.50521543245483
  C   1.07874499869185      0.46987356357213      1.33960316083057
  N   1.24518271457512      0.53605112516430      2.50099238489498
  N   1.74261055082625     -0.61474838561080     -0.75252322882241
  O   1.69797785678987     -0.61678629568002     -1.97391752276184
  O   2.41620936314013     -1.32168848673079     -0.01955434357655
  N   -1.55150564631346      1.06260932351618      0.05587945736818
  O   -1.94398805307829      0.97955210488627      1.21701997957208
  O   -1.82320467961530      1.93946636134798     -0.75664895772137
  N   -0.83463592276093     -1.31435137880881      0.16087667515851
  H   -0.94407913838532     -1.25284525107349      1.16662158540989
  H   -1.63497038131334     -1.78131313307031     -0.24177443583169
