15
Coordinates from ORCA-job run
  C   0.84317891989721      0.35402694254755     -0.03712216161016
  C   -0.56160799184221     -0.05421648247613     -0.48259444736084
  F   1.24466435557572      1.46917517147004     -0.68961345106590
  H   -0.53870057260241     -0.16996152624329     -1.56666328644243
  C   0.95241308795637      0.53559827582962      1.40907603438144
  N   0.99240004460897      0.70856135605238      2.57069361392241
  N   1.76760260788634     -0.79103695477292     -0.48051265592954
  O   2.29978428646693     -1.46263774188216      0.38921620133239
  O   1.86200493834701     -0.91077111958895     -1.69314598689055
  N   -1.46794604258504      1.15438152945447     -0.22754751272552
  O   -1.58375553417792      1.95980861403523     -1.14449895047201
  O   -1.99331137445557      1.21210679523769      0.88144929461442
  N   -0.93946682346059     -1.23910774130325      0.18078662827532
  H   -1.72336164555863     -1.69216491741215     -0.26777411164500
  H   -1.15389825605619     -1.07176220094811      1.15725079161596
