15
Coordinates from ORCA-job run
  C   0.76562480462920      0.05073758239285     -0.51045641874397
  C   -0.78477463330456      0.12121952644683     -0.38929709817829
  F   1.03490278656050     -0.68392724724510     -1.61842206945135
  H   -1.12603793290892      0.77524343001923     -1.19370063785136
  C   1.41439063162798      1.35417792889569     -0.59718064633047
  N   1.91468767097287      2.40796160014357     -0.74224650291539
  N   1.32325813583409     -0.70467768891341      0.69474158727640
  O   1.29230044712866     -1.92468816446430      0.61269540577846
  O   1.68806129083768     -0.01869711381032      1.63995750619109
  N   -1.09511191513961      0.83860432516525      0.90042689734163
  O   -1.15800732702021      2.06282736662371      0.84799517551199
  O   -1.22631053414763      0.12950201027069      1.89224873993581
  N   -1.47138391083109     -1.11503992464591     -0.42567749930549
  H   -1.45889938353106     -1.51108045776668     -1.35519328628972
  H   -1.11370013070789     -1.78316317311211      0.24410884703065
