15
Coordinates from ORCA-job run
  C   0.72563323114656     -0.29734780002995     -0.28652473288421
  C   -0.68352474074263      0.29097611884568     -0.06077889905502
  F   0.69403177903690     -1.63634545857144     -0.43750441093084
  H   -0.64136041214737      1.37346443212823     -0.16642452203220
  C   1.30844587554801      0.32309674078610     -1.47960011473364
  N   1.72720263819571      0.83108708559912     -2.45295755118796
  N   1.63593846702281      0.04540507754498      0.89629912192022
  O   1.59817916804811      1.22930947802320      1.20981197611398
  O   2.29452501460443     -0.85289225362706      1.38441765646044
  N   -1.09446415651362      0.05251809331549      1.37787834024261
  O   -1.75483877562722      0.93508206673359      1.90791056968282
  O   -0.77885226933291     -1.03233356267475      1.86263954148897
  N   -1.67091598074402     -0.27167027070031     -0.90767445677108
  H   -1.52706471422933     -1.25222701102860     -1.10099281061759
  H   -1.83393512426541      0.26087726365573     -1.74749970769650
