15
Coordinates from ORCA-job run
  C   0.73862247130964      0.09250289448371     -0.49442026825402
  C   -0.80215048877454      0.04163007939963     -0.29702016806430
  F   1.03525134159400     -0.74560872910195     -1.53366202783414
  H   -1.23175033008991      0.75179762737841     -1.01010668657222
  C   1.25590441491956      1.42303999712308     -0.79598587691585
  N   1.61999785048222      2.48432765285525     -1.14525930109680
  N   1.47239742589250     -0.49552118803929      0.70674754309444
  O   0.91202020086590     -1.45184092732416      1.23260514577165
  O   2.56351010203177     -0.02721750858401      0.99046090702757
  N   -1.09776054170359      0.66629950456011      1.07454707330222
  O   -0.21626596742653      1.40244738275055      1.51671520780730
  O   -2.17806932694919      0.43200859747543      1.58389359790504
  N   -1.42722294331593     -1.20360722623902     -0.43551926975989
  H   -0.91812749066331     -1.96611348995218     -0.01678607838466
  H   -1.72635671817260     -1.40514466678556     -1.37520979802635
