15
Coordinates from ORCA-job run
  C   0.71562530856725     -0.25745455317287     -0.24770450120689
  C   -0.70227281710572      0.29554604606114      0.02479356487178
  F   0.70561676006415     -1.60531105654615     -0.15703609769915
  H   -0.63861608041421      1.38057099251237      0.11016561521462
  C   1.16511675340463      0.16534213356589     -1.57351331443920
  N   1.46904140211831      0.50178851269615     -2.65767773656397
  N   1.70568886220173      0.29939340389136      0.78262005456262
  O   1.88461480283996      1.50549800224236      0.69347744439507
  O   2.18237662102417     -0.48940892763719      1.57834153414909
  N   -1.07261211467332     -0.22362742632372      1.40248529951921
  O   -1.76787070186433     -1.22839680356262      1.45144453943255
  O   -0.59706542850403      0.39872654040733      2.34826871165260
  N   -1.69160404322604     -0.09549710505307     -0.90652372290920
  H   -1.65984693465397      0.44315959927450     -1.75988149505876
  H   -1.69719238977858     -1.08932935835546     -1.08825989592035
