15
Coordinates from ORCA-job run
  C   0.70980798607687     -0.34089520915447     -0.27259028429153
  C   -0.68134356266536      0.28918545099245     -0.06211710032565
  F   0.65776633544971     -1.68822263173414     -0.26316951788909
  H   -0.63059895054073      1.35359660077845     -0.28425429845910
  C   1.24725324501369      0.12585085904202     -1.55418246902105
  N   1.63305621607713      0.51268673568355     -2.59454888377428
  N   1.67809314220562      0.12509413612398      0.81856210305016
  O   1.64440832138997      1.33410045626019      1.01387291197615
  O   2.37749960187951     -0.71488766074789      1.35116574367179
  N   -1.04583659898645      0.21691318099212      1.40939195627203
  O   -0.63630958170210     -0.75964945236051      2.03366688039171
  O   -1.76776894748396      1.11077069787139      1.82700994036505
  N   -1.70167629801744     -0.34522560695692     -0.81214557675064
  H   -1.56506769062602     -1.33778154350391     -0.93315428857722
  H   -1.92028321807042      0.11946398671370     -1.67850711663833
