15
Coordinates from ORCA-job run
  C   0.81801005138090      0.18329313542653     -0.36729090186929
  C   -0.63130971025477     -0.29247280284146     -0.25955819533976
  F   1.08447796445933      0.62013013261005     -1.61964941331350
  H   -0.78276821461478     -1.05312295400494     -1.02614653122171
  C   1.15669205595241      1.20729442928209      0.61920471853743
  N   1.38088001719963      2.05457766973713      1.40199612120053
  N   1.68266009525980     -1.06448391526510     -0.12633748373521
  O   1.58105417887268     -1.91425915056182     -0.99891286310932
  O   2.36414576051335     -1.09843600388161      0.88616935172131
  N   -1.50985736518159      0.88785109552907     -0.68681741623431
  O   -1.84841198123931      1.66095727319194      0.20586276566395
  O   -1.79039266589351      0.96359583395671     -1.87778158301081
  N   -0.87070034953008     -0.77931843970348      1.04135603936984
  H   -0.92955895012637     -0.02825131454481      1.71942620088752
  H   -1.70492088679768     -1.34735498893032      1.08747919045332
