15
Coordinates from ORCA-job run
  C   0.85757381316320      0.24450970788227     -0.19851931268928
  C   -0.57930881447622     -0.23797740918902     -0.40072896137424
  F   1.29649498409442      0.90673949207918     -1.29353221895264
  H   -0.59659061208136     -0.84236422708545     -1.30820497720871
  C   1.02081959455929      1.06601842395482      0.99944178237124
  N   1.11928923277573      1.76118789912400      1.94177196046118
  N   1.70745010423885     -1.02877712562037     -0.06475116638159
  O   2.23434689404523     -1.25167871662759      1.01391444403042
  O   1.75665736890738     -1.70176102717122     -1.08387100765955
  N   -1.41269428732335      1.00470456716187     -0.73127501960598
  O   -1.89763244661470      1.60108012125707      0.22701267761682
  O   -1.51607218000456      1.29989564678733     -1.91658745452443
  N   -0.99797271485703     -0.95645980435240      0.73726725193690
  H   -1.81562395428337     -1.52032502206403      0.55216215394117
  H   -1.17573698214351     -0.34379252613647      1.52489984803869
