15
Coordinates from ORCA-job run
  C   0.80705288306654      0.15774052891517     -0.40129136825655
  C   -0.57869380227173     -0.43983787963870     -0.15368911164905
  F   1.08047611543349      0.19454426304542     -1.72568830990230
  H   -0.60078973070471     -1.42081246009048     -0.62945041197081
  C   0.97242799819339      1.48134492350725      0.19647069926506
  N   1.05517836846046      2.55809601134280      0.65978017075673
  N   1.80148954762241     -0.82199503244591      0.24257049053465
  O   1.84542427475677     -1.91432075725868     -0.30391567925974
  O   2.43101465279535     -0.43754131263898      1.21547894780279
  N   -1.56907846795507      0.41510204328341     -0.95120807957536
  O   -2.03996601642525      1.38610180825912     -0.36424078257045
  O   -1.79729356348309      0.06411121339605     -2.10335553253161
  N   -0.82183838953084     -0.50499620522428      1.23314186421705
  H   -1.00433799324547      0.41096952427708      1.62683767509096
  H   -1.58306587671224     -1.13050666872926      1.45655942804865
