15
Coordinates from ORCA-job run
  C   0.78779369637987     -0.19010964833947     -0.24213030858473
  C   -0.67319101538323      0.23917696632144     -0.08220576467930
  F   0.88274375180878     -1.52801419851141     -0.06169647204450
  H   -0.71986437423225      1.32674078262460     -0.01384004095746
  C   1.30596120872819      0.18966765323363     -1.55564195145882
  N   1.75361684389133      0.48110515166046     -2.60197891190799
  N   1.67510085509494      0.50867275557821      0.80303011465698
  O   2.28430921909017     -0.20273364779932      1.57924859920359
  O   1.67198672497414      1.72697221631899      0.71621778786009
  N   -1.11684590797815     -0.27284366056632      1.30746754467456
  O   -1.97469260308307     -1.14541778085832      1.33352085372841
  O   -0.56440925727838      0.24879232926081      2.26986355061995
  N   -1.43442035607496     -0.26250713274496     -1.15396566457318
  H   -2.35578104568325      0.15026892902301     -1.18855318135303
  H   -1.52230774025411     -1.26977071520135     -1.10833615518459
