15
Coordinates from ORCA-job run
  C   0.80452509336237     -0.22691765125490     -0.12582667735723
  C   -0.65617045774347      0.22915531416455     -0.17736822173429
  F   0.85511418310712     -1.52741635699323      0.24625487373421
  H   -0.68623792145897      1.31703243587875     -0.25246713183072
  C   1.45758517020982     -0.03696675894614     -1.42061399413729
  N   2.00879012859044      0.10883695926450     -2.44775069608479
  N   1.60174588484407      0.60583584464789      0.89342545871572
  O   2.15223944571010      0.00257524027737      1.79475790601574
  O   1.60574513427132      1.80369920285885      0.65474875372063
  N   -1.25627390364208     -0.09569769614120      1.21020638733000
  O   -0.74962507941640      0.48890908730585      2.16140844749034
  O   -2.18237408104801     -0.89473359551235      1.24536184579119
  N   -1.31255911259650     -0.39784591645628     -1.25255122349618
  H   -1.42760573609937     -1.39045020248045     -1.09161615116552
  H   -2.21589874809043      0.01498409338680     -1.43596957699180
