15
Coordinates from ORCA-job run
  C   0.74062867469382      0.06605920752718     -0.54758436355321
  C   -0.80345636343250      0.10215068928501     -0.35245819941987
  F   0.97297066202065     -0.66585707922745     -1.66572099695171
  H   -1.19721245224001      0.74655119355486     -1.14042210217236
  C   1.35231375834447      1.38460983985316     -0.66771242085605
  N   1.80165190295137      2.45934082035471     -0.82473981054146
  N   1.37360262660557     -0.67264608977980      0.63039512973858
  O   1.77135216586124      0.02417690601345      1.55405956305365
  O   1.36396542813051     -1.89327607492815      0.55351724954897
  N   -1.06928140150346      0.81477988325940      0.94966710183003
  O   -1.12701948791750      0.10501064582539      1.94810794118652
  O   -1.17483482252873      2.03601298371494      0.89835025862850
  N   -1.46280348864527     -1.14957337219653     -0.35390149945161
  H   -1.05920131645644     -1.80612980927470      0.30119752501717
  H   -1.48267588588372     -1.54920974398148     -1.28175537605714
