15
Coordinates from ORCA-job run
  C   0.74290534717646      0.06199059215807     -0.54228626125718
  C   -0.80211158977355      0.10344465463296     -0.35705122708020
  F   0.98072948435447     -0.67510307615382     -1.65567776046177
  H   -1.18950074672105      0.74667314283685     -1.14911110735021
  C   1.36116115697429      1.37741605177091     -0.66412099304246
  N   1.83246696720901      2.44050925354104     -0.83531562355799
  N   1.36492678460116     -0.67368595679261      0.64344776933091
  O   1.75603633163401      0.02600686826968      1.56780358351158
  O   1.35417472129409     -1.89454415526590      0.57084417437856
  N   -1.07294400241096      0.82175188016032      0.94107469356435
  O   -1.16585418942981      2.04391656322566      0.88498103164286
  O   -1.14678629984775      0.11597686671734      1.94120497082928
  N   -1.46519947307914     -1.14619614077876     -0.35898366947422
  H   -1.06604893772223     -1.80377019464023      0.29784687850370
  H   -1.48395555425900     -1.54638634968152     -1.28665645953720
