15
Coordinates from ORCA-job run
  C   0.76253988781374     -0.30380963913365     -0.20418584564508
  C   -0.63479303161821      0.31636906631744     -0.11867389416886
  F   0.68020976539483     -1.62849397850586      0.06153236186305
  H   -0.54295099398483      1.40320391409559     -0.12017047461500
  C   1.35672170386053     -0.08004284680889     -1.52140537657445
  N   1.86266913866038      0.08416133489716     -2.56889486554970
  N   1.70666529789016      0.34344604327902      0.82355791530438
  O   2.20094944819777     -0.38694142833052      1.66142224178326
  O   1.86210881108193      1.54407743190768      0.66173157382108
  N   -1.17374686996560     -0.04220589016029      1.28486245202994
  O   -2.13754200608068     -0.79474017541134      1.33766813719504
  O   -0.58144650113792      0.46687721448662      2.23011229962489
  N   -1.42795585514729     -0.15473725720787     -1.18129933063523
  H   -2.28689359510624      0.36908473227246     -1.27226009497357
  H   -1.64653519985855     -1.13724852169755     -1.07499709945975
