15
Coordinates from ORCA-job run
  C   0.84921714310417      0.04852267251841     -0.52730831773551
  C   -0.69117586655874     -0.00468183812825     -0.46783535579119
  F   1.23004215730461     -0.50267290958473     -1.69869810899288
  H   -1.03202812846953      0.36396568587861     -1.43731805093393
  C   1.47808042373097      1.36048832723865     -0.37587733722084
  N   2.06389174151867      2.37630190970027     -0.29759010897488
  N   1.38718591296377     -0.83225309815303      0.60553067898060
  O   2.13556629249373     -1.74440586290585      0.31311454149951
  O   0.97729672315453     -0.50090133337091      1.71189899697028
  N   -1.23593893766272      1.02191310447408      0.53599240611597
  O   -1.07278118766533      2.19765348758132      0.22774854927404
  O   -1.81301473393973      0.59125818194150      1.52563897189490
  N   -1.11543085597200     -1.32990562347970     -0.23929597713185
  H   -1.13009177915935     -1.54301433820087      0.75132896106236
  H   -2.03181890484304     -1.50126836550951     -0.62732984901657
