15
Coordinates from ORCA-job run
  C   0.80079367930680     -0.14387512876473     -0.22456850095126
  C   -0.68094724482235      0.21465132146786     -0.08453291713874
  F   0.94957349384027     -1.48433106742898     -0.10913197359326
  H   -0.77529532048902      1.29318327149112      0.04860879722387
  C   1.33660946760550      0.32334044067142     -1.50248989946010
  N   1.80306745417362      0.68494643168300     -2.51834741844584
  N   1.63389978328940      0.53782843608672      0.87523993143352
  O   1.55941702348835      1.75692586298664      0.86465558931628
  O   2.28154687990432     -0.18340521586662      1.60949743828488
  N   -1.14462011643482     -0.39935436553674      1.25685337338497
  O   -0.60061456798569      0.04189152142254      2.26291743350559
  O   -2.01213558928222     -1.26107446187295      1.20631393854975
  N   -1.39029086105567     -0.24746370860382     -1.20852756873813
  H   -1.43342012067310     -1.25838554362953     -1.23243133494392
  H   -2.32858396086541      0.12512220589406     -1.24205688842760
