11

C	0.0	0.0	0.0
C	-0.512348	0.057159	-1.431717
F	1.382356	0.0	0.0
H	-1.609595	-0.00466	-1.368982
H	-0.361761	-0.900103	0.499339
H	-0.229931	1.008683	-1.888318
C	-0.406464	1.194266	0.76256
N	-0.545526	2.186153	1.374208
C	0.03271	-1.042115	-2.219444
N	0.462465	-1.926872	-2.860027
Cl	-3.422713	0.0	0.0
