11

C	0.0	0.0	0.0
C	-0.502093	0.409714	-1.377825
F	1.380102	0.0	0.0
H	-0.193987	1.437366	-1.587805
H	-0.365049	-0.993956	0.261679
H	-1.601127	0.355998	-1.337981
C	-0.411629	0.972888	1.028135
N	-0.546862	1.787114	1.862503
C	0.039257	-0.472533	-2.406137
N	0.478505	-1.172088	-3.240269
Cl	-3.391522	0.0	0.0
