11

C	0.0	0.0	0.0
C	-0.51532	-0.249127	-1.410246
F	1.376797	0.0	0.0
H	-0.20595	0.569852	-2.065025
H	-0.368611	-0.772492	0.678107
H	-1.615204	-0.261969	-1.33528
C	-0.410278	1.331672	0.483807
N	-0.537484	2.438506	0.851998
C	-0.013789	-1.514548	-1.934455
N	0.38177	-2.535933	-2.357109
Cl	-3.414143	0.0	0.0
