11

C	0.0	0.0	0.0
C	-0.500255	0.14914	-1.429779
F	1.38049	0.0	0.0
H	-0.226593	-0.749512	-1.990177
H	-0.372477	-0.934392	0.421284
H	-1.597446	0.212474	-1.374516
C	-0.404548	1.125838	0.86171
N	-0.546553	2.044154	1.578538
C	0.078276	1.313276	-2.092333
N	0.542057	2.236206	-2.649929
Cl	-3.400413	0.0	0.0
