18

C	-0.264174	-0.053091	-1.512821
C	0.0	0.0	0.0
Cl	0.074262	1.696253	-2.134655
H	1.087128	0.0	0.0
N	0.709028	-0.950224	-1.990111
H	0.771023	-0.934569	-2.998974
H	1.615151	-0.750372	-1.536025
C	-1.667659	-0.380632	-1.9747
H	-2.37476	0.350772	-1.590529
H	-1.705128	-0.377426	-3.067039
H	-1.937579	-1.377135	-1.617453
N	-0.511172	-1.245494	0.646561
O	0.199582	-2.241437	0.583687
O	-1.620961	-1.197623	1.190043
N	-0.611178	1.113706	0.758321
O	-0.064622	1.375125	1.829795
O	-1.625355	1.664298	0.332005
F	2.551368	0.0	0.0
