18

C	-0.395619	0.085718	-1.480954
C	0.0	0.0	0.0
Cl	-0.006762	-1.532875	-2.199087
H	1.087506	0.0	0.0
N	-1.810269	0.28402	-1.696282
H	-1.966419	0.399879	-2.691299
H	-2.070989	1.143962	-1.227295
C	0.563501	1.071455	-2.146107
H	0.295167	2.086676	-1.849996
H	1.57606	0.844181	-1.797401
H	0.488799	0.983039	-3.233329
N	-0.615958	-1.15793	0.701054
O	0.064108	-2.170055	0.833093
O	-1.778217	-1.022898	1.091765
N	-0.40057	1.189004	0.800727
O	-0.897511	2.17482	0.245885
O	-0.14609	1.128978	1.999119
F	2.526797	0.0	0.0
