18

C	-0.226598	0.008239	-1.540813
C	0.0	0.0	0.0
Cl	-0.06213	1.758353	-2.011943
H	1.088531	0.0	0.0
N	0.855125	-0.69025	-2.18188
H	0.68602	-1.680372	-2.044219
H	1.709957	-0.465967	-1.645505
C	-1.577175	-0.465993	-2.035023
H	-1.598329	-0.365323	-3.120561
H	-2.375633	0.125828	-1.592005
H	-1.717055	-1.517501	-1.774652
N	-0.452846	-1.256398	0.634419
O	-0.264472	-2.30395	0.012381
O	-0.915682	-1.200541	1.773448
N	-0.654651	1.102551	0.736902
O	-1.873662	1.224391	0.5922
O	0.048837	1.821246	1.440012
F	2.542225	0.0	0.0
