18

C	-0.365823	-0.029347	-1.480654
C	0.0	0.0	0.0
Cl	-2.14533	-0.640561	-1.696209
H	1.08914	0.0	0.0
N	-0.194407	1.25317	-2.044356
H	-0.859772	1.916105	-1.670648
H	-0.259028	1.202014	-3.051736
C	0.540465	-1.019199	-2.194791
H	0.300778	-2.042458	-1.92207
H	1.559588	-0.786551	-1.867472
H	0.418634	-0.898907	-3.275831
N	-0.480126	-1.208512	0.719692
O	0.038028	-2.272212	0.391166
O	-1.350078	-1.084732	1.580358
N	-0.493703	1.167593	0.771212
O	-1.373886	1.897728	0.304857
O	0.029527	1.328132	1.868633
F	2.510769	0.0	0.0
