18

C	-0.481338	0.042743	-1.459561
C	0.0	0.0	0.0
Cl	0.05818	-1.524257	-2.177267
H	1.086813	0.0	0.0
N	-1.90023	0.169547	-1.703294
H	-2.196206	1.093512	-1.408618
H	-2.381472	-0.515538	-1.131475
C	0.301183	1.136954	-2.167184
H	1.350521	1.040838	-1.879191
H	-0.060455	2.121428	-1.862025
H	0.165008	1.02517	-3.243515
N	-0.530867	-1.129301	0.808798
O	-1.505388	-1.772957	0.410914
O	0.045981	-1.327498	1.874553
N	-0.48631	1.223067	0.698487
O	-1.537892	1.150973	1.344811
O	0.179423	2.24739	0.56225
F	2.510144	0.0	0.0
