18

C	-0.609418	0.026452	-1.410431
C	0.0	0.0	0.0
Cl	0.202794	1.363703	-2.307716
H	1.087068	0.0	0.0
N	-0.234986	-1.189893	-2.104599
H	-0.4609	-1.08185	-3.086382
H	-0.766684	-1.956157	-1.711403
C	-2.105819	0.331365	-1.440844
H	-2.639894	-0.434476	-0.87574
H	-2.336077	1.309803	-1.017822
H	-2.445641	0.317502	-2.479645
N	-0.422405	-1.176367	0.805739
O	0.043202	-1.227987	1.939117
O	-1.167209	-2.041132	0.325415
N	-0.488067	1.177402	0.778676
O	-1.510568	1.0488	1.460699
O	0.141291	2.223029	0.655153
F	2.467783	0.0	0.0
