18

C	-0.11827	-0.001173	-1.535676
C	0.0	0.0	0.0
Cl	-1.778947	0.381737	-2.124495
H	1.090139	0.0	0.0
N	0.816853	0.94378	-2.112027
H	1.701528	0.740175	-1.621337
H	0.538625	1.872534	-1.812523
C	0.281905	-1.387742	-2.011228
H	-0.438024	-2.151668	-1.712777
H	1.261692	-1.600129	-1.573094
H	0.358648	-1.35612	-3.098795
N	-0.614529	-1.189163	0.625352
O	-1.84478	-1.220543	0.69274
O	0.136754	-2.093511	0.984874
N	-0.492727	1.192151	0.712655
O	-0.50324	2.263309	0.108448
O	-0.777533	1.058278	1.901917
F	2.555824	0.0	0.0
