18

C	-0.454463	0.036552	-1.470478
C	0.0	0.0	0.0
Cl	0.109729	-1.527487	-2.179111
H	1.086803	0.0	0.0
N	-1.868368	0.155497	-1.740683
H	-2.361485	-0.527312	-1.17686
H	-2.175198	1.081976	-1.464586
C	0.33781	1.132888	-2.165142
H	0.222104	1.017799	-3.24356
H	-0.031547	2.117623	-1.869559
H	1.381875	1.038041	-1.857251
N	-0.539751	-1.1263	0.80428
O	-0.010296	-1.291174	1.90029
O	-1.473578	-1.804937	0.369952
N	-0.503213	1.22341	0.683415
O	0.159467	2.249894	0.553141
O	-1.570655	1.151922	1.303372
F	2.512183	0.0	0.0
