18

C	-0.14803	0.031718	-1.518565
C	0.0	0.0	0.0
Cl	-1.846736	0.249204	-2.110289
H	1.08861	0.0	0.0
N	0.623324	1.198864	-1.89851
H	0.774786	1.164402	-2.900936
H	1.529741	1.088827	-1.423616
C	0.425086	-1.253403	-2.107773
H	1.428449	-1.34953	-1.681932
H	-0.180399	-2.129166	-1.885817
H	0.496672	-1.133775	-3.192702
N	-0.554882	-1.159493	0.726983
O	-0.259479	-1.209074	1.920258
O	-1.252683	-1.987381	0.140683
N	-0.551928	1.209005	0.661329
O	0.186611	2.179815	0.77861
O	-1.725089	1.152929	1.038477
F	2.563124	0.0	0.0
