15

C	-0.241841	-0.065664	-1.497442
C	0.0	0.0	0.0
Br	-2.180817	-0.477156	-1.95225
H	1.098331	0.0	0.0
C	-0.035242	1.260197	-2.103512
N	0.196894	2.262804	-2.674037
N	0.596476	-1.095287	-2.008763
H	0.673043	-1.043228	-3.016137
H	1.527897	-0.963388	-1.576466
C	-0.433942	-1.22289	0.66292
N	-0.785555	-2.156658	1.286195
N	-0.469782	1.220735	0.613533
H	0.247538	1.549156	1.24972
H	-1.332698	1.079058	1.121022
H	2.631976	0.0	0.0
