15

C	-0.250981	-0.137676	-1.489228
C	0.0	0.0	0.0
Br	-2.203989	-0.470261	-1.921408
H	1.10803	0.0	0.0
C	0.033252	1.13785	-2.169008
N	0.336719	2.081512	-2.802975
N	0.531209	-1.237876	-1.944794
H	1.473277	-1.112426	-1.542511
H	0.585669	-1.258267	-2.955641
C	-0.45877	-1.178219	0.721604
N	-0.850012	-2.078766	1.36899
N	-0.449018	1.261118	0.546688
H	-1.311852	1.161493	1.065185
H	0.277998	1.614966	1.159108
H	2.618805	0.0	0.0
