15

C	-0.583419	-0.006224	-1.412754
C	0.0	0.0	0.0
Br	0.523516	1.30408	-2.53022
H	1.097417	0.0	0.0
C	-0.406493	-1.289607	-2.092046
N	-0.27147	-2.316696	-2.647391
N	-1.947079	0.377287	-1.394414
H	-1.994157	1.225732	-0.835677
H	-2.292521	0.553936	-2.33064
C	-0.478742	-1.157679	0.733014
N	-0.82966	-2.076197	1.379785
N	-0.368239	1.263024	0.656684
H	-0.859323	1.081451	1.521432
H	0.517546	1.710876	0.890591
H	2.586339	0.0	0.0
