15

C	-0.217917	-0.08648	-1.534493
C	0.0	0.0	0.0
Br	-0.007157	-2.054598	-2.116332
H	1.103373	0.0	0.0
C	-1.58633	0.229143	-1.948092
N	-2.68765	0.543536	-2.217825
N	0.731585	0.765746	-2.113098
H	0.761555	0.706521	-3.122305
H	1.654449	0.590796	-1.675805
C	-0.613749	-1.079654	0.752934
N	-1.120675	-1.907475	1.415039
N	-0.383853	1.284567	0.555788
H	-1.288422	1.591598	0.21309
H	0.323088	1.957936	0.285132
H	2.684768	0.0	0.0
