13

C	-0.488546	0.019654	-1.432007
C	0.0	0.0	0.0
Br	0.045383	-1.537491	-2.432301
H	1.098512	0.0	0.0
H	-0.106039	0.890269	-1.962288
H	-0.339048	0.940698	0.443994
N	-1.997648	0.173682	-1.43467
O	-2.728157	-0.754526	-1.742748
O	-2.371595	1.287173	-1.067577
N	-0.616078	-1.11108	0.729518
H	-0.473252	-0.94161	1.717958
H	-0.088289	-1.950186	0.515279
Cl	3.485908	0.0	0.0
