13

C	-0.588962	0.064084	-1.404652
C	0.0	0.0	0.0
Br	0.129971	1.502624	-2.451735
H	1.092125	0.0	0.0
H	-1.666024	0.209422	-1.346479
H	-0.349302	-0.943469	0.431831
N	-0.423128	-1.272644	-2.096259
O	0.428078	-1.435762	-2.956141
O	-1.194677	-2.138863	-1.672274
N	-0.51408	1.148042	0.752561
H	-0.959478	0.833842	1.601577
H	0.271475	1.726832	1.019424
Cl	3.472569	0.0	0.0
