13

C	-0.449035	-0.084997	-1.43712
C	0.0	0.0	0.0
Br	-2.396855	-0.122247	-1.606287
H	1.095727	0.0	0.0
H	-0.07883	-0.979063	-1.930299
H	-0.355799	0.937073	0.436881
N	0.027299	1.08448	-2.246456
O	-0.117548	2.202002	-1.761812
O	0.516988	0.831554	-3.344258
N	-0.443303	-1.207395	0.695561
H	0.321233	-1.535799	1.270301
H	-1.232006	-1.008451	1.293748
Cl	3.407123	0.0	0.0
