13

C	-0.393016	-0.022291	-1.472359
C	0.0	0.0	0.0
Br	-2.331911	-0.075523	-1.742944
H	1.09529	0.0	0.0
H	0.01157	-0.895543	-1.978873
H	-0.32465	-0.965337	0.402881
N	0.121603	1.157126	-2.24602
O	0.792844	0.90374	-3.243251
O	-0.156812	2.279493	-1.833159
N	-0.495288	1.073476	0.832651
H	0.024335	1.915767	0.626933
H	-1.471831	1.256561	0.637345
Cl	3.416226	0.0	0.0
