13

C	-0.509154	-0.029258	-1.432167
C	0.0	0.0	0.0
Br	-2.352442	-0.656103	-1.543856
H	1.092872	0.0	0.0
H	0.087497	-0.688791	-2.05997
H	-0.298112	-0.953574	0.455672
N	-0.400644	1.343997	-2.047237
O	0.731585	1.617904	-2.430227
O	-1.376486	2.079259	-2.08373
N	-0.483913	1.174772	0.704506
H	-1.318111	0.977119	1.238135
H	0.240978	1.499238	1.328932
Cl	3.441315	0.0	0.0
