13

C	-0.412336	-0.005194	-1.447335
C	0.0	0.0	0.0
Br	-2.345787	-0.018116	-1.721701
H	1.102932	0.0	0.0
H	-0.023301	-0.881001	-1.961646
H	-0.321291	-0.96815	0.398273
N	0.12344	1.162456	-2.236358
O	0.456869	0.929044	-3.394505
O	0.166898	2.258594	-1.68706
N	-0.615133	1.054972	0.802214
H	-0.174195	1.929357	0.545634
H	-0.355201	0.875597	1.765438
Cl	3.446185	0.0	0.0
