13

C	-0.489518	-0.030298	-1.424672
C	0.0	0.0	0.0
Br	-0.132486	-1.715223	-2.309579
H	1.094946	0.0	0.0
H	-0.055562	0.763384	-2.026587
H	-0.360293	-0.884253	0.53123
N	-1.979428	0.188859	-1.475275
O	-2.66326	-0.354583	-0.612031
O	-2.410237	0.892622	-2.384819
N	-0.471781	1.264806	0.571655
H	0.302018	1.71166	1.045016
H	-1.21108	1.10015	1.24058
Cl	3.443929	0.0	0.0
