14

C	0.0	0.0	0.0
C	-0.45045	-0.134355	-1.44514
Cl	1.809957	0.0	0.0
H	-0.02487	0.664355	-2.056331
H	-1.542882	-0.080257	-1.476101
H	-0.122856	-1.099268	-1.834449
C	-0.436458	1.331921	0.599537
H	-0.054648	2.174485	0.017013
H	-1.531132	1.354749	0.60595
H	-0.062373	1.422897	1.624628
N	-0.463634	-1.154311	0.73759
H	-0.330836	-0.977598	1.727833
H	-1.475245	-1.185212	0.584247
Br	-3.945057	0.0	0.0
