14

C	-0.468396	-0.027644	-1.43155
C	0.0	0.0	0.0
F	-1.874419	0.015256	-1.516119
H	1.094107	0.0	0.0
H	-0.335993	0.952343	0.425206
C	0.024601	1.139134	-2.19015
N	0.404172	2.059042	-2.812503
C	-0.057481	-1.261882	-2.132308
N	0.254226	-2.231511	-2.716171
C	-0.508243	-1.188036	0.802866
H	-0.100105	-2.121487	0.405978
H	-1.599454	-1.257385	0.821213
H	-0.144633	-1.094641	1.82893
H	2.848757	0.0	0.0
