14

C	-0.466306	-0.026221	-1.441671
C	0.0	0.0	0.0
F	-0.025167	1.10015	-2.120001
H	1.094257	0.0	0.0
H	-0.327869	-0.933495	0.472431
C	0.028159	-1.219921	-2.160125
N	0.389798	-2.154436	-2.772063
C	-1.94684	-0.024225	-1.536866
N	-3.121576	-0.016198	-1.563448
C	-0.515365	1.218901	0.750713
H	-1.602998	1.229025	0.877306
H	-0.048073	1.235433	1.737841
H	-0.210387	2.132052	0.236392
H	2.87012	0.0	0.0
