14

C	-0.462214	-0.013672	-1.433771
C	0.0	0.0	0.0
F	-1.869703	0.02433	-1.522776
H	1.094731	0.0	0.0
H	-0.337725	0.947432	0.433929
C	0.021662	1.165326	-2.177478
N	0.33735	2.122351	-2.780068
C	-0.049527	-1.240969	-2.143424
N	0.206793	-2.232321	-2.717425
C	-0.507446	-1.197234	0.790201
H	-0.098104	-2.125617	0.383765
H	-1.597976	-1.268288	0.807792
H	-0.143792	-1.112974	1.81679
H	2.848358	0.0	0.0
