14

C	-0.461799	-0.012007	-1.433946
C	0.0	0.0	0.0
F	-1.868894	0.027493	-1.522781
H	1.094505	0.0	0.0
H	-0.338611	0.946284	0.435488
C	0.023337	1.167336	-2.176365
N	0.336942	2.126904	-2.775616
C	-0.050113	-1.239201	-2.144125
N	0.208756	-2.229572	-2.718492
C	-0.507643	-1.199648	0.786134
H	-1.59786	-1.27528	0.79802
H	-0.092112	-2.125674	0.380774
H	-0.149928	-1.11472	1.814605
H	2.849511	0.0	0.0
