14

C	-0.446774	0.028294	-1.437795
C	0.0	0.0	0.0
F	-1.853366	0.002158	-1.542746
H	1.094093	0.0	0.0
H	-0.339146	-0.951866	0.421757
C	-0.017468	1.259801	-2.133487
N	0.272838	2.237425	-2.713999
C	0.033105	-1.150384	-2.184959
N	0.365744	-2.103119	-2.784868
C	-0.511013	1.190912	0.795621
H	-0.151873	1.098808	1.821879
H	-0.101296	2.122878	0.398134
H	-1.600838	1.261875	0.809032
H	2.854371	0.0	0.0
