16
Coordinates from ORCA-job run
  C   -0.61554799839699      0.10267756714853     -0.21105926424839
  C   0.71847132067372     -0.63484736353611     -0.24364219468952
  Cl  -0.93386183373206      0.87945714492903     -1.77118979208063
  H   0.78975194503367     -1.20631488417396      0.68600732704607
  H   0.66227009540329     -1.34976368825325     -1.06951699336504
  C   -1.78774965445835     -0.78668886636844      0.15391317558675
  H   -2.71192411946828     -0.20702623398453      0.18719708058220
  H   -1.89277681728495     -1.56398328193360     -0.60415733794852
  H   -1.61417225386101     -1.24673791866989      1.12621954753104
  N   -0.48429356314376      1.17968323771071      0.87043160714947
  O   -0.45644621183043      2.36228166397735      0.56510606755941
  O   -0.36538942889426      0.72346430332201      2.00542489183009
  C   1.93540887808339      0.26934777159596     -0.39662687791359
  H   2.05961208239600      0.91733232872022      0.47357956279420
  H   1.85952033534994      0.89716771784714     -1.28524081920815
  H   2.83812722413010     -0.33804949833117     -0.48544598062539
