16
Coordinates from ORCA-job run
  C   -0.73858134275600      0.24980792536378     -0.26645832037138
  C   0.61883925486918      0.10907757577661     -0.93875312796587
  Cl  -1.91364783541154      0.88360739356494     -1.45000179558779
  H   0.50896949140038     -0.63780082843146     -1.73040344332451
  H   0.85199023573953      1.06127714980279     -1.41856550175503
  C   -1.28809664476881     -1.01847541419887      0.34175599834203
  H   -1.39138603547754     -1.76298618786659     -0.44943145449649
  H   -0.62261542675689     -1.39930821467496      1.11514389365015
  H   -2.26509142515766     -0.83920491944584      0.78786806745877
  N   -0.58914943914786      1.32945470500450      0.80870495500182
  O   -0.86583495186216      1.02134880261686      1.96458929336167
  O   -0.15564628708811      2.41351728459009      0.43906269757713
  C   1.73808838934667     -0.28135827003369      0.02246871657286
  H   2.68055091949570     -0.34387069085618     -0.52510635812310
  H   1.86879870884825      0.46447296574909      0.80960062063828
  H   1.56481238872687     -1.25155927696106      0.49052575902146
