15

C	-0.548774	-0.06267	-1.425002
C	0.0	0.0	0.0
Cl	0.24222	-1.300551	-2.391685
H	1.095081	0.0	0.0
H	-1.623357	-0.243564	-1.440454
N	-0.396892	1.29281	-2.074884
O	-1.419138	1.985538	-2.067173
O	0.70115	1.623833	-2.495566
C	-0.477323	-1.196568	0.691151
N	-0.901875	-2.120517	1.278657
C	-0.460152	1.257241	0.745592
H	-0.111465	1.192585	1.77723
H	0.003523	2.137209	0.298143
H	-1.546543	1.375661	0.737978
Cl	3.277604	0.0	0.0
