15

C	-0.55254	-0.032271	-1.423168
C	0.0	0.0	0.0
Cl	0.221962	-1.258816	-2.414839
H	1.095062	0.0	0.0
H	-1.627255	-0.206539	-1.436154
N	-0.394546	1.331383	-2.053216
O	0.70131	1.662597	-2.475769
O	-1.411176	2.027771	-2.031921
C	-0.478216	-1.208148	0.668685
N	-0.901926	-2.144433	1.237436
C	-0.45717	1.243229	0.771688
H	-1.543499	1.363737	0.766267
H	0.007431	2.131788	0.34246
H	-0.108878	1.157552	1.801597
Cl	3.284999	0.0	0.0
