15

C	-0.386685	-0.04687	-1.475617
C	0.0	0.0	0.0
Cl	0.155711	1.376855	-2.355449
H	1.095919	0.0	0.0
H	0.041814	-0.925345	-1.952921
N	-1.882214	-0.194926	-1.641132
O	-2.591769	0.780743	-1.417284
O	-2.27738	-1.320541	-1.942284
C	-0.457252	-1.235958	0.632183
N	-0.825912	-2.221849	1.154701
C	-0.483842	1.22144	0.780203
H	-0.046672	1.178055	1.779087
H	-1.571079	1.260047	0.862061
H	-0.126437	2.131212	0.298433
Cl	3.257914	0.0	0.0
