15

C	-0.554191	-0.031714	-1.423638
C	0.0	0.0	0.0
Cl	0.229425	-1.247866	-2.420085
H	1.095019	0.0	0.0
H	-1.628027	-0.212577	-1.436447
N	-0.406682	1.335354	-2.0503
O	-1.430321	2.022211	-2.028467
O	0.687135	1.677403	-2.47151
C	-0.476162	-1.208936	0.667796
N	-0.892701	-2.151074	1.232901
C	-0.456987	1.242352	0.77321
H	0.006663	2.131343	0.343416
H	-0.106575	1.156281	1.8027
H	-1.543681	1.362456	0.76971
Cl	3.284101	0.0	0.0
