15

C	-0.387661	0.135426	-1.453475
C	0.0	0.0	0.0
Cl	-2.149134	0.221695	-1.721627
H	1.095652	0.0	0.0
H	0.055897	1.035443	-1.871892
N	0.134393	-0.986132	-2.314222
O	-0.08627	-2.13262	-1.945337
O	0.707722	-0.646604	-3.346048
C	-0.542383	-1.183979	0.654693
N	-0.996691	-2.06777	1.281427
C	-0.403418	1.257652	0.780569
H	0.029383	2.137238	0.298191
H	-1.487132	1.371347	0.848866
H	0.015584	1.192541	1.785227
Cl	3.244121	0.0	0.0
