15

C	-0.408978	0.001789	-1.469763
C	0.0	0.0	0.0
Cl	0.284208	1.35934	-2.348658
H	1.095953	0.0	0.0
H	-0.099644	-0.918742	-1.959929
N	-1.918419	0.032667	-1.583922
O	-2.457873	-1.071663	-1.670577
O	-2.497748	1.112562	-1.521311
C	-0.459759	-1.239303	0.622739
N	-0.8187	-2.2226	1.157215
C	-0.473626	1.216038	0.796266
H	-0.000865	1.179319	1.778615
H	-0.147973	2.131129	0.301335
H	-1.558271	1.240822	0.919276
Cl	3.212608	0.0	0.0
