15

C	-0.552563	-0.035676	-1.424227
C	0.0	0.0	0.0
Cl	0.242028	-1.24491	-2.421055
H	1.095074	0.0	0.0
H	-1.625097	-0.22532	-1.438733
N	-0.41392	1.332701	-2.049318
O	-1.445311	2.008414	-2.041832
O	0.68085	1.688228	-2.455669
C	-0.478957	-1.209067	0.666127
N	-0.918869	-2.161073	1.195689
C	-0.458677	1.244119	0.769127
H	-1.545254	1.363078	0.764512
H	-0.10942	1.161969	1.79917
H	0.004832	2.131953	0.336821
Cl	3.286939	0.0	0.0
