15

C	-0.509912	-0.005218	-1.439312
C	0.0	0.0	0.0
Cl	0.222737	-1.279204	-2.406327
H	1.095059	0.0	0.0
H	-1.592709	-0.107767	-1.496382
N	-0.228515	1.339337	-2.066708
O	0.930919	1.632122	-2.314491
O	-1.217983	2.058214	-2.22956
C	-0.491474	-1.217116	0.639175
N	-0.91933	-2.167463	1.181501
C	-0.483745	1.238162	0.761552
H	-0.18047	1.150946	1.805516
H	-0.00463	2.129429	0.353755
H	-1.570196	1.35564	0.712928
Cl	3.294032	0.0	0.0
