15
Coordinates from ORCA-job run
  C   0.95783546185409      0.00135342418412      0.09723775785843
  C   -0.45465953794772      0.18134661403616      0.62472131986606
  H   1.49846314973648     -0.62480929564765      0.81521468208720
  H   -0.43845780421608      0.73380089306822      1.56565508115356
  C   1.61543139609468      1.29151545196595     -0.04933437383722
  N   2.14278865695981      2.34009988539274     -0.09312662919307
  N   0.99963335458312     -0.78065985626965     -1.21081527577737
  O   1.84209416447528     -0.44980052023214     -2.02705753053011
  O   0.21696677708664     -1.71701499745961     -1.27612171749394
  N   -1.10041437995646     -1.15269419836576      0.95136255490946
  O   -2.18672181366914     -1.40484665471464      0.46308826694479
  O   -0.44155925588285     -1.82886857825988      1.72841241752305
  N   -1.33355930084948      0.95085109703339     -0.30960758737325
  O   -0.99753172273706      0.99361503288715     -1.48899523849115
  O   -2.31730914553131      1.46511170238161      0.20836627235356
