15
Coordinates from ORCA-job run
  C   0.95483100713159      0.00367894057104      0.13208287870298
  C   -0.47490788022653      0.20648317701413      0.60161983058481
  H   1.46757467312180     -0.59513867806246      0.89267317281201
  H   -0.48968132784444      0.79368890541860      1.52122995656488
  C   1.61987655764246      1.28664952367895     -0.04124117666477
  N   2.13029496955927      2.34194878388176     -0.11548771798230
  N   1.04284985066731     -0.82943148723341     -1.14180219730061
  O   1.91596844813960     -0.53123841548529     -1.93827773881941
  O   0.26129890222415     -1.76702158810094     -1.19917990903761
  N   -1.13597906331655     -1.11375163568038      0.95454371866964
  O   -0.50998132968317     -1.75980207175524      1.78249748224011
  O   -2.20135925671676     -1.38483217957403      0.43169539065285
  N   -1.31865733648577      0.93985036938966     -0.39184658647162
  O   -0.94668167387362      0.92757470109086     -1.56105411281992
  O   -2.31444654033935      1.48134165484675      0.07254700886897
