15
Coordinates from ORCA-job run
  C   0.87063855304309     -0.27721991724219      0.03965922619560
  C   -0.64036598585415     -0.43072339873096      0.06085066092779
  H   1.30044221860549     -1.17111506306861      0.50528648143294
  H   -0.95894727047294     -1.38496969588685     -0.35229712424759
  C   1.34957203418025      0.91085446167703      0.73010356855753
  N   1.73494572499731      1.82464491094545      1.35925703858843
  N   1.35701320968511     -0.30901681258461     -1.40370592564611
  O   2.38966786449721      0.28869468212444     -1.65310443050389
  O   0.68722791496918     -0.99741053674932     -2.16343088195866
  N   -1.34454268869923      0.64435025185823     -0.70422747742663
  O   -0.67901076550539      1.60699244964512     -1.07051993737423
  O   -2.53813922252629      0.44286847443301     -0.88742293963596
  N   -1.08783799693293     -0.38430028092155      1.50161726125455
  O   -1.69942273270984      0.60037951855583      1.88668372896750
  O   -0.74124085727686     -1.36302904405503      2.15225075086873
