15
Coordinates from ORCA-job run
  C   0.89737178288508     -0.05039779670026      0.09197812031899
  C   -0.55667055805444     -0.49418664999420      0.03306121271224
  H   1.44575391140871     -0.73811796635368      0.74285289163827
  H   -0.67863160250779     -1.35795971853141     -0.61962163997778
  C   1.06351595919696      1.31819629745925      0.55417019499703
  N   1.17645387932424      2.42267722288701      0.93777470421666
  N   1.53095736687718     -0.24267770194353     -1.28900138105264
  O   2.21928489177400      0.66339679885068     -1.72641657114947
  O   1.32179628151569     -1.33575884318172     -1.79658522433955
  N   -1.40279957337917      0.62093316994450     -0.53420563183113
  O   -1.00038141596631      1.01952547370165     -1.61997814234024
  O   -2.36517051655505      1.01155583622255      0.10637882437320
  N   -1.08290723529417     -0.85899351870145      1.38301726115354
  O   -0.50699706484636     -0.38294595534339      2.35733367908373
  O   -2.06157610637855     -1.59624664831598      1.37924170219714
