20

C	-0.424301	0.126731	-1.459796
C	0.0	0.0	0.0
F	-1.730005	0.567069	-1.554717
H	1.09462	0.0	0.0
C	0.472237	1.011336	-2.289243
H	0.380273	2.036414	-1.92763
H	0.167584	0.979528	-3.338391
H	1.508233	0.690816	-2.175332
N	-0.43612	-1.2623	-2.08768
O	-1.517102	-1.831559	-2.211076
O	0.657415	-1.729659	-2.385465
C	-0.52097	-1.266556	0.670378
H	-0.235342	-1.254189	1.724809
H	-0.07984	-2.16226	0.228345
H	-1.611212	-1.339336	0.603713
C	-0.449695	1.241578	0.771904
H	0.002139	1.214658	1.766166
H	-0.115568	2.164243	0.292859
H	-1.537301	1.277696	0.878142
Cl	3.49468	0.0	0.0
