20

C	-0.495332	-0.022209	-1.439473
C	0.0	0.0	0.0
F	0.10153	-1.059411	-2.106585
H	1.096339	0.0	0.0
C	-1.990994	-0.153279	-1.642798
H	-2.31128	-1.123507	-1.263998
H	-2.532905	0.639603	-1.132763
H	-2.216859	-0.108621	-2.710742
N	-0.056524	1.241751	-2.174822
O	0.885894	1.171269	-2.948246
O	-0.721206	2.252129	-1.935653
C	-0.430514	-1.293004	0.69784
H	-1.498511	-1.297021	0.945148
H	0.135436	-1.386256	1.627573
H	-0.2001	-2.167845	0.087258
C	-0.454241	1.214585	0.804935
H	-1.545268	1.298865	0.859232
H	-0.070552	1.104469	1.822583
H	-0.054234	2.145381	0.404706
Cl	3.485279	0.0	0.0
