20

C	-0.45526	0.042405	-1.449678
C	0.0	0.0	0.0
F	-1.830009	0.169557	-1.520603
H	1.094626	0.0	0.0
C	0.186945	1.120004	-2.288866
H	-0.066433	0.975662	-3.341919
H	1.268517	1.091919	-2.153492
H	-0.202543	2.087432	-1.970097
N	-0.145779	-1.303661	-2.095739
O	1.024766	-1.490855	-2.405761
O	-1.066681	-2.105803	-2.232785
C	-0.496956	-1.253876	0.714761
H	-1.585906	-1.346464	0.660492
H	-0.048353	-2.15735	0.297157
H	-0.199658	-1.205268	1.764874
C	-0.467284	1.263254	0.723022
H	-0.023095	2.163172	0.293458
H	-1.556917	1.358726	0.703976
H	-0.140322	1.214062	1.764074
Cl	3.499363	0.0	0.0
