19

C	-0.554972	-0.020977	-1.436641
C	0.0	0.0	0.0
Cl	0.034016	1.509104	-2.208994
H	1.090017	0.0	0.0
C	-0.006939	-1.160498	-2.280997
H	-0.431756	-2.113322	-1.964577
H	-0.264195	-0.988995	-3.329631
H	1.077878	-1.206223	-2.168525
C	-2.073123	0.039461	-1.445546
H	-2.446273	0.105943	-2.471082
H	-2.411389	0.915385	-0.890092
H	-2.486066	-0.861809	-0.980058
N	-0.383911	-1.282365	0.676617
O	0.155688	-2.318422	0.282037
O	-1.184372	-1.249827	1.626451
N	-0.456368	1.135576	0.748512
H	-1.187324	0.851939	1.388189
H	0.337503	1.466576	1.287723
H	2.690048	0.0	0.0
