19

C	-0.553446	0.055954	-1.433551
C	0.0	0.0	0.0
Cl	-0.193263	-1.48283	-2.313921
H	1.090925	0.0	0.0
C	-2.058889	0.253193	-1.478681
H	-2.583267	-0.573673	-0.996828
H	-2.311149	1.182731	-0.964106
H	-2.392946	0.321584	-2.517342
C	0.199552	1.166999	-2.147788
H	1.274134	0.995365	-2.047782
H	-0.082685	1.194872	-3.204043
H	-0.045448	2.119081	-1.674809
N	-0.484306	-1.234782	0.711609
O	0.164692	-2.268321	0.587784
O	-1.518851	-1.141702	1.393251
N	-0.394044	1.189809	0.710404
H	0.372052	1.424107	1.333168
H	-1.228423	1.010581	1.253065
H	2.782028	0.0	0.0
