19

C	-0.479808	-0.12886	-1.470449
C	0.0	0.0	0.0
Cl	-0.149566	1.479372	-2.249276
H	1.09122	0.0	0.0
C	0.347301	-1.154513	-2.227781
H	1.407431	-0.966736	-2.036515
H	0.108478	-2.15794	-1.87408
H	0.132571	-1.090545	-3.298137
C	-1.974792	-0.370565	-1.601854
H	-2.232046	-1.349769	-1.192586
H	-2.265077	-0.344344	-2.655002
H	-2.554978	0.38485	-1.067332
N	-0.489558	-1.239874	0.694786
O	-1.494482	-1.158991	1.405654
O	0.12317	-2.288058	0.486262
N	-0.419333	1.140081	0.745729
H	-1.288525	1.54125	0.42337
H	0.321618	1.826251	0.681657
H	2.781079	0.0	0.0
