19

C	-0.541287	-0.036918	-1.42998
C	0.0	0.0	0.0
Cl	0.174403	-1.419308	-2.365227
H	1.104689	0.0	0.0
C	-2.054213	-0.156983	-1.493055
H	-2.383652	-1.107839	-1.074717
H	-2.398362	-0.089245	-2.529237
H	-2.490623	0.668489	-0.922013
C	-0.047391	1.2189	-2.139452
H	-0.313414	1.170275	-3.198813
H	1.0389	1.283682	-2.042917
H	-0.497561	2.098259	-1.679727
N	-0.417582	-1.11213	0.850688
O	-0.712081	-2.203241	0.340855
O	-0.35366	-0.93687	2.082135
N	-0.309613	1.271385	0.631669
H	0.576746	1.61744	1.000248
H	-0.906101	1.105161	1.431688
H	2.51969	0.0	0.0
