19

C	-0.578024	0.098972	-1.421776
C	0.0	0.0	0.0
Cl	-0.205038	-1.385358	-2.385209
H	1.095788	0.0	0.0
C	-2.090018	0.262362	-1.420998
H	-2.455802	0.363055	-2.446139
H	-2.581934	-0.59669	-0.960621
H	-2.350805	1.163577	-0.861843
C	0.130718	1.258635	-2.10576
H	-0.181037	1.324778	-3.151793
H	1.210785	1.104664	-2.045295
H	-0.119489	2.183444	-1.584624
N	-0.468532	-1.256702	0.68481
O	-1.430042	-1.174409	1.466514
O	0.129118	-2.301331	0.442572
N	-0.386132	1.168449	0.749638
H	-1.20264	0.964533	1.312629
H	0.394774	1.392504	1.359928
H	2.75744	0.0	0.0
