19

C	-0.568018	0.008169	-1.42946
C	0.0	0.0	0.0
Cl	-0.221131	-1.553962	-2.27135
H	1.090936	0.0	0.0
C	-2.075321	0.204804	-1.457594
H	-2.591352	-0.605852	-0.939327
H	-2.426433	0.236386	-2.492404
H	-2.320626	1.151641	-0.971102
C	0.172523	1.098	-2.189152
H	-0.128324	1.094285	-3.240609
H	-0.064257	2.063651	-1.74002
H	1.248901	0.929002	-2.104007
N	-0.477015	-1.21148	0.759512
O	-1.485841	-1.088182	1.473718
O	0.153235	-2.256903	0.637477
N	-0.38935	1.213008	0.672511
H	-1.213943	1.049388	1.23647
H	0.385727	1.47391	1.274541
H	2.777208	0.0	0.0
