14
Coordinates from ORCA-job run
  C   -0.85880656246949      0.18331961399291      0.16899016313707
  C   0.56869171067629      0.01488677413126      0.69039393716708
  H   -1.55151643388419     -0.24637075514171      0.90220349489208
  H   0.75892287938952      0.78828408478037      1.44388749447966
  N   -1.08670840993153     -0.64311504444185     -1.09327677499067
  O   -2.06716984251471     -0.34376633095818     -1.75516944960698
  O   -0.30503980491510     -1.56395094289062     -1.28314949359644
  C   -1.21916680374825      1.57545669969099     -0.06357201025180
  N   -1.51183675253602      2.70786950768151     -0.16887375668442
  N   1.59332376283282      0.29633772484423     -0.40466882770192
  O   2.72504573655102     -0.10652414593932     -0.19037142711077
  O   1.19775680978641      0.95313061162372     -1.35711088895498
  C   0.80685273118262     -1.29367194000998      1.28448649725903
  N   0.95165097958061     -2.32488585736334      1.82723104196305
