14
Coordinates from ORCA-job run
  C   0.58715986185267      0.26857447986733      0.44755588646402
  C   -0.74212939503712     -0.23642924113020     -0.10102129440139
  H   0.68685257109691      1.34590718275802      0.30479496082874
  H   -0.77673163085714     -1.32722914580728     -0.10410719309090
  N   1.73526453595410     -0.35118068216517     -0.33993586874780
  O   2.80781677520685      0.22156691265120     -0.23070999436291
  O   1.48654123854753     -1.36343877835514     -0.98239705542111
  C   0.74781295457551     -0.09612452885865      1.84911287194611
  N   0.86239891611331     -0.40335706368937      2.97740038444662
  N   -0.88417223299510      0.17621963734267     -1.56121399467198
  O   -0.16967464160137      1.08984622350819     -1.95349133804873
  O   -1.72454293860706     -0.44170175336743     -2.19546130657386
  C   -1.86289642457727      0.32544718331983      0.64157174367743
  N   -2.75469958967220      0.79189957392590      1.24790219795579
