14
Coordinates from ORCA-job run
  C   -0.70632626845188      0.40567133857752     -0.04412690984865
  C   0.58474393644256     -0.17963473177128      0.53506934666078
  H   -0.94908177304824      1.32173792254966      0.50066259553670
  H   0.44013256551535     -0.35561593689917      1.60444589563736
  N   -1.84172495839024     -0.56587363219402      0.25760843056798
  O   -2.60167014403678     -0.85838884536560     -0.65202042700561
  O   -1.89610929524364     -0.93430702136727      1.42462757345947
  C   -0.59800426130500      0.66230918250310     -1.47168154690193
  N   -0.45570966793483      0.88686297381047     -2.61616489612186
  N   1.67270537393730      0.88545508095671      0.43754230208136
  O   2.76597778148497      0.54743367654613      0.01227650867815
  O   1.33832581093631      1.99126469337948      0.84485260931749
  C   0.98587884511364     -1.40212996345725     -0.14331020704431
  N   1.25986205498048     -2.40478473726849     -0.69078127501693
