14
Coordinates from ORCA-job run
  C   -0.71919833891943      0.36289327716476     -0.13028991045111
  C   0.49363076583191     -0.20358006590842      0.61420062558990
  H   -1.13592504650237      1.18425974015508      0.45837030845673
  H   0.17589479707245     -0.50859375199615      1.61495483413552
  N   -1.79672727093919     -0.71440410867227     -0.15655483316833
  O   -2.04457218096037     -1.20691160683899      0.93744237603828
  O   -2.33005415313939     -0.96701456414943     -1.22551881376520
  C   -0.38126364751805      0.80628202857405     -1.47361878702790
  N   -0.06631536664033      1.19786034492565     -2.53557319135611
  N   1.49099341092804      0.93007893106013      0.82602199050554
  O   1.00076286307526      1.96141600156621      1.26957064911156
  O   2.66625360895751      0.70954630798487      0.58029059569014
  C   1.10383786978452     -1.31536041095155     -0.09783085062752
  N   1.54268268896942     -2.23647212291397     -0.68046499313149
