14
Coordinates from ORCA-job run
  C   -0.85812058825024      0.08120819398622      0.23409042113076
  C   0.61345005272467      0.06102074872754      0.64980837800214
  H   -1.44317945405566     -0.44549062516156      0.99717060361331
  H   0.77066939969829      0.83152618432991      1.41387200917346
  N   -1.08226828723513     -0.72930994796627     -1.03927890937061
  O   -2.13478391288202     -0.52556997760459     -1.62188159801933
  O   -0.21736475510165     -1.54842023755356     -1.31512345924413
  C   -1.38787028131388      1.42905528768769      0.07787449667256
  N   -1.82435711309808      2.51831833793768      0.03463865170748
  N   1.51839645277363      0.48478211476243     -0.50296330502257
  O   0.98651906582631      1.12940746843755     -1.39543221331230
  O   2.69809736500688      0.19476267530662     -0.38875333145109
  C   1.03628750115522     -1.22752040180149      1.18144464129666
  N   1.32552455475168     -2.25376982108817      1.67353361482366
