14
Coordinates from ORCA-job run
  C   -0.86247358247418      0.18249069019116      0.15319944265255
  C   0.55552528114028      0.01786152160004      0.70096345034533
  H   -1.56804625974271     -0.24449187881392      0.87558454149075
  H   0.73015649487553      0.79283909511399      1.45654896922182
  N   -1.06635803320209     -0.64904577066717     -1.10987197937221
  O   -0.27400899309682     -1.56318251951697     -1.28795644412164
  O   -2.04122299009328     -0.35987684889916     -1.78446517482952
  C   -1.22020280939256      1.57320815896939     -0.09222777315010
  N   -1.51589435410039      2.70360534062655     -0.20866926945793
  N   1.59974289517791      0.29950849214446     -0.37539619190404
  O   2.72710097465463     -0.10498726646241     -0.14189669273186
  O   1.22183609279012      0.95970110062631     -1.33282353149559
  C   0.78548896719267     -1.28941742818545      1.30081724486058
  N   0.92635631627089     -2.31921268672682      1.84719340849186
