15

C	-0.601805	-0.127929	-1.406768
C	0.0	0.0	0.0
Cl	0.495724	-0.840749	-2.568425
H	1.091376	0.0	0.0
H	-1.522861	-0.70453	-1.403268
N	-1.026523	1.254426	-1.855844
O	-0.220062	1.980867	-2.409481
O	-2.189511	1.536555	-1.56811
N	-0.373293	-1.279644	0.756025
O	-0.566163	-2.305653	0.105381
O	-0.413897	-1.201005	1.979907
N	-0.403389	1.176329	0.679224
H	-1.33172	1.115205	1.075161
H	0.270305	1.394883	1.400177
Br	3.385931	0.0	0.0
