15

C	-0.645251	-0.145468	-1.37017
C	0.0	0.0	0.0
Cl	0.012214	-1.486039	-2.293585
H	1.098189	0.0	0.0
H	-1.723355	-0.271826	-1.279153
N	-0.471185	1.150323	-2.118071
O	0.652411	1.457226	-2.476303
O	-1.499765	1.804172	-2.277389
N	-0.46964	-1.234839	0.76878
O	-1.660179	-1.228583	1.105319
O	0.326821	-2.133511	1.003457
N	-0.453873	1.206744	0.601599
H	-1.394423	1.124954	0.963331
H	0.19564	1.498718	1.318543
Br	3.466627	0.0	0.0
