15

C	-0.387524	-0.138428	-1.472555
C	0.0	0.0	0.0
Cl	-0.099488	1.376358	-2.333204
H	1.09712	0.0	0.0
H	0.181431	-0.918593	-1.965929
N	-1.838012	-0.488961	-1.664373
O	-2.642108	0.018231	-0.883231
O	-2.121095	-1.221595	-2.605938
N	-0.412011	-1.310229	0.664745
O	-0.463573	-2.296646	-0.076219
O	-0.615051	-1.321784	1.867437
N	-0.457502	1.110452	0.735913
H	-1.322313	1.499952	0.401801
H	0.270518	1.800267	0.82854
Br	3.38205	0.0	0.0
