18

C	-0.314552	0.06498	-1.511804
C	0.0	0.0	0.0
Br	-0.007687	-1.698925	-2.370961
H	1.096176	0.0	0.0
C	-1.719441	0.381548	-1.764413
N	-2.853145	0.65413	-1.922122
C	0.657628	1.052904	-2.153465
H	1.650585	0.784843	-1.76892
H	0.399846	2.052237	-1.797905
H	0.608437	1.020904	-3.243997
C	-0.629851	-1.14945	0.758809
H	-1.727052	-1.130254	0.690467
H	-0.276444	-2.117096	0.403033
H	-0.349965	-1.058575	1.812616
N	-0.396036	1.315481	0.527228
H	-1.224749	1.243884	1.106204
H	0.373563	1.653624	1.092583
F	2.692921	0.0	0.0
