18

C	-0.550376	-0.014067	-1.43434
C	0.0	0.0	0.0
Br	0.27292	1.479812	-2.442235
H	1.098369	0.0	0.0
C	-0.166635	-1.232296	-2.144022
N	0.038276	-2.241483	-2.71171
C	-2.062433	0.167621	-1.516219
H	-2.556455	-0.692118	-1.052426
H	-2.315036	1.07377	-0.965843
H	-2.397165	0.248417	-2.55201
C	-0.463546	-1.224333	0.777919
H	-1.533857	-1.19737	1.027477
H	0.111746	-1.256035	1.706805
H	-0.254386	-2.151468	0.23959
N	-0.444253	1.246701	0.6519
H	0.403571	1.775878	0.830502
H	-0.85541	1.030102	1.553013
F	2.639087	0.0	0.0
