18

C	-0.258902	0.055123	-1.529932
C	0.0	0.0	0.0
Br	0.185893	-1.681409	-2.37986
H	1.096746	0.0	0.0
C	-1.668347	0.288517	-1.838642
N	-2.810704	0.521183	-2.001367
C	0.676482	1.096411	-2.144734
H	0.685448	1.037872	-3.234566
H	0.344096	2.0961	-1.852225
H	1.66556	0.8923	-1.708053
C	-0.656413	-1.158399	0.720018
H	-0.405491	-1.069462	1.778617
H	-1.750754	-1.130605	0.627108
H	-0.296196	-2.121234	0.357251
N	-0.398835	1.263182	0.626262
H	-1.262481	1.641182	0.24939
H	0.347344	1.93434	0.498428
F	2.692721	0.0	0.0
