18

C	-0.216914	-0.065832	-1.513739
C	0.0	0.0	0.0
Br	-2.07356	-0.634766	-2.047414
H	1.10525	0.0	0.0
C	-0.077677	1.27267	-2.086987
N	0.058093	2.353264	-2.530585
C	0.812288	-1.001219	-2.143558
H	0.814445	-0.916491	-3.232386
H	0.5884	-2.034412	-1.870962
H	1.776705	-0.71499	-1.691251
C	-0.497968	-1.227611	0.733966
H	-1.589125	-1.215809	0.829082
H	-0.198443	-2.148941	0.231917
H	-0.048907	-1.241983	1.73232
N	-0.604029	1.210889	0.56734
H	-0.695706	1.070156	1.567692
H	0.070973	1.961847	0.455169
F	2.710937	0.0	0.0
