18

C	-0.226238	0.07446	-1.53926
C	0.0	0.0	0.0
Br	0.097643	-1.689804	-2.390888
H	1.096757	0.0	0.0
C	-1.605288	0.421425	-1.876841
N	-2.715019	0.767234	-2.059679
C	0.797678	1.044417	-2.135259
H	1.76054	0.776186	-1.670081
H	0.825511	0.981894	-3.224143
H	0.530028	2.06661	-1.850479
C	-0.683646	-1.153306	0.699988
H	-0.304972	-2.11785	0.362703
H	-0.484253	-1.053435	1.768063
H	-1.772199	-1.130262	0.554813
N	-0.390752	1.26677	0.624033
H	-1.248479	1.652687	0.242663
H	0.362596	1.931214	0.501511
F	2.704721	0.0	0.0
