18

C	-0.147738	-0.051135	-1.530103
C	0.0	0.0	0.0
Br	-2.040587	-0.458193	-2.128909
H	1.099221	0.0	0.0
C	0.106111	1.278847	-2.084101
N	0.315827	2.351153	-2.519231
C	0.824094	-1.055344	-2.138363
H	0.87592	-0.958816	-3.224466
H	0.520518	-2.072393	-1.88583
H	1.787119	-0.825235	-1.649707
C	-0.51243	-1.243224	0.699286
H	-1.607639	-1.280493	0.711682
H	-0.154363	-1.209287	1.729827
H	-0.13546	-2.158677	0.238603
N	-0.527277	1.192994	0.637445
H	0.091255	1.969343	0.437766
H	-1.448768	1.419952	0.275571
F	2.683073	0.0	0.0
