17
Coordinates from ORCA-job run
  C   0.76892511871683      0.16058418207931     -0.22555280340570
  C   -0.69471780090581      0.62548159841526     -0.27958492499919
  H   1.35696184208282      1.06368230311920     -0.01143506783548
  H   -0.76178051768773      1.58911686547566     -0.79333286224513
  N   1.09493445173321     -0.45743566178178     -1.50976108144396
  H   2.09754792862438     -0.43320789290013     -1.65124383445316
  H   0.65240905390678      0.03601320165982     -2.27511665801481
  C   1.03485136084315     -0.84857115121396      0.88740104076393
  H   2.06112117609072     -1.21267373101465      0.79795024515508
  H   0.37448549814387     -1.71440000708155      0.80746022348064
  H   0.92480697765975     -0.40300875601386      1.87800771800238
  N   -1.06271502908404      0.98810196083916      1.16590621163465
  O   -0.51790670870861      1.98924465116685      1.62382202211825
  O   -1.83224462641309      0.24634942452002      1.76958217944737
  N   -1.55781604284118     -0.31490315867453     -0.88459001967621
  H   -1.40891276289680     -1.24977141318284     -0.53286847807998
  H   -2.52994991926424     -0.06360241541198     -0.76864391044865
