17
Coordinates from ORCA-job run
  C   0.69635007295028      0.28167950879720     -0.15645351179282
  C   -0.81940208436891      0.51836770222683     -0.05068924021700
  H   1.18667766951859      1.17063569843473      0.25721737054361
  H   -1.06494943403123      1.49827723880919     -0.48760842067568
  N   0.98676001420099      0.07624418395632     -1.57856722948527
  H   1.89466514194980     -0.35974355502798     -1.68356031988285
  H   1.02215168431032      0.96754235154437     -2.06079688783013
  C   1.12548673989057     -0.94282972339158      0.63694499684652
  H   0.62212706258211     -1.83634333065783      0.26811325073536
  H   0.89340283913321     -0.82818914628026      1.69696565244729
  H   2.20739287729270     -1.07911430125169      0.55119474957875
  N   -1.14105895522522      0.73075174933175      1.41730384557681
  O   -0.59687913819597      1.70886362095754      1.92874773076827
  O   -1.89255141202845     -0.04964475328575      1.98734640021987
  N   -1.52913536351980     -0.59997699619747     -0.56839492193649
  H   -2.50760627204178     -0.39822246555909     -0.71791844351424
  H   -1.08343144241720     -0.86029778240630     -1.44084502138199
