17
Coordinates from ORCA-job run
  C   0.78347894070617      0.29538314820026     -0.25077120010332
  C   -0.75120339903679      0.44040860735754     -0.23545230140206
  H   1.19763405783768      1.27247233533034      0.01461427048242
  H   -1.04607667770173      1.20644997323418     -0.95623242795795
  N   1.27413846036166     -0.05480890695196     -1.57549134396446
  H   0.73630906302500     -0.84376089811009     -1.91870839226426
  H   1.12689625491264      0.71527103700005     -2.21817274677368
  C   1.26223189880087     -0.74400894193805      0.75344666481448
  H   0.93976951889918     -1.74546966785693      0.45540650283642
  H   0.90066093500280     -0.54630583673765      1.76501539024784
  H   2.35225906032258     -0.74432850142661      0.76486344997489
  N   -1.13689992030518      1.04906801894089      1.11562691821805
  O   -0.83206188247713      2.22690221823951      1.28450348663487
  O   -1.67186520085390      0.31895507292865      1.94800278623806
  N   -1.41095884489039     -0.78599708763533     -0.51681931927691
  H   -2.39541939970918     -0.63954520920402     -0.69729303757830
  H   -1.32989286489429     -1.42168536137080      0.26646129987388
