17
Coordinates from ORCA-job run
  C   0.67966312559394      0.29765202872965     -0.15185132320040
  C   -0.83714400839891      0.58306128891228     -0.12217227790267
  H   1.18030810244125      1.16244789038760      0.30706602579953
  H   -1.02168268934758      1.52607958720103     -0.64445991515831
  N   1.01384065893283      0.12613862610007     -1.56702956213361
  H   1.07205528675515      1.02907231513354     -2.02478520823344
  H   1.92014203787814     -0.31677269211034     -1.65816849467074
  C   1.05055955594988     -0.96152810300139      0.61200675623569
  H   0.58657537317857     -1.83685978272964      0.15327262962961
  H   0.74393554512479     -0.90804102449779      1.65760752839984
  H   2.13432948820268     -1.10434998071610      0.59134744774917
  N   -1.20009156209547      0.86959881657100      1.30349869413668
  O   -1.71807287792644     -0.03020898532744      1.96112221682488
  O   -0.88088430733622      1.97595440462373      1.73243429438172
  N   -1.69855174721743     -0.44008599940250     -0.64340957661763
  H   -1.74065046788897     -1.21541466346943      0.00659148728566
  H   -1.28233151384620     -0.75874372640425     -1.51207072252599
