17
Coordinates from ORCA-job run
  C   0.45684886085417     -0.19823417031767     -0.40052359890610
  C   -0.79145514829100      0.15119407805207      0.40928248270115
  H   0.26076758987969      0.13818486605132     -1.42510683086888
  H   -0.69796863715439     -0.20846369618364      1.43693046101104
  N   0.57397479061667     -1.65056369085098     -0.44336683898443
  H   1.21288839059020     -1.93397079647351     -1.17512104214414
  H   0.93583347237192     -2.00273475362562      0.43609923552432
  C   1.67704000280189      0.53099218777948      0.15780422412868
  H   1.85329182452853      0.23653380897538      1.19808503026399
  H   1.56397091563062      1.61706523796453      0.12253990922415
  H   2.56682659416930      0.26861475606744     -0.41930745529941
  N   -1.93002638375158     -0.64353964805407     -0.17415345148043
  O   -2.24240364859022     -0.35175716176849     -1.32492588711627
  O   -2.46026163298358     -1.49654407983364      0.52724910342885
  N   -1.20042290735440      1.52782790080673      0.41778020198326
  H   -0.72591499306397      2.05104030664460      1.13829853593903
  H   -1.05298909025386      1.96235485476605     -0.48356407940479
