15
Coordinates from ORCA-job run
  C   0.51468664781243      0.47388288865645     -0.39708866288812
  C   -0.72053107003961     -0.35854558955165     -0.66992466084395
  Cl  1.20314127256948      1.01182452815794     -2.01403625649619
  H   -0.45055374543518     -1.14821512423879     -1.37037224993181
  H   -1.42849563204220      0.29736166574678     -1.18742899896656
  N   0.28813113833944      1.51912511260948      0.50708002401620
  H   -0.44206335658456      2.13531560809131      0.17672837393396
  H   1.13344945654109      2.03588846990894      0.71084079697190
  N   1.64613327596918     -0.38309035444857      0.17950080030415
  O   1.65286476660725     -1.57146597768181     -0.11307071403439
  O   2.48110497906571      0.20174239841733      0.85884276510082
  C   -1.34684793787844     -0.93745692731759      0.59437375865778
  H   -1.61711308582852     -0.15344064023525      1.30119940041887
  H   -0.66380315684980     -1.62851841055221      1.08977866803532
  H   -2.24910355224626     -1.49440764756235      0.33257695572202
