15
Coordinates from ORCA-job run
  C   0.43311833041448      0.37538441901712     -0.35966105690697
  C   -0.30230339325241     -0.85238876198563      0.14451656838411
  Cl  0.09876163345521      0.68359909391434     -2.08362969034002
  H   0.08959447990132     -1.06861204546545      1.14705861021809
  H   -0.02467353996328     -1.69345711154199     -0.49056588966021
  N   0.13649118099374      1.53161587994416      0.38152453376867
  H   0.69174032102020      2.32088274823714      0.07671991180128
  H   0.30038848413610      1.37192727436491      1.36827767231792
  N   1.96555340477519      0.03288443378440     -0.33568333681588
  O   2.70561558308610      0.87452727875901      0.16368442448359
  O   2.30769318677684     -1.04383389453972     -0.80476759474321
  C   -1.81301105351778     -0.66426518564048      0.19087925941174
  H   -2.09172172713276      0.16066588850814      0.84601632457445
  H   -2.28747502761037     -1.57674291135135      0.55781667476725
  H   -2.20877186308258     -0.45318710600458     -0.80318641126081
