15
Coordinates from ORCA-job run
  C   0.43863723359421      0.30665519088788     -0.41431437998381
  C   -0.30534860499984     -0.81423142691964      0.28764604310905
  Cl  0.12972769728045      0.30573222755642     -2.17054192361524
  H   -0.01973745746265     -1.75355977085674     -0.18551059763364
  H   0.07251429896762     -0.85032739271519      1.31787912396718
  N   0.13301078875061      1.57468139387966      0.10703192963840
  H   0.27987135212754      1.59185194559596      1.10903682355187
  H   0.69340481836729      2.29895646349100     -0.32355661064336
  N   1.97042546920203     -0.02497809305719     -0.30870406664250
  O   2.70400225788718      0.89219431342119      0.04628751237371
  O   2.31758587329849     -1.16699315260200     -0.57591319045133
  C   -1.81619516901037     -0.62207876915877      0.27955158869101
  H   -2.19759913566595     -0.58409786567037     -0.74143538968303
  H   -2.29779394107846     -1.45836275865725      0.79048909157694
  H   -2.10250548125816      0.30255769480505      0.78005404574476
