15
Coordinates from ORCA-job run
  C   0.55880515417450      0.36725007527761     -0.38744033120715
  C   -0.28346612979736     -0.81609572430475      0.08901583463973
  Cl  0.20817937164072      0.72905287818963     -2.07945469612729
  H   0.08128585635608     -1.07032853045912      1.08992908042444
  H   -0.07758073575152     -1.66877481356169     -0.56520311713211
  N   0.48726716774366      1.58369944048910      0.36183369728647
  H   0.57361013711373      1.39587120419725      1.35236326973999
  H   -0.37312686885420      2.07525074156453      0.16583061715833
  N   2.02075077212350     -0.10975372225208     -0.26259245295051
  O   2.60773044529380     -0.54287084796771     -1.24118010797770
  O   2.45053790352288     -0.06383357517124      0.88646961771217
  C   -1.77598112505006     -0.51959618537297      0.13413038829341
  H   -2.16553550913504     -0.27632483712696     -0.85499001521288
  H   -1.99575803123191      0.31062720497794      0.80841876381257
  H   -2.31671840814879     -1.39317330847956      0.50286945154051
