15
Coordinates from ORCA-job run
  C   0.54884825529532      0.25369704987401     -0.29057205154515
  C   -0.33729064996838     -0.86314026285691      0.21887934269874
  Cl  0.32837847727346      0.40083947107220     -2.11184875412834
  H   0.00041978234804     -1.09104412807721      1.23365243155329
  H   -0.15917911202305     -1.74686694561990     -0.39246793066313
  N   0.38874095016547      1.45764668513714      0.40722436637925
  H   -0.55831621580149      1.80259215030054      0.34010450063189
  H   1.04591985290092      2.15944175015607      0.09113050783943
  N   2.02821144025569     -0.12769170768165     -0.16213977682582
  O   2.82957101821453      0.79784440711023     -0.19673099103568
  O   2.29773574495068     -1.31701644331355     -0.05868113878237
  C   -1.81623731118142     -0.49225415464923      0.22410657631727
  H   -2.14923644264444     -0.15750271699543     -0.75978877448177
  H   -2.03482710424504      0.28624752525750      0.95826483618658
  H   -2.41173868554029     -1.36479267971380      0.49786685585582
