15
Coordinates from ORCA-job run
  C   0.51303351235450      0.47976370362062     -0.39369217155356
  C   -0.71430567821717     -0.36130244432764     -0.67584520980141
  Cl  1.20956955655190      1.02393359458889     -2.00440069162237
  H   -0.43433607681197     -1.14589245616847     -1.37810301874319
  H   -1.42521497559754      0.29084009652108     -1.19410234269321
  N   0.27319332774464      1.52284160226423      0.50995785076987
  H   1.11533892469739      2.04052959747293      0.72450763802272
  H   -0.45281156011564      2.13905759682634      0.17035013627244
  N   1.64496324870342     -0.37172405420205      0.19074948484194
  O   1.66161636845667     -1.55905843141002     -0.10578660861349
  O   2.46450360795421      0.21332265948114      0.88856036596709
  C   -1.34129681699233     -0.95035139377029      0.58340282270079
  H   -0.66004672983298     -1.64916395052926      1.07048449018127
  H   -1.60684169505098     -0.17199274807967      1.29821325964165
  H   -2.24636501384408     -1.50080337228774      0.31770399462942
