15
Coordinates from ORCA-job run
  C   0.53759395553637      0.44040162513463     -0.44011044113494
  C   -0.88725986542438      0.07574410677849     -0.02960266522203
  Cl  0.91442287406316     -0.23782573734845     -2.02565236011213
  H   -1.54505139528544      0.46332209798443     -0.81328361962163
  H   -1.09753291263180      0.63636686151611      0.88675294247970
  N   0.87292947885762      1.83470996070514     -0.45598373926534
  H   0.59164672678946      2.26097193817280      0.41868450565801
  H   0.40732212913842      2.29223355031439     -1.22882031902893
  N   1.45259853268571     -0.18614460057306      0.62281948271467
  O   1.38238482891166      0.38414710311623      1.70899789937545
  O   2.10333102939060     -1.18663625251194      0.36978103956499
  C   -1.13051293689903     -1.41110573963135      0.19915512035636
  H   -0.55514741615561     -1.78056386650568      1.05033998914925
  H   -2.18636089950907     -1.58547066474574      0.41483392529373
  H   -0.86036412946771     -2.00015038240604     -0.67791176020713
