15
Coordinates from ORCA-job run
  C   0.34825143015258      0.56632114522644     -0.45810877584919
  C   -0.94517117638117      0.09520125735881      0.18871286961849
  Cl  0.36221983962816      0.25921674244328     -2.19726480552684
  H   -1.74759479260030      0.62657641802479     -0.32802049639375
  H   -0.92743754646810      0.44981928127088      1.22467651600783
  N   0.56551241464368      1.94528410305406     -0.22895592836561
  H   0.63950739975314      2.12317292949355      0.76478326307364
  H   1.39857922230553      2.27685729705812     -0.69963309011184
  N   1.47487861328774     -0.30932607900763      0.18905207909224
  O   1.94087828767246     -1.26881912418798     -0.40548126210210
  O   1.74754757714463      0.03511915990767      1.33782682628175
  C   -1.16494849721883     -1.41142931802243      0.15545146987403
  H   -1.08489741289552     -1.80475166715951     -0.85873132781248
  H   -2.16247782272422     -1.64467222431372      0.53210280193560
  H   -0.44384753629980     -1.93756992114634      0.78358986027823
