12

C	-0.589925	0.008331	-1.393649
C	0.0	0.0	0.0
F	-0.296818	1.186555	-2.075632
H	1.097975	0.0	0.0
H	-1.680507	-0.074505	-1.34302
H	-0.394398	0.885881	0.512721
C	-0.109889	-1.131746	-2.203423
N	0.245276	-2.011472	-2.895033
N	-0.497353	-1.251435	0.633172
H	-0.738566	-1.054826	1.599493
H	0.318898	-1.859275	0.675912
F	2.680789	0.0	0.0
