12

C	-0.571176	0.026607	-1.392569
C	0.0	0.0	0.0
F	-0.070337	1.113048	-2.110368
H	1.099526	0.0	0.0
H	-1.658563	0.164738	-1.359675
H	-0.3788	-0.906527	0.488992
C	-0.284712	-1.206471	-2.149995
N	-0.106802	-2.215867	-2.72104
N	-0.539831	1.190014	0.706206
H	-0.379685	1.029714	1.695245
H	0.104911	1.939102	0.469434
F	2.687454	0.0	0.0
