12

C	-0.462134	-0.04544	-1.423974
C	0.0	0.0	0.0
F	-1.868838	-0.11679	-1.534667
H	1.095729	0.0	0.0
H	-0.063303	-0.947173	-1.89462
H	-0.377328	0.918712	0.472857
C	-0.046551	1.141359	-2.194114
N	0.238302	2.085449	-2.830497
N	-0.422517	-1.236193	0.667423
H	0.326999	-1.492224	1.297936
H	-1.264932	-1.096991	1.209364
F	2.656999	0.0	0.0
