15

C	0.0	0.0	0.0
C	-0.57815	-0.216837	-1.403925
Br	2.041444	0.0	0.0
H	-1.664676	-0.309802	-1.177227
N	-0.509043	1.171479	0.500962
H	-0.553897	1.929685	-0.161178
H	-0.351351	1.393702	1.466953
C	-0.288293	-1.147195	0.867738
N	-0.462406	-2.074757	1.567926
C	-0.084344	-1.449101	-2.02716
N	0.273005	-2.410419	-2.601026
N	-0.372973	0.979267	-2.202104
H	0.507512	0.933651	-2.702665
H	-1.13512	1.080272	-2.860795
Cl	-3.62523	0.0	0.0
