15

C	0.0	0.0	0.0
C	-0.342791	-0.078879	-1.545305
Br	1.954415	0.0	0.0
H	0.376812	-0.79566	-1.954647
N	-0.594663	1.141017	0.608634
H	-1.603693	1.08999	0.424394
H	-0.472547	1.112974	1.61529
C	-0.353866	-1.301583	0.598474
N	-0.619194	-2.347505	1.067625
C	-0.025952	1.229662	-2.144821
N	0.222103	2.250195	-2.669074
N	-1.64735	-0.5111	-1.950723
H	-1.778608	-1.482625	-1.693176
H	-2.412904	-0.012092	-1.491996
Cl	-3.988131	0.0	0.0
