15

C	0.0	0.0	0.0
C	-0.479076	-0.161081	-1.459555
Br	1.946254	0.0	0.0
H	-1.570193	-0.252305	-1.357276
N	-0.513684	1.246288	0.499355
H	-0.149908	1.418953	1.430984
H	-1.53806	1.134756	0.552816
C	-0.377013	-1.187707	0.787895
N	-0.639513	-2.125606	1.448214
C	0.047297	-1.396393	-2.050942
N	0.454206	-2.383248	-2.540701
N	-0.048573	0.994559	-2.245097
H	-0.691886	1.097108	-3.022148
H	-0.177475	1.800635	-1.639718
Cl	-3.486734	0.0	0.0
