15

C	0.0	0.0	0.0
C	-0.563194	-0.146139	-1.420022
Br	2.0319	0.0	0.0
H	-1.651033	-0.245955	-1.216031
N	-0.510709	1.150204	0.552932
H	-0.353381	1.316656	1.530512
H	-0.50394	1.944002	-0.067931
C	-0.291531	-1.183672	0.81422
N	-0.463595	-2.132971	1.486083
C	-0.06323	-1.343238	-2.102395
N	0.297729	-2.266369	-2.734227
N	-0.338751	1.091529	-2.15322
H	-1.102306	1.233065	-2.801777
H	0.535141	1.051919	-2.663175
Cl	-3.65042	0.0	0.0
