15

C	0.0	0.0	0.0
C	-0.324482	0.061262	-1.546227
Br	2.0082	0.0	0.0
H	0.517983	-0.376058	-2.085776
N	-0.569688	0.980973	0.84951
H	-0.476998	1.902468	0.433571
H	-1.569412	0.768268	0.943136
C	-0.327927	-1.339785	0.503634
N	-0.508649	-2.413659	0.944696
C	-0.360768	1.493528	-1.92701
N	-0.374576	2.617845	-2.273306
N	-1.493733	-0.716456	-1.860338
H	-1.705039	-0.642078	-2.848457
H	-2.320942	-0.426889	-1.321263
Cl	-3.877041	0.0	0.0
