15

C	0.0	0.0	0.0
C	-0.320448	0.144176	-1.562412
Br	1.954702	0.0	0.0
H	0.429187	-0.461066	-2.082224
N	-0.576144	0.951816	0.885373
H	-0.426606	1.89042	0.529282
H	-1.58559	0.77319	0.934399
C	-0.386838	-1.362956	0.3833
N	-0.62151	-2.493253	0.604038
C	-0.059986	1.552707	-1.907035
N	0.127247	2.682313	-2.166836
N	-1.612478	-0.248908	-2.034391
H	-2.380807	0.117035	-1.461952
H	-1.700217	-1.258445	-1.979293
Cl	-3.933184	0.0	0.0
