13

C	0.0	0.0	0.0
C	-0.474031	-0.060684	-1.4541
F	1.366528	0.0	0.0
H	-0.404646	0.962963	-1.83816
H	-0.381781	0.823841	0.600827
H	0.292772	-0.652095	-1.96369
N	-0.371009	-1.259871	0.740312
O	-0.853417	-1.142031	1.862103
O	-0.095863	-2.317712	0.176663
N	-1.768227	-0.606646	-1.757835
H	-1.796743	-1.586247	-1.510233
H	-2.54303	-0.164747	-1.25886
Cl	-4.407085	0.0	0.0
