13

C	0.0	0.0	0.0
C	-0.573726	-0.175456	-1.389519
F	1.35093	0.0	0.0
H	-1.393695	-0.892813	-1.338224
H	-0.378583	0.881861	0.51186
H	0.229051	-0.581022	-2.012431
N	-0.329008	-1.175724	0.892968
O	-0.180835	-2.293493	0.402272
O	-0.610019	-0.935829	2.063532
N	-0.994272	1.139401	-1.877968
H	-1.153964	1.06967	-2.876085
H	-1.913062	1.281343	-1.456917
Cl	-3.528786	0.0	0.0
