13
Coordinates from ORCA-job run
  C   0.01088355442587      0.25199184956298     -0.24233864995641
  C   -1.33321841872046     -0.43140670162391     -0.15114355005720
  Cl  0.03371898518938      1.34436291322359     -1.65574342699166
  H   -1.37278145926726     -1.04575729524175      0.75156854277319
  H   -1.46203839206857     -1.07265190713364     -1.02405203559493
  H   -2.14038396670586      0.29615685742936     -0.11690850348378
  N   0.19375871392695      1.16937866181796      0.97223623831131
  O   1.34383077748384      1.40199671240735      1.32805878694613
  O   -0.82169787535111      1.62890276231436      1.48327347558116
  C   1.17738404926840     -0.70463840962192     -0.32153461454763
  H   2.11862344127522     -0.16719137920304     -0.40671640501910
  H   1.04790874563748     -1.34656500788065     -1.19383816629887
  H   1.20501184490611     -1.32557905605070      0.57713830833781
