15

C	0.0	0.0	0.0
C	-0.431347	-0.121598	-1.441437
F	1.42005	0.0	0.0
H	-1.521889	-0.245162	-1.44434
H	-0.318406	-0.868206	0.573001
N	-0.523185	1.158718	0.535877
H	-0.637173	1.233552	1.529278
H	-0.401875	2.00658	0.015371
N	0.165886	-1.435674	-1.964151
O	0.902827	-1.381934	-2.951446
O	-0.125068	-2.462208	-1.35677
N	-0.010747	1.01152	-2.189978
H	-0.445781	1.023773	-3.10073
H	0.994205	0.991634	-2.303889
Br	-3.920136	0.0	0.0
