15

C	0.0	0.0	0.0
C	-0.534225	0.069079	-1.420731
F	1.406717	0.0	0.0
H	-1.604946	-0.164961	-1.339161
H	-0.305614	-0.939758	0.456411
N	-0.524895	1.084198	0.699223
H	-0.361616	1.072171	1.690782
H	-0.347804	1.969287	0.251039
N	0.127168	-1.069721	-2.178054
O	-0.081158	-2.199473	-1.749998
O	0.862311	-0.799747	-3.129521
N	-0.316377	1.333547	-2.04802
H	-1.089419	1.548535	-2.663827
H	0.542444	1.307954	-2.586535
Br	-4.019505	0.0	0.0
