15

C	0.0	0.0	0.0
C	-0.409254	0.091094	-1.465598
F	1.418212	0.0	0.0
H	-1.499295	-0.018068	-1.494746
H	-0.32809	-0.951987	0.413697
N	-0.477902	1.071667	0.79196
H	-0.474286	1.911843	0.223177
H	-1.45347	0.866706	1.007774
N	0.154231	-1.138254	-2.183692
O	0.893212	-0.960839	-3.153596
O	-0.16822	-2.236019	-1.739382
N	0.02424	1.313627	-2.045103
H	1.032121	1.315047	-2.129644
H	-0.380319	1.444213	-2.960941
Br	-3.686561	0.0	0.0
