16

C	-0.531114	-0.002911	-1.447371
C	0.0	0.0	0.0
Cl	0.194455	-1.371244	-2.307033
H	1.094269	0.0	0.0
C	-2.039428	-0.052625	-1.556538
H	-2.329122	-0.071943	-2.60554
H	-2.407912	-0.95094	-1.06008
H	-2.473127	0.829108	-1.077396
N	-0.053254	1.26864	-2.156986
O	0.714492	2.00784	-1.554316
O	-0.496569	1.442056	-3.288649
C	-0.452769	-1.22318	0.665745
N	-0.815096	-2.228929	1.153479
C	-0.516279	1.155346	0.735056
N	-0.959122	2.087354	1.296791
Cl	3.159823	0.0	0.0
