16

C	-0.541064	0.009757	-1.443379
C	0.0	0.0	0.0
Cl	0.189568	-1.347334	-2.318051
H	1.094237	0.0	0.0
C	-2.050219	-0.053451	-1.538267
H	-2.487205	0.818901	-1.045601
H	-2.34909	-0.0637	-2.584751
H	-2.404895	-0.960705	-1.048439
N	-0.078409	1.292859	-2.142379
O	-0.524241	1.470489	-3.271911
O	0.675704	2.037176	-1.535298
C	-0.446147	-1.22884	0.660688
N	-0.840708	-2.201843	1.187489
C	-0.520459	1.141593	0.752025
N	-0.969389	2.064697	1.323621
Cl	3.141448	0.0	0.0
