16

C	-0.344148	-0.170434	-1.484865
C	0.0	0.0	0.0
Cl	0.195154	1.272705	-2.357288
H	1.106223	0.0	0.0
C	0.307481	-1.408643	-2.055778
H	0.134692	-1.455823	-3.129865
H	-0.11158	-2.299282	-1.581143
H	1.376799	-1.350735	-1.839149
N	-1.857792	-0.262191	-1.704252
O	-2.227631	-0.484624	-2.852603
O	-2.588256	-0.116105	-0.727363
C	-0.444275	-1.157431	0.772931
N	-0.77429	-2.115827	1.366246
C	-0.483588	1.24683	0.582522
N	-0.833849	2.260618	1.060569
Cl	3.155001	0.0	0.0
