16

C	-0.355339	-0.040611	-1.492242
C	0.0	0.0	0.0
Cl	0.077654	1.513447	-2.227773
H	1.098231	0.0	0.0
C	0.363279	-1.172467	-2.189227
H	1.43028	-1.067536	-1.977995
H	0.009656	-2.130013	-1.798678
H	0.174377	-1.129653	-3.260004
N	-1.867127	-0.191373	-1.695822
O	-2.596388	0.027833	-0.733101
O	-2.238879	-0.508598	-2.821235
C	-0.44299	-1.229319	0.655331
N	-0.784596	-2.239371	1.147547
C	-0.484119	1.177569	0.712796
N	-0.831345	2.123483	1.315476
Cl	3.15949	0.0	0.0
