16

C	-0.38478	0.103878	-1.482102
C	0.0	0.0	0.0
Cl	-2.157629	0.174828	-1.686919
H	1.099338	0.0	0.0
C	0.290539	1.287719	-2.134891
H	1.36975	1.190427	-1.978675
H	-0.058546	2.210754	-1.671198
H	0.055783	1.301791	-3.197743
N	0.074148	-1.159828	-2.218612
O	-0.048267	-1.138118	-3.43805
O	0.525597	-2.082134	-1.55192
C	-0.561191	-1.151402	0.699451
N	-1.050449	-2.026157	1.311641
C	-0.426874	1.223219	0.681307
N	-0.759284	2.21192	1.221703
Cl	3.153667	0.0	0.0
