16

C	-0.344861	0.023301	-1.494977
C	0.0	0.0	0.0
Cl	0.127752	1.595219	-2.164844
H	1.097974	0.0	0.0
C	0.357603	-1.095975	-2.228546
H	1.424482	-1.022986	-2.002575
H	0.182343	-1.005464	-3.298722
H	-0.021054	-2.060636	-1.880965
N	-1.856127	-0.093431	-1.720663
O	-2.220553	-0.308697	-2.871824
O	-2.591551	0.040544	-0.747659
C	-0.444789	-1.253189	0.605942
N	-0.774405	-2.278731	1.074285
C	-0.486505	1.151041	0.753048
N	-0.838352	2.083408	1.374066
Cl	3.160829	0.0	0.0
