16

C	-0.403657	0.101568	-1.476707
C	0.0	0.0	0.0
Cl	-2.175616	0.237679	-1.650158
H	1.107615	0.0	0.0
C	0.304677	1.251307	-2.156148
H	0.006533	2.192084	-1.692442
H	1.382163	1.111374	-2.022726
H	0.044097	1.266384	-3.213396
N	6.8e-05	-1.18193	-2.210204
O	0.528537	-2.073497	-1.558388
O	-0.225579	-1.19894	-3.414893
C	-0.556026	-1.15281	0.701411
N	-1.034871	-2.037884	1.307215
C	-0.418341	1.223895	0.685075
N	-0.742513	2.212827	1.229806
Cl	3.154393	0.0	0.0
