16

C	-0.569144	0.009322	-1.430974
C	0.0	0.0	0.0
Cl	0.174542	-1.316339	-2.341846
H	1.094335	0.0	0.0
C	-2.076653	-0.08636	-1.4926
H	-2.403798	-0.088946	-2.52998
H	-2.519179	0.770805	-0.978471
H	-2.398746	-1.006246	-1.004231
N	-0.14208	1.308307	-2.123144
O	-0.737804	1.583161	-3.160163
O	0.755521	1.959634	-1.607446
C	-0.460398	-1.205554	0.692216
N	-0.862848	-2.151369	1.260546
C	-0.493466	1.168216	0.734027
N	-0.907815	2.114551	1.293262
Cl	3.161082	0.0	0.0
