16

C	-0.36234	-0.010322	-1.491761
C	0.0	0.0	0.0
Cl	-2.132412	-0.020383	-1.732975
H	1.099299	0.0	0.0
C	0.281086	1.150791	-2.212756
H	-0.118605	2.088734	-1.826472
H	0.075466	1.078185	-3.278679
H	1.358739	1.109397	-2.025961
N	0.150623	-1.308478	-2.128127
O	0.525301	-2.203592	-1.38258
O	0.122746	-1.349464	-3.352598
C	-0.563759	-1.09731	0.779387
N	-1.059344	-1.92621	1.447731
C	-0.435828	1.26962	0.581628
N	-0.772837	2.29829	1.038198
Cl	3.149685	0.0	0.0
