16

C	-0.402822	0.219093	-1.464238
C	0.0	0.0	0.0
Cl	-2.175104	0.360916	-1.627456
H	1.107532	0.0	0.0
C	0.299083	1.423651	-2.047767
H	-0.007774	2.322408	-1.511395
H	0.039916	1.52118	-3.101135
H	1.37749	1.281946	-1.923605
N	0.004488	-1.00109	-2.29718
O	0.515453	-1.949105	-1.716413
O	-0.208816	-0.917542	-3.500663
C	-0.557637	-1.203357	0.60931
N	-1.040673	-2.130775	1.144213
C	-0.417776	1.166875	0.77911
N	-0.7421	2.110168	1.399065
Cl	3.154269	0.0	0.0
