16

C	-0.540479	-0.001568	-1.443202
C	0.0	0.0	0.0
Cl	0.193289	-1.35636	-2.314444
H	1.094343	0.0	0.0
C	-2.0502	-0.064629	-1.536422
H	-2.48809	0.806134	-1.040662
H	-2.403302	-0.97307	-1.046478
H	-2.352108	-0.074224	-2.582082
N	-0.086227	1.283024	-2.14349
O	-0.543887	1.460479	-3.267673
O	0.67528	2.028813	-1.544648
C	-0.442173	-1.231827	0.658666
N	-0.818689	-2.213465	1.182554
C	-0.519606	1.142579	0.751858
N	-0.953763	2.064789	1.336354
Cl	3.149927	0.0	0.0
