16

C	-0.340041	0.166572	-1.491005
C	0.0	0.0	0.0
Cl	-2.102334	0.072338	-1.780551
H	1.096853	0.0	0.0
C	0.23177	1.455437	-2.026987
H	0.053147	1.528609	-3.097041
H	1.306754	1.4579	-1.826594
H	-0.23758	2.297745	-1.51983
N	0.261145	-1.014254	-2.263736
O	0.659783	-0.78708	-3.399423
O	0.255579	-2.103113	-1.707588
C	-0.543384	-1.184621	0.65979
N	-1.015572	-2.067955	1.273843
C	-0.451464	1.182466	0.731563
N	-0.814011	2.126682	1.329895
Cl	3.137922	0.0	0.0
