12

C	-0.420884	-0.030686	-1.456028
C	0.0	0.0	0.0
Br	0.021656	1.644345	-2.340485
H	1.094763	0.0	0.0
H	0.137327	-0.812915	-1.962839
H	-1.492079	-0.178881	-1.580477
N	-0.338917	-1.24669	0.655263
O	-0.342301	-1.27162	1.89555
O	-0.434753	-2.256243	-0.067522
C	-0.504047	1.122369	0.757592
N	-0.897184	2.056825	1.35504
H	2.387504	0.0	0.0
