12

C	-0.537802	-0.002132	-1.40932
C	0.0	0.0	0.0
Br	0.580717	-0.963376	-2.710401
H	1.091828	0.0	0.0
H	-0.591615	1.0198	-1.784023
H	-1.513456	-0.482348	-1.462335
N	-0.367398	-1.183144	0.750441
O	-0.653068	-2.211096	0.112536
O	-0.215261	-1.136673	1.981069
C	-0.405087	1.191695	0.710825
N	-0.696952	2.213152	1.217555
H	2.355845	0.0	0.0
