12

C	-0.342747	-0.185023	-1.469428
C	0.0	0.0	0.0
Br	-0.222937	1.492992	-2.446695
H	1.092334	0.0	0.0
H	-1.346165	-0.576019	-1.625982
H	0.40341	-0.84884	-1.903675
N	-0.32462	-1.203243	0.737428
O	-0.315276	-2.266818	0.089928
O	-0.413506	-1.136564	1.971769
C	-0.537403	1.166705	0.652934
N	-0.926024	2.147253	1.175066
H	2.376622	0.0	0.0
