18
Coordinates from ORCA-job run
  C   -0.45763248343129     -0.40751346282718      0.17233986053711
  C   0.67683024905799      0.63400968739155      0.08437897831606
  F   0.12337263510704     -1.59749148240330      0.63548430975022
  H   0.22742038195199      1.57896396313439     -0.24586825285592
  C   -1.05471340017132     -0.70361034990512     -1.19067605877714
  H   -1.89018851634634     -1.39705257286692     -1.07769028806355
  H   -1.42389252026434      0.20931532323160     -1.66478057614893
  H   -0.31743098560483     -1.17043771960071     -1.84377025333714
  C   -1.51599912293015     -0.00462458617472      1.18036850636030
  H   -1.07558802257787      0.12679616999590      2.16976569481373
  H   -2.27437382164720     -0.78746838462725      1.24270641867244
  H   -2.00172021734789      0.92786461210533      0.88190577462905
  C   1.79883757968744      0.23897876676890     -0.88304235405490
  H   2.16717627834541     -0.75761345694131     -0.63786768522168
  H   2.62861619202243      0.94344549697243     -0.80861067104540
  H   1.44275328156694      0.24440936191055     -1.91363214803014
  C   1.23897591576227      0.86707010914210      1.41863922928148
  N   1.70555657681973      1.05495852469374      2.47934951517442
