18
Coordinates from ORCA-job run
  C   -0.76287873736393      0.16212010179421      0.08130229351928
  C   0.61313674508539      0.84285826252731     -0.04371417003132
  F   -1.64338084780390      1.18744503398742      0.46391760905640
  H   0.46910988302585      1.68788872814649     -0.72774160639054
  C   -0.81966708330802     -0.89559438364553      1.16429967113732
  H   -1.84199262620855     -1.27065327996030      1.24275459817152
  H   -0.53463419427927     -0.47276251558927      2.12901925034403
  H   -0.16239099861803     -1.73688268596925      0.93623750603684
  C   -1.25265664132253     -0.35485871509060     -1.25775253319787
  H   -1.16576505518908      0.41757190235813     -2.02579682181386
  H   -2.30600490290614     -0.62578921276488     -1.16411047487906
  H   -0.69880537945333     -1.23904659970585     -1.57672141813338
  C   1.72037013923195     -0.06550420563430     -0.58826710432646
  H   1.47530027154013     -0.41186997009851     -1.59298004406163
  H   1.87410139913841     -0.93126467993086      0.05784405507216
  H   2.66162121086453      0.48401002811595     -0.64072712854838
  C   1.01338194190773      1.40248783154723      1.25065135612454
  N   1.36115487565881      1.81884435991262      2.29178496192040
