18
Coordinates from ORCA-job run
  C   -0.45847978627218     -0.41598681792846      0.14732343869234
  C   0.69512563709291      0.60780879522240      0.11666057259311
  F   0.11564248680492     -1.66160678128123      0.44213586803479
  H   0.25286267322314      1.59012965676963     -0.09173146257594
  C   -1.13104464998712     -0.54371563734506     -1.20673166536725
  H   -0.43796055625102     -0.93898762251512     -1.94935687279460
  H   -1.50889136814504      0.42261974096247     -1.55016670003310
  H   -1.97130682446485     -1.23624758443601     -1.12970377148152
  C   -1.45403725618486     -0.11070569900272      1.24932610541281
  H   -1.92227136130023      0.86435973157553      1.09132270277652
  H   -0.96173384918350     -0.11277034504026      2.22303768423493
  H   -2.23424532044910     -0.87447893848515      1.25635159342546
  C   1.76325990176308      0.29718036794878     -0.93859774600511
  H   2.11699514659069     -0.72720628301535     -0.81887799691325
  H   2.61273498678767      0.97286600611977     -0.82809211515289
  H   1.36222453465038      0.42095729550953     -1.94495454741522
  C   1.32100776525004      0.68970780117429      1.43997600914062
  N   1.83711784007508      0.75707631376699      2.49207890342830
