18
Coordinates from ORCA-job run
  C   -0.50073931176423     -0.33509843144688     -0.37015904272562
  C   0.67935090567084      0.65710615983249     -0.29563585008926
  F   -0.24923279756439     -1.11282390308111     -1.51371732991342
  H   0.65140144683912      1.22977357072350     -1.23065861998262
  C   -1.81422965502815      0.38336801970045     -0.60508109437135
  H   -2.60141440159197     -0.35159255489076     -0.78452966940987
  H   -2.09156844951572      0.99071266175988      0.25844247470600
  H   -1.74111865272138      1.02956353383319     -1.48301320551051
  C   -0.56155874883618     -1.27737332329748      0.81407281972062
  H   0.33820415684431     -1.89106015376511      0.86744246135701
  H   -0.67013618298283     -0.72243870915939      1.74851368722436
  H   -1.41878173309130     -1.94437910937593      0.70372990868846
  C   2.04826971021488     -0.02027220718826     -0.17553598312713
  H   2.84321314384389      0.71576075137073     -0.30745887366785
  H   2.17880997973008     -0.48500785950353      0.80234839215285
  H   2.14423522447392     -0.78160161968471     -0.94987799453185
  C   0.46686313420760      1.59415898627883      0.80773746573526
  N   0.29843223127150      2.32020418789410      1.71538045374493
