16

C	-0.576069	-0.015026	-1.432044
C	0.0	0.0	0.0
Cl	0.288087	0.993477	-2.589476
H	1.091646	0.0	0.0
N	-0.428374	-1.468096	-1.932625
O	0.694693	-1.928917	-1.873946
O	-1.438699	-2.011556	-2.363576
C	-1.998381	0.314778	-1.421744
N	-3.138175	0.593627	-1.343019
N	-0.496123	-1.134967	0.700976
H	0.247131	-1.514155	1.274217
H	-1.28161	-0.888126	1.289233
N	-0.418211	1.311112	0.653076
O	-0.980573	1.249678	1.74517
O	-0.156871	2.343597	0.048165
Cl	3.210041	0.0	0.0
