16

C	-0.596224	-0.064291	-1.412869
C	0.0	0.0	0.0
Cl	-2.357166	0.156278	-1.350769
H	1.093248	0.0	0.0
N	0.02984	0.984934	-2.375669
O	1.193781	0.742888	-2.647458
O	-0.663482	1.903002	-2.775249
C	-0.31225	-1.367293	-2.0035
N	-0.147431	-2.403044	-2.533343
N	-0.447866	-1.116032	0.749665
H	-1.304987	-0.913307	1.246186
H	0.274941	-1.383502	1.406326
N	-0.392136	1.337674	0.602863
O	-0.981939	1.338205	1.681505
O	-0.070306	2.332776	-0.037704
Cl	3.180366	0.0	0.0
