16

C	-0.565675	-0.061355	-1.438352
C	0.0	0.0	0.0
Cl	-2.334181	0.103278	-1.406885
H	1.089953	0.0	0.0
N	0.041083	1.002075	-2.397015
O	-0.686793	1.871688	-2.844143
O	1.226492	0.818277	-2.618704
C	-0.227277	-1.35587	-2.020085
N	0.026761	-2.410282	-2.472595
N	-0.411745	-1.070822	0.814974
H	0.29663	-1.784465	0.875656
H	-1.338617	-1.431194	0.651201
N	-0.43353	1.337192	0.577289
O	-1.031443	1.364171	1.642766
O	-0.126863	2.316112	-0.102173
Cl	3.200816	0.0	0.0
