12
Coordinates from ORCA-job run
  C   1.24893441255036      0.23175164603344     -0.13699590592894
  C   -0.09238280995766      0.25479543933811     -0.02361980866112
  H   1.79504515200404      1.15357243027476     -0.30594108529190
  C   1.97863055684955     -0.98615288938278     -0.03398297271060
  N   2.58521056671996     -1.99156210685185      0.05020508309096
  N   -0.73949350630138      1.58450918033835     -0.15140667061099
  O   -1.96883526583944      1.59234226046362     -0.09054027666468
  O   -0.02770978796209      2.57196828284265     -0.30679286890271
  C   -1.01386219461383     -0.88854374956797      0.20655726577918
  H   -1.72452574075315     -0.97503260939003     -0.61744823433842
  H   -0.44634798943800     -1.81503144580140      0.29472161713260
  H   -1.59466339325835     -0.73061643829690      1.11724385710662
