12
Coordinates from ORCA-job run
  C   1.24822709344526      0.22528122203533     -0.15148358089379
  C   -0.09143902386343      0.25552343960599     -0.02133232613754
  H   1.79900472580043      1.14518046749529     -0.31546205908981
  C   1.97067308217095     -0.99908237821511     -0.07702945666843
  N   2.57381353773592     -2.00824582582266     -0.01564721337303
  N   -0.73079038955254      1.59168374538351     -0.11565067287089
  O   -1.95687297105153      1.60958990809104     -0.00863183390929
  O   -0.01627114529995      2.57388779447293     -0.29012422587515
  C   -1.01730197269249     -0.88497208861056      0.20576270138540
  H   -1.74560665033571     -0.94980604573815     -0.60474607740627
  H   -0.45583539798084     -1.81760543503291      0.26392509631551
  H   -1.57760088837606     -0.74043480366469      1.13141964852330
