12
Coordinates from ORCA-job run
  C   1.24425222396682      0.26663579459224     -0.10933199277210
  C   -0.09724580233590      0.25395190420386      0.00201812815247
  H   1.77417085872303      1.21061696628887     -0.17970684559005
  C   1.99623793480789     -0.94193244446855     -0.12883011881952
  N   2.62495966639963     -1.93716764069241     -0.14551913232734
  N   -0.76827087330523      1.57792920226011      0.00790565332749
  O   -0.07339350693267      2.58887790018379     -0.02106373160594
  O   -1.99850614863028      1.55675112321001      0.04261946420344
  C   -0.99788540696542     -0.92337798007161      0.11165071082358
  H   -1.70288168945300     -0.94092079813838     -0.72134946823669
  H   -1.58573231860964     -0.86672813272817      1.02969446920047
  H   -0.41370493766523     -1.84363589463977      0.11191286364418
