12
Coordinates from ORCA-job run
  C   1.04090444019452     -0.51716553442316     -0.40934162669297
  C   -0.15316949876047     -0.05209624812766      0.00199913134645
  H   1.11621402708887     -1.57456439241486     -0.64674195873420
  C   2.23968160343325      0.24251911450494     -0.53854324411730
  N   3.27858446414229      0.78302428919387     -0.65544321620094
  N   -0.29517070245218      1.36918980437708      0.36751321522128
  O   0.33349808574645      2.19965274984113     -0.28307856885426
  O   -1.05271406998482      1.60514326627288      1.30804947499308
  C   -1.38804144350855     -0.86459018400868      0.17922348738521
  H   -2.21614714294317     -0.42272499882351     -0.38051743192572
  H   -1.67928280093493     -0.88497769600453      1.23029250871414
  H   -1.22435696202126     -1.88341017038752     -0.17241177113476
