12
Coordinates from ORCA-job run
  C   1.13893481186388      0.12985456489323     -0.56419007878538
  C   -0.10715579188034      0.24095092079921     -0.06689119513677
  H   1.56938906699480      0.94417480311742     -1.13702922971678
  C   1.91586073010857     -1.04449167374775     -0.35505593255255
  N   2.56176145713596     -2.01389032874659     -0.18504927831804
  N   -0.81664871825042      1.51341607901839     -0.35057108893668
  O   -1.95118416447332      1.61203046630198      0.11656695150104
  O   -0.24312012037539      2.37009253978673     -1.01636014752666
  C   -0.86676508256017     -0.75279555262626      0.73613177181685
  H   -1.13768858408235     -0.33004987174533      1.70531376372335
  H   -0.26617596761951     -1.64978044244716      0.88737906185796
  H   -1.79620763686172     -1.01951150460386      0.22975540207365
