12
Coordinates from ORCA-job run
  C   1.15440076639483      0.16549864426756     -0.52074339822348
  C   -0.09966823708796      0.25002222241243     -0.03854394587257
  H   1.61735132875324      1.03017759214938     -0.98385838020531
  C   1.89850806274878     -1.04530561440582     -0.43786190043910
  N   2.51808808686010     -2.04420190996388     -0.37289968733446
  N   -0.77201273172439      1.56528097186341     -0.18487554532134
  O   -1.92015206867356      1.63394925064198      0.25356350239405
  O   -0.15765506385322      2.48293415890001     -0.72008410440020
  C   -0.90201368379298     -0.81147869344670      0.62382984487971
  H   -0.32495169072541     -1.73436267191863      0.68413073467936
  H   -1.82233850639605     -0.99510169518192      0.06649133857898
  H   -1.19055626250337     -0.49841225531782      1.62885154126436
