12
Coordinates from ORCA-job run
  C   1.13088318752086     -0.48414357506097      0.06617584161317
  C   -0.13403027508642     -0.02501414208738      0.08817351659192
  H   1.35099137264943     -1.38432888076483      0.63309982730217
  C   2.21818848503821      0.08268851431466     -0.66021281418025
  N   3.16816125905860      0.46863697947081     -1.23780968499513
  N   -0.48741383364918      1.17425759592872     -0.69294515220016
  O   0.33885020885549      2.07962246684080     -0.76876310126505
  O   -1.60543718684223      1.16604805034351     -1.20698375639043
  C   -1.27429709220485     -0.65469816679675      0.80934750839090
  H   -2.02127307814162     -1.00843478027744      0.09745129389049
  H   -0.92332377822249     -1.49073704829378      1.41452476210699
  H   -1.76229926897580      0.07610298638267      1.45894175913538
