12
Coordinates from ORCA-job run
  C   1.09098102947221     -0.57150339257973     -0.03258086816855
  C   -0.15174236485627     -0.05538221889028     -0.01389378600029
  H   1.19247895760125     -1.64874255486451      0.06413324069199
  C   2.30605994875463      0.16598981728990     -0.13642279382132
  N   3.35894572509865      0.68835356555988     -0.19589129702035
  N   -0.33575774438931      1.40451177272026     -0.10792853751643
  O   0.42703662646967      2.03900022413618     -0.83151474823841
  O   -1.26120881047853      1.86923569643143      0.55675099196714
  C   -1.41277966592044     -0.83059480144704      0.14476575018852
  H   -1.20265995307737     -1.90027259587796      0.13708335308988
  H   -2.10651464859313     -0.59692104293190     -0.66658762746152
  H   -1.90483910008135     -0.56367446954624      1.08108632228934
