12
Coordinates from ORCA-job run
  C   1.06133871241105     -0.55246695015596     -0.29381024449775
  C   -0.14959139326445     -0.05784288742783      0.02283059365850
  H   1.20065322863016     -1.62793231068863     -0.23021726615022
  C   2.20409596926852      0.20608224653494     -0.68094941963990
  N   3.20247044001469      0.74779874250380     -0.98890516205115
  N   -0.37506352168443      1.39850930669834     -0.01713593638322
  O   0.18159005981668      2.04654643592243     -0.89935652600676
  O   -1.12221852698731      1.84676727134461      0.85179162070503
  C   -1.32331810859187     -0.85545470345645      0.47301996702271
  H   -1.10248650971518     -1.92121090111539      0.41105072508377
  H   -1.58377207599812     -0.59742829295998      1.50045301598012
  H   -2.19369827389973     -0.63436795719987     -0.14977136772112
