12
Coordinates from ORCA-job run
  C   1.14217975808211      0.15089022117411     -0.55159098993687
  C   -0.10785819855777      0.24231859512921     -0.06038309032944
  H   1.57729676411883      0.98741074674202     -1.08768420245645
  C   1.91573747778640     -1.03316695187644     -0.38852584433736
  N   2.55990302988442     -2.00965910334848     -0.25652573744661
  N   -0.81020365351988      1.52973646852487     -0.28837584364171
  O   -0.26417817432785      2.38142545754522     -0.98313286346549
  O   -1.91111018012788      1.64440202788846      0.25041948571961
  C   -0.87386477200357     -0.78203030160033      0.69679518601508
  H   -1.81048630252654     -1.01004104758297      0.18436018607921
  H   -1.13230579040363     -0.40694829851906      1.68854502368484
  H   -0.28410995840464     -1.69333781407659      0.79609869011519
