12
Coordinates from ORCA-job run
  C   1.13930211040653      0.16196109072130     -0.55460149051110
  C   -0.12142865187797      0.22682247591580     -0.08731956706772
  H   1.53854965716669      0.97306594626686     -1.15384979050937
  C   1.96971075803619     -0.96245395485048     -0.28534114082950
  N   2.65975347603017     -1.89038551130605     -0.06491698404987
  N   -0.87992815987440      1.45740035043329     -0.41932216561878
  O   -1.93925519222049      1.61588990545268      0.18676555834540
  O   -0.41424991485459      2.22538619485031     -1.25597538694217
  C   -0.84450944656294     -0.76686149036383      0.74880140645397
  H   -1.77951473965418     -1.05878116940682      0.26625362141769
  H   -1.10239970293610     -0.33234356810207      1.71603305233736
  H   -0.22503019365891     -1.65070026961099      0.90147288697409
