12
Coordinates from ORCA-job run
  C   1.06051246089671     -0.45944480485291     -0.43252271917909
  C   -0.15137188414916     -0.05745935402285     -0.00777462377506
  H   1.17183713017045     -1.49417561390472     -0.74392870045697
  C   2.23954325837008      0.34122793323990     -0.47865260142974
  N   3.26459172068848      0.91678812447690     -0.53201384067450
  N   -0.33626076329248      1.32780860582400      0.46300151363471
  O   -1.11039046012669      1.47138695759194      1.40867759327715
  O   0.27590332622689      2.22170053385251     -0.11512778480750
  C   -1.36771385772376     -0.91156508939629      0.09014511039186
  H   -1.67714235112698     -1.00622265246374      1.13185906617399
  H   -1.17315572282975     -1.89958406614156     -0.32787703216130
  H   -2.19435285710379     -0.45246057420319     -0.45678598099355
