12
Coordinates from ORCA-job run
  C   1.07096922489601     -0.49648039416139     -0.35356192206370
  C   -0.15176169227934     -0.05579136519152     -0.00409142967136
  H   1.18483861709041     -1.55539568862476     -0.56755211450274
  C   2.25446331160714      0.29253664716056     -0.44310071983073
  N   3.28327301570544      0.85826736659837     -0.52362378922026
  N   -0.34649857274405      1.36720158868888      0.32769875721447
  O   0.28902637340015      2.20258996973460     -0.30982307894867
  O   -1.15074914271141      1.59956420100551      1.22960773210509
  C   -1.37186256584552     -0.89779828348557      0.13379037972706
  H   -2.18594982742038     -0.48779575443666     -0.46906512105222
  H   -1.16643813042982     -1.91772064443265     -0.19172570837431
  H   -1.70831061126864     -0.90817764285537      1.17144701461737
