12
Coordinates from ORCA-job run
  C   1.04373891276296     -0.49564955806395     -0.42760510884966
  C   -0.15180688143905     -0.05618011435125      0.00689569422294
  H   1.14179444454365     -1.55359481022403     -0.65432230980660
  C   2.21869201071250      0.29321008318760     -0.59520721283509
  N   3.24045602710536      0.85766207693634     -0.74481269156229
  N   -0.32239001028465      1.36618002307354      0.35551755760689
  O   -1.06281136211568      1.59645534302951      1.31099106503190
  O   0.26919849874927      2.20305361311783     -0.32124904052914
  C   -1.36052629085285     -0.89734632940656      0.22431872746218
  H   -2.21366508167402     -0.48429354984470     -0.31954727021103
  H   -1.17926129087534     -1.91617863084731     -0.11842731911783
  H   -1.62541897663216     -0.91231814660703      1.28244790858773
