15
Coordinates from ORCA-job run
  C   0.53161288098207     -0.17331831351274      0.52096145201525
  C   -0.80803758692060      0.38623361576294      0.03153052714681
  F   0.43755474033625     -0.22395607506039      1.90971365980654
  H   -1.02303047947310      1.27333226924071      0.63816007599086
  N   1.62088352350589      0.88938869503961      0.30119557705571
  O   1.33556548522379      2.02196947088948      0.67159679522048
  O   2.68424954537667      0.52747448713757     -0.18961635734588
  N   0.87366862063671     -1.38328551930255     -0.03573350092891
  H   0.17120320270781     -1.78079015669165     -0.63889974423943
  H   1.82817840363439     -1.45944655184860     -0.34767139080335
  N   -1.78876964425364     -0.69045312420142      0.12823445853405
  H   -2.68193205042694     -0.37767988660946     -0.23253659602748
  H   -1.90944280528874     -0.93346241718538      1.10550942007502
  C   -0.67899377796194      0.80010143568234     -1.36944108490465
  N   -0.59271005807864      1.12489207065955     -2.49400329159503
