15
Coordinates from ORCA-job run
  C   0.54231294060513     -0.18885430347178      0.47704361440020
  C   -0.84254603058245      0.40414430836428      0.21590955531366
  F   0.69945495634643     -0.45359248725186      1.79708234797964
  H   -0.92614357573376      1.31066365316590      0.81755985315556
  N   1.61021179599672      0.92363250441588      0.21871117338107
  O   1.29980340284283      2.07384497493819      0.50927130496998
  O   2.69795170307521      0.54268868707038     -0.20035459224678
  N   0.77005572676882     -1.35421433895681     -0.26362197017497
  H   1.66498564825255     -1.76150900668271     -0.02219889154363
  H   0.74221623287601     -1.17512796325160     -1.25985648659830
  N   -1.83936735129593     -0.55142270541459      0.64427726851475
  H   -2.76836840141198     -0.16538753029176      0.53684602239104
  H   -1.76406951021170     -1.40531960916975      0.10621554951036
  C   -0.90613056234009      0.78475640701044     -1.21238110529166
  N   -0.98036697518780      1.01569740952579     -2.36250364376092
