15
Coordinates from ORCA-job run
  C   0.61648521753175     -0.13604227675315      0.32201914810832
  C   -0.79902785640009      0.39841019107917      0.10592863226674
  F   0.72004503225760     -0.37901269896855      1.70037430549614
  H   -0.92192904479127      1.27125108172229      0.75603525125021
  N   1.66721988973738      0.93942606247743      0.09762202358615
  O   1.28953238585542      2.10693734778909      0.10522769539222
  O   2.82083407934048      0.54342877685190     -0.01447692781639
  N   0.89921002760249     -1.21832078230605     -0.48632237510668
  H   1.81352691776300     -1.61313445415942     -0.31847675956902
  H   0.14855661540423     -1.89544715136447     -0.45252947891937
  N   -1.70639492782029     -0.71258990599210      0.40143406524513
  H   -2.62996664953675     -0.51473446730886      0.03749859726002
  H   -1.77613039421375     -0.81916354585366      1.40651590340092
  C   -0.97680025100754      0.83028352286340     -1.28136692151781
  N   -1.16616104172267      1.19770829992298     -2.37948315907658
