15
Coordinates from ORCA-job run
  C   0.47241843766298     -0.20352200359572      0.41208237263221
  C   -0.88627217009465      0.44884281486501      0.10399762789255
  F   0.49208690211014     -0.55662109089951      1.72960257384689
  H   -0.95359157769096      1.34595582500929      0.72464607625714
  N   1.56935208049544      0.89439984197923      0.31285320649254
  O   1.37207220036277      1.90936341196065      0.97219696478320
  O   2.53744639829933      0.65887862270595     -0.40271216293354
  N   0.72203932664975     -1.33266921453627     -0.37298017025039
  H   1.58229482468706     -1.78774427122514     -0.09309204521880
  H   0.77526419381179     -1.09915418249199     -1.35673242893591
  N   -2.01684424493461     -0.40824042492339      0.38375011234650
  H   -1.86978338695737     -1.31473324249830     -0.04568269944146
  H   -2.09065491454839     -0.54254361539091      1.38465744129445
  C   -0.87949133743256      0.85581715741960     -1.30672985421905
  N   -0.82433673242073      1.13097037162149     -2.44685701454633
