15
Coordinates from ORCA-job run
  C   0.62473875029308      0.09493925310474      0.37297143729041
  C   -0.74613620453810     -0.12288066125975     -0.28723672801067
  F   0.57422499774293      1.27189467662982      1.04138022359351
  H   -0.66382235107740     -1.03199705929298     -0.88896616672733
  N   1.61918549726872      0.23655729870183     -0.77301229017341
  O   1.75859100337606     -0.78545047519099     -1.43936921931603
  O   2.18069396937264      1.30573945840870     -0.92507977007634
  N   1.13526665356514     -0.90401954527951      1.23230066753843
  H   1.28485728067062     -1.77287086662832      0.73745941522895
  H   0.53109255185523     -1.04108971327049      2.03289008078226
  N   -1.02752419109795      0.99019439323022     -1.16666474157730
  H   -1.83787773944573      0.80361585123964     -1.74242472150815
  H   -1.19201500026913      1.83430015774860     -0.63252618963655
  C   -1.72875540827234     -0.36001447161944      0.78914990486124
  N   -2.51451980944376     -0.51891829652207      1.64812809773097
