15
Coordinates from ORCA-job run
  C   0.59163775126019      0.03678048110594      0.29604290344180
  C   -0.78572566575137     -0.16381208025937     -0.33048661845290
  F   0.59490626428337      1.26895077606108      0.91245804537092
  H   -0.71610924094622     -1.04742749765040     -0.96677331433525
  N   1.61276991792816      0.13112049349374     -0.83859657291246
  O   2.49832189518985      0.96552185452320     -0.71207997036148
  O   1.48344191544323     -0.67807494784033     -1.74595590495755
  N   0.99794100540737     -1.01764721286114      1.12289387933632
  H   0.33401726074837     -1.18267891692049      1.86963850032592
  H   1.91605298393118     -0.84246977142927      1.51416889691083
  N   -1.08369772472777      0.98975144109973     -1.15195616629117
  H   -1.29888280064924      1.79410754224833     -0.57696464723892
  H   -1.86697725959037      0.80169539408765     -1.76290773091505
  C   -1.75263145531105     -0.43398351957664      0.75200650076504
  N   -2.52406484721570     -0.61983403608202      1.61851219931393
