15

C	0.0	0.0	0.0
C	-0.49	-0.198004	-1.423658
F	1.380256	0.0	0.0
H	-0.070952	-1.124277	-1.820846
H	-0.346583	0.957653	0.392687
C	-0.446285	-1.107408	0.856073
N	-0.714143	-2.023331	1.539079
N	0.132813	0.885237	-2.25724
O	0.10231	2.030385	-1.813296
O	0.591269	0.555295	-3.349077
C	-1.997095	-0.127265	-1.560073
H	-2.502652	-0.88528	-0.96266
H	-2.391347	0.825648	-1.211814
H	-2.28034	-0.269781	-2.604519
Cl	-4.918134	0.0	0.0
