15

C	0.0	0.0	0.0
C	-0.462489	-0.536704	-1.343354
F	1.380312	0.0	0.0
H	0.065355	-1.47157	-1.540797
H	-0.354034	1.019837	0.15081
C	-0.435382	-0.875528	1.096623
N	-0.674316	-1.597384	1.989393
N	0.04942	0.408056	-2.397107
O	-0.02063	1.613654	-2.17235
O	0.460241	-0.099112	-3.438236
C	-1.963802	-0.676686	-1.488432
H	-2.356997	-1.418797	-0.794392
H	-2.198475	-0.994148	-2.50641
H	-2.501683	0.242964	-1.265254
Cl	-4.854744	0.0	0.0
