15

C	0.0	0.0	0.0
C	-0.433698	-0.316531	-1.422825
F	1.380382	0.0	0.0
H	0.111124	-1.204982	-1.749476
H	-0.360205	0.980365	0.313781
C	-0.442247	-1.047895	0.929265
N	-0.711851	-1.900763	1.688893
N	0.09748	0.783425	-2.30033
O	0.017976	1.937916	-1.8881
O	0.533219	0.448402	-3.399518
C	-1.925889	-0.447795	-1.639555
H	-2.120072	-0.601566	-2.703157
H	-2.487608	0.41566	-1.286454
H	-2.326736	-1.297113	-1.087131
Cl	-4.77976	0.0	0.0
