15

C	0.0	0.0	0.0
C	-0.494591	-0.072177	-1.444683
F	1.37724	0.0	0.0
H	-1.512723	-0.472201	-1.423088
H	-0.369691	0.922634	0.44942
C	-0.400044	-1.135241	0.851276
N	-0.546841	-2.028066	1.598629
N	0.359975	-1.068509	-2.172494
O	0.952055	-0.710926	-3.191001
O	0.402218	-2.202109	-1.703414
C	-0.465822	1.283689	-2.110158
H	-1.216028	1.900536	-1.612538
H	0.520781	1.7442	-2.032444
H	-0.729021	1.201896	-3.164248
Cl	-3.299295	0.0	0.0
