15

C	0.0	0.0	0.0
C	-0.431964	0.10499	-1.502966
Cl	1.793654	0.0	0.0
H	0.493119	0.22677	-2.078102
H	-0.341	0.889495	0.52055
C	-0.449981	-1.198329	0.701142
N	-0.636777	-2.198631	1.287524
N	-1.204934	1.341165	-1.625051
H	-2.042107	1.098505	-1.056004
H	-1.486921	1.428462	-2.598012
C	-1.158743	-1.140539	-2.016484
H	-2.119951	-1.16065	-1.495217
H	-1.298753	-1.038649	-3.1011
H	-0.60071	-2.065517	-1.831269
F	-2.671281	0.0	0.0
