15

C	0.0	0.0	0.0
C	-0.553485	0.237454	-1.418601
Cl	1.783291	0.0	0.0
H	-1.571497	0.573593	-1.172678
H	-0.328414	0.824725	0.630656
C	-0.465383	-1.244301	0.609525
N	-0.648823	-2.271795	1.149039
N	-0.597855	-1.050522	-2.124354
H	-1.430826	-1.504534	-1.752067
H	-0.798003	-0.860656	-3.101982
C	0.232835	1.266455	-2.207455
H	0.394661	2.173818	-1.618272
H	-0.345557	1.547984	-3.094304
H	1.204485	0.884574	-2.53183
F	-2.671575	0.0	0.0
