15

C	0.0	0.0	0.0
C	-0.308409	-0.119109	-1.549734
Cl	1.789999	0.0	0.0
H	0.601566	0.24953	-2.024583
H	-0.356778	0.954087	0.377098
C	-0.48648	-1.091904	0.830892
N	-0.65935	-2.028647	1.520919
N	-1.394376	0.737722	-1.988883
H	-2.153008	0.545809	-1.277269
H	-1.711707	0.367137	-2.879695
C	-0.446752	-1.593039	-1.924984
H	-0.467881	-1.694302	-3.013155
H	-1.373427	-1.98519	-1.510329
H	0.397427	-2.179109	-1.551607
F	-2.675555	0.0	0.0
