15

C	0.0	0.0	0.0
C	-0.436299	0.024438	-1.504106
Cl	1.793653	0.0	0.0
H	0.482312	0.144291	-2.086813
H	-0.340686	0.917149	0.471925
C	-0.452147	-1.154425	0.769862
N	-0.64557	-2.117063	1.414313
N	-1.241458	1.228281	-1.691041
H	-2.073865	0.999388	-1.102713
H	-1.535465	1.25195	-2.663989
C	-1.115353	-1.273024	-1.938231
H	-1.32303	-1.217588	-3.012556
H	-2.044893	-1.334881	-1.37225
H	-0.48608	-2.152582	-1.761756
F	-2.696691	0.0	0.0
