15

C	0.0	0.0	0.0
C	-0.484613	0.194269	-1.460137
Cl	1.79036	0.0	0.0
H	-1.570204	0.271328	-1.271114
H	-0.351415	0.826371	0.612049
C	-0.469401	-1.25961	0.573018
N	-0.639467	-2.326679	1.037867
N	-0.224085	-0.946204	-2.325312
H	-0.833231	-1.702088	-2.03233
H	0.733221	-1.265598	-2.211816
C	0.070751	1.469212	-2.072681
H	-0.076694	2.319724	-1.399867
H	-0.466067	1.664893	-3.003364
H	1.137939	1.396059	-2.30494
F	-2.608063	0.0	0.0
