15

C	0.0	0.0	0.0
C	-0.328184	0.112407	-1.539634
Cl	1.792042	0.0	0.0
H	0.573289	-0.249675	-2.049685
H	-0.327118	0.906737	0.494751
C	-0.52376	-1.124081	0.782306
N	-0.762102	-1.952624	1.583416
N	-0.466532	1.526131	-1.889195
H	0.341106	2.023752	-1.513048
H	-1.289295	1.844654	-1.371141
C	-1.482583	-0.668136	-2.138384
H	-2.42064	-0.224929	-1.823174
H	-1.328439	-0.650456	-3.224411
H	-1.492343	-1.703312	-1.787644
F	-2.483403	0.0	0.0
