15

C	-0.341973	0.01113	-1.471164
C	0.0	0.0	0.0
Cl	-0.066572	-1.609316	-2.224049
H	1.089228	0.0	0.0
H	-0.348647	0.925905	0.45537
N	-1.803321	0.376119	-1.757017
O	-2.140887	0.382465	-2.935245
O	-2.497586	0.721088	-0.808844
N	0.423041	1.044036	-2.058005
H	0.355044	1.007482	-3.06712
H	1.399015	0.958144	-1.767904
N	-0.562986	-1.102159	0.811369
O	-1.503236	-1.754448	0.361272
O	-0.073491	-1.240578	1.928516
Br	3.433043	0.0	0.0
