15

C	-0.669464	-0.022833	-1.354268
C	0.0	0.0	0.0
Cl	-0.087369	1.468797	-2.235429
H	1.085927	0.0	0.0
H	-0.330349	0.895628	0.527413
N	-0.200176	-1.168957	-2.252998
O	-1.034476	-1.599385	-3.04679
O	0.962212	-1.511684	-2.155511
N	-2.066863	-0.116155	-1.237924
H	-2.438202	0.685759	-0.748147
H	-2.502742	-0.228817	-2.143143
N	-0.488975	-1.146812	0.810991
O	-0.884705	-0.90119	1.95016
O	-0.456525	-2.259826	0.295251
Br	3.481308	0.0	0.0
