15

C	-0.342208	-0.276472	-1.449917
C	0.0	0.0	0.0
Cl	-2.081738	-0.715168	-1.689509
H	1.090809	0.0	0.0
H	-0.437894	0.926135	0.350485
N	-0.271781	1.117439	-2.204799
O	-0.655812	2.120991	-1.619677
O	0.132986	1.068782	-3.360215
N	0.495598	-1.22165	-2.015883
H	0.466126	-1.200875	-3.025837
H	1.446759	-1.13481	-1.656508
N	-0.485411	-1.083538	0.885851
O	-1.314319	-0.766967	1.743391
O	-0.02965	-2.210721	0.722922
Br	3.41697	0.0	0.0
