15

C	-0.445642	-0.15717	-1.447046
C	0.0	0.0	0.0
Cl	-2.144232	-0.676768	-1.513288
H	1.091044	0.0	0.0
H	-0.330663	-0.880901	0.548793
N	-0.294583	1.164038	-2.22514
O	-1.288642	1.780974	-2.573182
O	0.869941	1.468381	-2.432009
N	0.373192	-1.101388	-2.154088
H	1.349909	-0.850741	-1.981669
H	0.215639	-2.024248	-1.767274
N	-0.545569	1.163108	0.730632
O	-0.985153	0.955855	1.861784
O	-0.495625	2.261141	0.1806
Br	3.418591	0.0	0.0
