15

C	-0.425991	-0.249396	-1.435815
C	0.0	0.0	0.0
Cl	-2.136449	-0.750467	-1.534979
H	1.091009	0.0	0.0
H	-0.343602	-0.837568	0.601578
N	-0.292837	1.057322	-2.30166
O	0.869197	1.337441	-2.566164
O	-1.288999	1.669552	-2.658593
N	0.411424	-1.269807	-1.917198
H	0.269648	-1.451854	-2.900433
H	1.386858	-1.048519	-1.72006
N	-0.531933	1.221087	0.634522
O	-0.459868	2.280967	0.013722
O	-0.974293	1.097085	1.77761
Br	3.421757	0.0	0.0
