15

C	-0.616961	-0.025157	-1.387179
C	0.0	0.0	0.0
Cl	0.273542	0.96688	-2.551151
H	1.085993	0.0	0.0
H	-0.372138	-0.84568	0.576688
N	-0.469398	-1.48276	-1.934409
O	-1.200394	-1.76217	-2.88179
O	0.331195	-2.232498	-1.393524
N	-1.97301	0.366175	-1.372759
H	-2.481668	-0.101614	-0.632213
H	-2.401892	0.197333	-2.272997
N	-0.492625	1.216309	0.6979
O	-1.389707	1.052211	1.532189
O	0.002655	2.293998	0.39364
Br	3.471714	0.0	0.0
