17

C	-0.556647	0.035808	-1.411011
C	0.0	0.0	0.0
Br	0.213156	1.420305	-2.525105
H	1.095007	0.0	0.0
H	-1.635341	0.192692	-1.417834
N	-0.372521	-1.292199	-2.096235
O	-1.402306	-1.960977	-2.225702
O	0.755249	-1.639334	-2.411791
C	-0.470243	-1.273864	0.704673
H	-0.040538	-2.165858	0.244891
H	-0.121946	-1.247332	1.739383
H	-1.562311	-1.368143	0.704062
C	-0.467781	1.240468	0.756709
H	-0.104064	2.154496	0.285061
H	-1.562303	1.284731	0.820551
H	-0.063338	1.213003	1.77078
Br	3.622969	0.0	0.0
