17

C	-0.558656	0.024346	-1.408608
C	0.0	0.0	0.0
Br	0.229025	1.38897	-2.535936
H	1.095025	0.0	0.0
H	-1.636673	0.185772	-1.416609
N	-0.378925	-1.311478	-2.076104
O	0.753658	-1.674179	-2.348366
O	-1.412817	-1.966122	-2.241785
C	-0.47477	-1.266705	0.714528
H	-1.567711	-1.354458	0.718565
H	-0.052498	-2.163736	0.2581
H	-0.123021	-1.236797	1.747942
C	-0.462801	1.246997	0.749456
H	-0.100106	2.15667	0.268196
H	-0.05318	1.227887	1.761661
H	-1.556973	1.292814	0.818701
Br	3.645317	0.0	0.0
