17

C	-0.385615	-0.032525	-1.462081
C	0.0	0.0	0.0
Br	-2.30446	-0.271253	-1.784451
H	1.097438	0.0	0.0
H	0.11024	-0.849176	-1.98311
N	0.043004	1.211766	-2.194387
O	-0.589002	2.246924	-2.004164
O	1.032437	1.090415	-2.911649
C	-0.410229	-1.310124	0.66928
H	0.107561	-1.374546	1.628743
H	-1.48901	-1.3626	0.842324
H	-0.109016	-2.179296	0.077813
C	-0.499383	1.20891	0.778068
H	-1.590659	1.284029	0.748324
H	-0.183819	1.102459	1.818928
H	-0.07761	2.141184	0.402794
Br	3.531338	0.0	0.0
