16
Coordinates from ORCA-job run
  C   -0.42685205154828     -0.46943755574673     -0.00429740295781
  C   1.06620724662563     -0.47794289154874      0.33936715092378
  Br  -1.07465068647268     -2.30336424076417      0.34148739369984
  H   1.56918150087389     -1.17973613567857     -0.33166581630293
  H   1.19026597872896     -0.86194214603705      1.36015931165340
  C   -1.19665699494662      0.47521773242620      0.90303586334107
  H   -2.26829583386835      0.42240922825110      0.70244540227134
  H   -1.03337755298870      0.23186259555339      1.95602684908362
  H   -0.85906793258002      1.49833845130274      0.71486748338367
  C   -0.66098887868115     -0.15594627778114     -1.47122826834966
  H   -0.15961011352191     -0.88511908137862     -2.11166225440538
  H   -1.72692485557663     -0.16667737778852     -1.70739339684204
  H   -0.25350756762038      0.83539996047102     -1.68119746162320
  N   1.62241164028984      0.86262977460324      0.14920059414844
  H   1.63747637055219      1.36705769238078      1.02541196932031
  H   2.57438973073422      0.80625027173506     -0.18555741734444
