16
Coordinates from ORCA-job run
  C   -0.35669008672643     -0.28351406754292     -0.09103949688219
  C   1.13402035319087      0.04453443568256     -0.07179745294031
  Br  -0.56754042259412     -2.10687303529893      0.66522897826318
  H   1.65419041217543     -0.68643685223481     -0.70892266259052
  H   1.23945662445259      1.02731282833127     -0.54839412500787
  C   -1.16095380334526      0.67191649548754      0.77116331474845
  H   -2.21881211211732      0.40204645709361      0.76803914711015
  H   -0.78683314603791      0.67951741689386      1.79300255726901
  H   -1.05815126220899      1.68354930770374      0.36238477628779
  C   -0.87060328198931     -0.33243555172037     -1.52023639000569
  H   -0.30065319991186     -1.04164117171817     -2.12406769105088
  H   -1.92196717802402     -0.62433083142324     -1.54705584878608
  H   -0.77748267483392      0.66284369109644     -1.96859507649198
  N   1.66216028911550      0.14459661175983      1.28197494648640
  H   1.73574378116044     -0.78321406108631      1.68182230349389
  H   2.59311570769432      0.54112832697592      1.25549272009665
