16
Coordinates from ORCA-job run
  C   -0.33854953576469     -0.29958246254956     -0.10622482379818
  C   1.12856551588297      0.12047205201632     -0.07337769745539
  Br  -0.42881551582710     -2.17407252671639      0.53966062814510
  H   1.16794683130141      1.13442250747959     -0.49106483287403
  H   1.68897456893609     -0.53716190163814     -0.75467377081537
  C   -1.19468080244583      0.55037242066838      0.81450465076660
  H   -2.23391909124710      0.21632279629019      0.79718570600615
  H   -1.15639798869570      1.58930319242189      0.46800543050878
  H   -0.81612749596690      0.51915848225980      1.83421190339354
  C   -0.85905195865922     -0.29506513175518     -1.53393671239220
  H   -0.83256874398135      0.72926896914888     -1.92147468955765
  H   -1.88991961433234     -0.65132619545920     -1.57439755310629
  H   -0.24991426435016     -0.92895236176902     -2.18162517303625
  N   1.65938324549906      0.17472635891477      1.28225640078080
  H   2.56743855668672      0.62200944155743      1.27372394648208
  H   1.78663629296413     -0.76889564086978      1.62822658695231
