16
Coordinates from ORCA-job run
  C   -0.38175182925954     -0.25630595732647      0.06584433782119
  C   0.98360118365442      0.26519869979336      0.50520137272085
  Br  -0.38470991326522     -2.21924462860081      0.36007569604912
  H   1.10604347289566      0.04716529401734      1.57672533188799
  H   0.94676145302016      1.35636193815078      0.39524686031975
  C   -1.47839464947255      0.32670215812937      0.94135739854277
  H   -2.45245947223964     -0.08657699595681      0.67372308260279
  H   -1.51285926470280      1.41216051070022      0.79715286248190
  H   -1.29548938841756      0.12109227988188      1.99807485244150
  C   -0.63797172276451     -0.00796799238396     -1.40931611730162
  H   -0.64496710757346      1.07350429661818     -1.58624044148940
  H   -1.60532129777610     -0.41508799596183     -1.70993891857049
  H   0.15031461961435     -0.44618674468429     -2.01809131918510
  N   2.06413648326091     -0.23228363336223     -0.33599361606317
  H   2.22577464351005     -1.21041420672737     -0.12739400766813
  H   2.91729278951584      0.26988297771263     -0.12442737458994
