16
Coordinates from ORCA-job run
  C   -0.30639265009451     -0.29017593688198     -0.12953265497585
  C   1.20953116075841     -0.03587171553163     -0.08921238663436
  Br  -0.62466778503190     -2.11211754374583      0.57768086761578
  H   1.69788239075103     -0.78409041125335     -0.72072955473485
  H   1.37287075037719      0.93890981030851     -0.56702067816680
  C   -1.07850596670333      0.68173925556806      0.74550733109863
  H   -0.77369636885364      0.61180485870080      1.79034529623876
  H   -0.89587512445967      1.70378204582412      0.39412817127651
  H   -2.15108210513276      0.48623932218145      0.69412271134737
  C   -0.80340337079619     -0.26575213394002     -1.56562922317579
  H   -0.25924001215482     -0.98388438719394     -2.18251541643392
  H   -0.65105247947173      0.73589561092912     -1.98242763724203
  H   -1.86769358242240     -0.50238861607192     -1.61945250761145
  N   1.87785389198074     -0.02001667072831      1.19633674137259
  H   1.53157538544595      0.73094217877299      1.77828242527442
  H   1.72189586580765     -0.89501566693806      1.68111651475100
