16
Coordinates from ORCA-job run
  C   -0.36236953879564     -0.23410590060218      0.09366020119286
  C   1.03103192167338      0.14311074408455      0.62324723204817
  Br  -0.53397590267907     -2.20302536867255      0.21550919628796
  H   1.07244307680553      1.24009952121694      0.63218126748525
  H   1.10051633826752     -0.18507585101072      1.66468752015118
  C   -1.44015692820289      0.37257997805561      0.97700448402354
  H   -1.31121598145475      0.07078229488048      2.01847860279653
  H   -1.37835628840945      1.46498792931866      0.92172211420789
  H   -2.43626403210761      0.06756209885781      0.65090368872454
  C   -0.55072329899992      0.15240945626442     -1.36291159361558
  H   -1.54849793245485     -0.11816497626646     -1.71293173946302
  H   -0.43070573187387      1.23713815474715     -1.46465815472449
  H   0.17716583275124     -0.34162542981526     -2.00757705348846
  N   2.19856968321752     -0.34153989547652     -0.08492577724526
  H   2.23358762543229      0.02707153688725     -1.02588672279484
  H   2.17795115683057     -1.35220429246917     -0.14050326558627
