16
Coordinates from ORCA-job run
  C   -0.38330566036212     -0.46754588715789      0.02147750214158
  C   1.10230074161201     -0.55972922974107      0.41650828385374
  Br  -1.11980999511347     -2.28147918434944      0.29254649119249
  H   1.16556243919828     -0.90834116501769      1.45148589698871
  H   1.57990315316992     -1.32389766100463     -0.20369716880162
  C   -1.15950065012796      0.47868751181628      0.92355635852496
  H   -1.03748148081217      0.20816915331144      1.97483552827405
  H   -0.80275744866492      1.50339701103894      0.77958750947050
  H   -2.22457245661769      0.45935251006184      0.68562827253282
  C   -0.56623540118472     -0.11637305610555     -1.44644441598843
  H   -0.02047230728048     -0.81193961935822     -2.08799482279545
  H   -1.62070809813657     -0.14632670580658     -1.72671508407224
  H   -0.19880009037628      0.89761814727542     -1.63309008816372
  N   1.87505567826484      0.66637408305817      0.30212827575284
  H   1.51195420639870      1.39555053173715      0.90058251797816
  H   1.89986737003264      1.00648356024182     -0.64939505688838
