15

C	-0.561121	-0.000906	-1.406234
C	0.0	0.0	0.0
F	-0.129429	1.130763	-2.038732
H	1.094286	0.0	0.0
N	-0.036565	-1.153756	-2.273759
O	1.095653	-1.543485	-2.054399
O	-0.784821	-1.505905	-3.182167
C	-2.030865	-0.029809	-1.45495
N	-3.203719	0.032178	-1.449075
N	-0.447077	-1.196621	0.731686
O	-0.857277	-2.144831	0.051956
O	-0.330437	-1.198184	1.952517
C	-0.429466	1.195556	0.693
N	-0.779592	2.18568	1.221268
F	2.396564	0.0	0.0
