15

C	-0.41477	-0.103433	-1.451101
C	0.0	0.0	0.0
F	-1.716948	-0.464557	-1.615631
H	1.091574	0.0	0.0
N	-0.274439	1.313303	-2.051309
O	0.86788	1.680679	-2.28036
O	-1.313102	1.936887	-2.215747
C	0.436658	-0.980835	-2.260339
N	1.032232	-1.657531	-3.01322
N	-0.360919	-1.248638	0.708977
O	-0.326536	-2.287017	0.049899
O	-0.597126	-1.178148	1.912383
C	-0.558885	1.148824	0.669754
N	-0.960758	2.116329	1.203865
F	2.393354	0.0	0.0
