15

C	-0.40408	-0.010889	-1.451302
C	0.0	0.0	0.0
F	0.345735	-0.849939	-2.189775
H	1.096088	0.0	0.0
N	-1.88404	-0.45536	-1.646347
O	-2.674609	-0.011425	-0.825937
O	-2.130765	-1.157234	-2.612546
C	-0.338055	1.335878	-2.038938
N	-0.286499	2.39049	-2.554443
N	-0.398647	-1.248492	0.679977
O	-0.352216	-1.257276	1.905557
O	-0.681832	-2.213747	-0.031912
C	-0.468419	1.152338	0.731359
N	-0.819978	2.119098	1.300676
F	2.393782	0.0	0.0
