15

C	-0.470612	-0.009974	-1.437148
C	0.0	0.0	0.0
F	-0.043238	1.144989	-2.024872
H	1.094286	0.0	0.0
N	0.172562	-1.133326	-2.270373
O	-0.214952	-1.158925	-3.435743
O	1.019692	-1.839252	-1.753611
C	-1.926834	-0.104904	-1.620465
N	-3.095592	-0.106868	-1.74207
N	-0.487573	-1.180831	0.736173
O	-1.019054	-2.082927	0.081221
O	-0.299343	-1.200704	1.947661
C	-0.450227	1.205293	0.661957
N	-0.794899	2.202627	1.180958
F	2.401433	0.0	0.0
