15

C	-0.430277	-0.147583	-1.44177
C	0.0	0.0	0.0
F	-1.744161	-0.475077	-1.581823
H	1.091605	0.0	0.0
N	-0.255211	1.243066	-2.095619
O	0.895538	1.574706	-2.334897
O	-1.277925	1.882842	-2.291519
C	0.389699	-1.077875	-2.224275
N	0.9888	-1.829637	-2.899366
N	-0.364964	-1.216827	0.761148
O	-0.392772	-2.275732	0.135212
O	-0.543867	-1.100256	1.969488
C	-0.546215	1.177265	0.631318
N	-0.932302	2.157834	1.152892
F	2.394076	0.0	0.0
