15

C	-0.338777	0.025602	-1.476419
C	0.0	0.0	0.0
F	0.218666	-0.992923	-2.155377
H	1.093375	0.0	0.0
N	-1.866514	-0.101828	-1.675892
O	-2.51047	0.937003	-1.594193
O	-2.302144	-1.235406	-1.82826
C	0.06958	1.299633	-2.081236
N	0.413952	2.26179	-2.661199
N	-0.459539	-1.250392	0.657538
O	-0.067806	-2.3062	0.165138
O	-1.141755	-1.150304	1.678436
C	-0.518296	1.166693	0.676069
N	-0.859219	2.15909	1.208747
F	2.39919	0.0	0.0
