15

C	-0.487504	0.000286	-1.411154
C	0.0	0.0	0.0
Cl	0.186968	-1.397217	-2.229028
H	1.090782	0.0	0.0
H	-0.346672	-0.898854	0.507018
N	-2.022408	-0.060834	-1.557953
O	-2.47979	-0.38355	-2.644667
O	-2.665631	0.260625	-0.564232
N	-0.067545	1.257799	-2.202946
O	-0.963347	1.959684	-2.653284
O	1.132144	1.423809	-2.306666
N	-0.448247	1.15075	0.779597
O	-0.537261	2.238644	0.205869
O	-0.628107	0.978866	1.983961
F	2.466693	0.0	0.0
