15

C	-0.46617	-0.016571	-1.419556
C	0.0	0.0	0.0
Cl	0.497936	-1.001672	-2.472813
H	1.089125	0.0	0.0
H	-0.360415	0.877952	0.526
N	-1.968396	-0.369597	-1.555045
O	-2.682034	0.29958	-0.813273
O	-2.332552	-1.208005	-2.357893
N	-0.460558	1.418131	-1.988923
O	-0.024333	2.318216	-1.286525
O	-0.918929	1.532196	-3.12052
N	-0.470361	-1.174	0.730623
O	-0.442017	-1.10629	1.958614
O	-0.821298	-2.174177	0.093932
F	2.476785	0.0	0.0
