15

C	-0.424614	0.008831	-1.428975
C	0.0	0.0	0.0
Cl	-0.063546	-1.559142	-2.131788
H	1.088089	0.0	0.0
H	-0.31776	-0.926124	0.475289
N	-1.93397	0.244637	-1.634797
O	-2.650339	-0.479922	-0.959611
O	-2.295135	1.09059	-2.435677
N	0.290685	1.084736	-2.252545
O	0.739029	2.026367	-1.619052
O	0.324105	0.928078	-3.466326
N	-0.566185	1.091967	0.796086
O	-0.305359	1.078852	1.995153
O	-1.275884	1.938963	0.245803
F	2.474246	0.0	0.0
