15

C	-0.472658	0.006213	-1.417121
C	0.0	0.0	0.0
Cl	0.460499	-0.991124	-2.489481
H	1.087306	0.0	0.0
H	-0.355332	0.874881	0.534864
N	-1.981666	-0.306855	-1.543366
O	-2.671517	0.384464	-0.799422
O	-2.374856	-1.141572	-2.337241
N	-0.424398	1.44268	-1.972552
O	-0.947338	1.594404	-3.071962
O	0.117354	2.304827	-1.298043
N	-0.482563	-1.175308	0.719056
O	-0.816878	-2.175021	0.072435
O	-0.481399	-1.108826	1.947358
F	2.476189	0.0	0.0
