15

C	-0.475783	0.027644	-1.416691
C	0.0	0.0	0.0
Cl	0.500159	0.995651	-2.476298
H	1.088564	0.0	0.0
H	-0.361797	-0.878982	0.52312
N	-0.496286	-1.40355	-1.989651
O	-0.008904	-2.301836	-1.318814
O	-1.014504	-1.516214	-3.095285
N	-1.971011	0.410577	-1.539092
O	-2.325829	1.25504	-2.340663
O	-2.690484	-0.243254	-0.789473
N	-0.461691	1.172007	0.738901
O	-0.453765	1.090492	1.966494
O	-0.78532	2.184396	0.107965
F	2.476676	0.0	0.0
