15

C	-0.41429	-0.021535	-1.433011
C	0.0	0.0	0.0
Cl	-0.160004	1.575098	-2.1184
H	1.088081	0.0	0.0
H	-0.326742	0.923245	0.473089
N	0.380972	-1.04478	-2.257911
O	0.489782	-0.834758	-3.457981
O	0.801649	-2.008444	-1.63747
N	-1.899307	-0.364415	-1.663582
O	-2.180342	-1.21338	-2.496145
O	-2.679863	0.284764	-0.983584
N	-0.548363	-1.094947	0.804465
O	-1.188367	-1.995989	0.254093
O	-0.329623	-1.034755	2.012512
F	2.469874	0.0	0.0
