14
Coordinates from ORCA-job run
  C   0.68613285813426     -0.01546694228203     -0.65257405740568
  C   -0.35886003739032      0.24537623927507      0.18357141447411
  C   0.88211622449316      0.84553538893030     -1.77871269969891
  N   0.97507407547801      1.55855290548465     -2.71177400838118
  N   1.67742529341403     -1.01478232815864     -0.46737167791388
  H   1.59546244061380     -1.78434275751370     -1.11914330654061
  H   1.71087049728461     -1.35832602047438      0.48001303450702
  N   -1.08837837098075      1.42833091898173      0.12185263109950
  H   -0.94372320310116      1.97485059157676     -0.71678655395843
  H   -2.06764581052177      1.32025452855197      0.34027526485741
  C   -0.69338695849159     -0.63378842423333      1.35070190702144
  H   -0.24918140972890     -0.24712082662694      2.27305551138322
  H   -1.77618702853472     -0.66447388068274      1.50260156952023
  H   -0.35071857066868     -1.65659939282873      1.19529097103577
