14
Coordinates from ORCA-job run
  C   0.64635635437835     -0.17593753424559     -0.54533401626668
  C   -0.52528222050106      0.11369979817229      0.08578944745775
  C   0.65675139357399     -0.47149907749780     -1.93830656948472
  N   0.67178340517940     -0.71768393905140     -3.09199664759834
  N   1.86998091417964     -0.19596405915914      0.19650712676123
  H   2.06543386646503     -1.11643447550826      0.57692387239048
  H   2.64560127474791      0.08780089574153     -0.38388380390641
  N   -1.75892254361722     -0.02955382994008     -0.52049792076026
  H   -2.47896805223802      0.58897823871505     -0.17819746687210
  H   -1.74713095182054     -0.09650952287249     -1.52925115041580
  C   -0.51990369343682      0.44703633688974      1.54574685745040
  H   -1.44333005942366      0.94292878955847      1.85649135388310
  H   -0.41865334662061     -0.45558564592062      2.15852243065669
  H   0.33628365913360      1.07872402511830      1.76648648670465
