14
Coordinates from ORCA-job run
  C   0.75705284586980     -0.05205199064043     -0.42625771872352
  C   -0.37736174247208      0.27551226993012      0.24939082358370
  C   1.75667861712101      0.94102148992968     -0.63617832139500
  N   2.58237859931225      1.76627323628579     -0.80306521740592
  N   0.96372977422345     -1.37545576062501     -0.92298230719817
  H   1.49948050936094     -1.36637584832546     -1.77713517512738
  H   1.43202287711183     -1.97285888248640     -0.24776808885252
  N   -0.55077615265361      1.50143712826098      0.86663714961361
  H   -1.51127157579528      1.81123430869825      0.93432507953591
  H   0.07400451529897      2.24074201884009      0.57148517559807
  C   -1.45559981982030     -0.73343806953488      0.47986022864984
  H   -1.58771395856461     -1.38318033311432     -0.37792672042447
  H   -2.40811914029063     -0.27677107249005      0.76058536366881
  H   -1.17550534870174     -1.37708849472837      1.32902972847703
