14
Coordinates from ORCA-job run
  C   0.78467693810943     -0.21459454393739     -0.47484831008885
  C   -0.32141851687853      0.13951655642257      0.23596237866731
  C   0.96360087775282     -1.56666425847652     -0.90325314172515
  N   1.11746045238135     -2.66882921246673     -1.28773412151235
  N   1.84896562212061      0.67572569752451     -0.77273373160484
  H   1.95455841466802      1.40064887621096     -0.07825371102082
  H   1.84043771126364      1.05399165458469     -1.70977774305654
  N   -0.49661451980622      1.45519669151418      0.65656528418246
  H   -0.11875637242341      2.14406545275087      0.02166381736306
  H   -1.44181878924210      1.67573843721645      0.93035709866694
  C   -1.33315706121073     -0.83973645476867      0.74282257948217
  H   -2.33319448185610     -0.57497862989807      0.38396497965954
  H   -1.10828828513112     -1.85469844238842      0.41838047067634
  H   -1.35645198974766     -0.82338182428841      1.83688415031072
