14
Coordinates from ORCA-job run
  C   0.72788807815486     -0.16578208174559     -0.44523706501478
  C   -0.43129679787173      0.27051909834950      0.12648075234968
  C   1.20296367607823      0.49720644453053     -1.62101430962519
  N   1.57628673851513      1.04436166104483     -2.59649882337253
  N   1.46930007852718     -1.25915800287094      0.10637508097344
  H   2.38896654720221     -0.95591575638984      0.40344169531497
  H   1.59465888412971     -1.99064147123235     -0.58275151247809
  N   -1.09776308149586      1.39302105072269     -0.31513686823888
  H   -0.84566043566246      1.73818781412298     -1.23017540495284
  H   -2.08903066926041      1.40650566935681     -0.13711865033759
  C   -1.00952937167416     -0.37822868749419      1.34408446361466
  H   -0.39205105080774     -1.21925391622797      1.64757378307205
  H   -2.02589410640777     -0.73106448520308      1.13876401613818
  H   -1.06983848942718      0.34824266303661      2.15921284255691
