14
Coordinates from ORCA-job run
  C   0.76934590681275     -0.02204074849872     -0.55698423019507
  C   -0.41502601154313      0.20487484346370      0.08077499212745
  C   1.12837040029286      0.84598073772657     -1.63538482275639
  N   1.36000349572519      1.58342368888742     -2.52422456368278
  N   1.74273467434690     -0.99924798585251     -0.21218844027543
  H   1.75822086345195     -1.78572313450892     -0.84882530109989
  H   1.64508089448547     -1.32337094976227      0.73728021209513
  N   -1.29389288073334      1.21176973799470     -0.30225569954989
  H   -1.79523357330938      1.63920943781444      0.46193917208369
  H   -0.90738479442601      1.90029289497385     -0.93339760761879
  C   -0.89732192076186     -0.64931734146786      1.21405240496237
  H   -0.46665533890924     -1.64980007133453      1.17427949893290
  H   -0.64524044903552     -0.20775812781233      2.18446348611757
  H   -1.98400126639664     -0.74829298162353      1.16147089885910
