14
Coordinates from ORCA-job run
  C   0.62366351158823     -0.27613373213527     -0.51241953603172
  C   -0.32367871485394      0.26733400059960      0.30274693855708
  C   0.65860848925221     -1.67596086125395     -0.78450354750925
  N   0.72407435203102     -2.82241959138473     -1.05021250767208
  N   1.61041712242294      0.59392572686896     -1.08932668473246
  H   1.69156631642862      0.42749112175975     -2.08531512648967
  H   2.52203068883039      0.43096830938554     -0.67623084747157
  N   -0.26655082076075      1.60056236536278      0.62672579143227
  H   0.34304016055911      2.12706835384534      0.01462625976875
  H   -1.14600193344216      2.04070375769935      0.84525989238167
  C   -1.39813380417936     -0.53232036952624      0.96942706313118
  H   -2.38413069960201     -0.14034391107838      0.69990436686768
  H   -1.35623340371961     -1.58193240841404      0.68171582620471
  H   -1.29767126455469     -0.45994276172869      2.05560211156342
