14
Coordinates from ORCA-job run
  C   0.70473235204594     -0.15607836967180     -0.48564174292662
  C   -0.46425412020772      0.21451356676884      0.11183456446368
  C   1.10635433887590      0.51920336449310     -1.68164507284378
  N   1.43372473221443      1.10097142242813     -2.65357513849701
  N   1.52507311879676     -1.19649409101667      0.05757059481062
  H   1.60607337015955     -1.96670472675029     -0.59508159708875
  H   2.45927470819376     -0.85234733840068      0.24360068610306
  N   -1.32464420054188      1.12951606336617     -0.45340184970630
  H   -1.91450703029333      1.63071142896585      0.19112768784495
  H   -0.95550760697264      1.70180071945794     -1.19891465185767
  C   -0.94682208895962     -0.41924635563268      1.37787073572017
  H   -1.92261738969177     -0.88372017998820      1.21273610205539
  H   -1.07139939119660      0.34209508203526      2.15596167558496
  H   -0.23448079242277     -1.16522058605497      1.71955800633730
