14
Coordinates from ORCA-job run
  C   0.77032232121993     -0.16552968778384     -0.36750035882508
  C   -0.47515306075512      0.22037735369272      0.03430521251341
  C   1.37121714611443      0.50748541899656     -1.47823366413460
  N   1.85415727517462      1.08112962571573     -2.38848519592211
  N   1.47696810169881     -1.21885518694860      0.29898311369438
  H   1.69382144404609     -1.96599197405004     -0.35024219032504
  H   2.35352747782564     -0.87389926744350      0.67202238979534
  N   -1.21935837955009      1.15151368395927     -0.65666737097563
  H   -1.89398058288071      1.65893022581680     -0.10775530965620
  H   -0.71882802500322      1.72796571657126     -1.31837046146222
  C   -1.16911817188553     -0.41708666619081      1.19614291898945
  H   -1.26600759483006      0.29795910114223      2.02108065163616
  H   -0.60469104033656     -1.27878485071612      1.54477652933286
  H   -2.17487691083825     -0.72521349276166      0.89894373533928
