14
Coordinates from ORCA-job run
  C   0.71349369179080     -0.03097839685094     -0.63003384759241
  C   -0.40604017152623      0.20972214229549      0.11157451870228
  C   0.94751176273060      0.79069164428534     -1.77728298159650
  N   1.07231177315473      1.48996000804499     -2.71707686898276
  N   1.72062864777145     -0.99318997211984     -0.34535738079074
  H   1.64201985314188     -1.82770014511147     -0.91257482551872
  H   1.75360945405811     -1.23951593678572      0.63199828570382
  N   -1.33165550368881      1.19076660058230     -0.22053225171693
  H   -1.01405470747313      1.86534723993304     -0.90323432721068
  H   -1.77519053796674      1.63568522283984      0.56856726463282
  C   -0.75760542116866     -0.61269548120661      1.31502035237662
  H   -0.36131646342311     -0.17057837326096      2.23639996300017
  H   -0.36256652543032     -1.62564400952764      1.23009492843555
  H   -1.84314585197056     -0.68087054311782      1.41243717055747
