14
Coordinates from ORCA-job run
  C   0.76981157129217     -0.06893047265591     -0.39891547549775
  C   -0.37693263732421      0.24114616530899      0.27199885883713
  C   1.70467379489702      0.97981492582471     -0.67113865819178
  N   2.45722470577745      1.85923267167720     -0.89545905611036
  N   1.05152767854143     -1.40708023976870     -0.82266874885857
  H   1.20863218680999     -1.43891332077210     -1.82275626527915
  H   1.88661586391577     -1.75851403199652     -0.36910031881994
  N   -0.61307578109444      1.49456905939060      0.79391198150569
  H   -0.02913641168642      2.24405440273133      0.45128413054317
  H   -1.58313564357003      1.74867973703273      0.88820380724243
  C   -1.41884769404826     -0.78644635628821      0.58224001387809
  H   -2.38156197753095     -0.49127023049183      0.15141668576173
  H   -1.55067398332553     -0.86533014509507      1.66499448021081
  H   -1.12512167265399     -1.75101216489720      0.17698856477850
