14
Coordinates from ORCA-job run
  C   0.80768754578277     -0.05329177280225     -0.50040447105175
  C   -0.41233246244787      0.22594617382739      0.04145325065633
  C   1.28218219203242      0.77992672739454     -1.56090390889745
  N   1.60723014123490      1.49040265996482     -2.44252582418760
  N   1.70673951177882     -1.06513853373040     -0.06533809444440
  H   1.70674498850423     -1.88168757948111     -0.66331165883845
  H   1.55060922816109     -1.33577886911322      0.89333732379448
  N   -1.22713910850821      1.25240349315826     -0.41961089404091
  H   -0.77034575348465      1.92122362518484     -1.02497708370627
  H   -1.77512652890031      1.70272083835460      0.29810543002268
  C   -0.99964237110776     -0.59961230932653      1.14766295688712
  H   -0.66038156254262     -1.63453579345068      1.09142221531649
  H   -0.72679912165457     -0.20606340557102      2.13322008680796
  H   -2.08942669884822     -0.59651525440923      1.07187067168177
