14
Coordinates from ORCA-job run
  C   0.69868343037665     -0.27299101974765     -0.40626567433329
  C   -0.42676819947615      0.24355226648008      0.16274946287913
  C   1.45483624854506     -1.29852659669249      0.23518865358500
  N   2.10700650422257     -2.15388241732460      0.71717883195388
  N   1.12461527770563      0.24827567525821     -1.67524293714715
  H   1.31967269520815     -0.50692165558870     -2.32166519123962
  H   1.97443646545997      0.79241236525284     -1.57507632378653
  N   -1.07308361728290      1.29928893955722     -0.43156124117165
  H   -0.79301785226806      1.43998983525551     -1.39338829193891
  H   -2.06207641860250      1.36949235771958     -0.25310989783817
  C   -0.96907994821740     -0.20857012330877      1.48171097043268
  H   -0.37844822430618     -1.02085611359348      1.90327602336299
  H   -0.97595164702867      0.62620877395704      2.18765636328919
  H   -2.00082471433617     -0.55647228722481      1.36754925195244
