14
Coordinates from ORCA-job run
  C   0.51838715273883     -0.28218496412051     -0.61553730692360
  C   -0.25078539296930      0.26650309915647      0.36670943087065
  C   0.17891151060691     -1.52906402367241     -1.21954449651100
  N   -0.05050863517471     -2.56056158581702     -1.74174479571028
  N   1.68985525129495      0.43018605489759     -1.04444769498994
  H   1.56495126129736      0.79978214018154     -1.98048854823209
  H   2.49293415754019     -0.18699776569968     -1.06476855400678
  N   0.04836657446742      1.51425100190060      0.85584919829756
  H   -0.23441872372475      1.69517470258997      1.80567254956331
  H   0.98403120579058      1.81488153760483      0.61589187543699
  C   -1.49452603851046     -0.37369849374869      0.89739604619436
  H   -2.35563358475981      0.27551588883108      0.71699629565363
  H   -1.67950730333877     -1.34076914261073      0.43153771880458
  H   -1.41105743525846     -0.52401844949304      1.97847828155261
