14
Coordinates from ORCA-job run
  C   0.90381267025126      0.03048548413922     -0.30724146161992
  C   -0.36139725632055      0.25768474460119      0.15006110773461
  C   1.80220256411704      1.14192749222427     -0.36888829504898
  N   2.48547709166168      2.10079160933894     -0.40765676717512
  N   1.45782181677755     -1.22907755732765     -0.66661783671433
  H   1.00831721166184     -1.99816876924041     -0.19390665647618
  H   1.46627717232320     -1.39160410761580     -1.66546043138823
  N   -0.81662540792893      1.51758198990179      0.51254824382384
  H   -0.09573373124343      2.21462678512425      0.64055505779911
  H   -1.48994860141876      1.52080746250857      1.26345554829849
  C   -1.38616550331510     -0.83304049842086      0.24381400295381
  H   -1.17613397048121     -1.63378461910091     -0.46397984693384
  H   -2.37592017303217     -0.42989235476804      0.01614228428943
  H   -1.42198388305244     -1.26833766136457      1.24817505045731
