14
Coordinates from ORCA-job run
  C   0.82955865461820     -0.14027791039109     -0.45774574687510
  C   -0.39903530314666      0.23788067749700     -0.00007515153010
  C   1.40035403065201      0.60787200983930     -1.53744409929209
  N   1.83549547962656      1.27624401302607     -2.40451881333948
  N   1.58128272464887     -1.26727377915821     -0.02161167634135
  H   2.25802128946217     -1.04688403423514      0.69683738795479
  H   0.99574666154153     -2.03432740377223      0.26883072155229
  N   -1.18834534043672      1.16638141061575     -0.66015373170414
  H   -1.77782027759628      1.72025576617508     -0.05852153986179
  H   -0.71905217193973      1.71881821316497     -1.36463078113052
  C   -1.06739466827125     -0.43703699368079      1.15936368141440
  H   -1.84909383780051     -1.11776165478964      0.81035522399933
  H   -1.54586040541609      0.30712834236763      1.80418454642068
  H   -0.35385683594209     -0.99301865665869      1.76512997873308
