14
Coordinates from ORCA-job run
  C   0.72367970705689     -0.22989692819832     -0.38891642975975
  C   -0.45273813621536      0.20519345035514      0.14400814200829
  C   1.60897323948646     -1.07252069124612      0.34664932716402
  N   2.36871094305367     -1.77852209176206      0.90672138695081
  N   1.06904090818912      0.19002051567688     -1.71848558742999
  H   1.84100093632071      0.84739812969202     -1.70045541079046
  H   1.35682019465420     -0.60410119289800     -2.27781734781825
  N   -1.23238845400052      1.09626379668571     -0.55145744213020
  H   -2.22061680819207      1.06489429731241     -0.35830825156716
  H   -0.98183912448092      1.15770663798284     -1.52957886953981
  C   -0.92158193399844     -0.15447852609049      1.51842850713678
  H   -1.90274170351490     -0.63774532124632      1.46910365537726
  H   -1.02646516742128      0.74916797690300      2.12477092773542
  H   -0.22985460093755     -0.83338005316669      2.01533739266304
