14
Coordinates from ORCA-job run
  C   0.80828080482194     -0.27310784335128     -0.40244016499692
  C   -0.35143273457465      0.17402352521026      0.15344386381384
  C   1.56516045406696     -1.30185579438463      0.24004664962994
  N   2.17459271872390     -2.17345635474296      0.74528676558825
  N   1.38169389309292      0.27524407646076     -1.57970513410709
  H   1.15248101781149      1.25058090876192     -1.70356835635651
  H   1.21561240182544     -0.25676863932142     -2.42294984287113
  N   -1.08912056896496      1.17776283429718     -0.46875991283366
  H   -2.04042988589280      1.24820996411936     -0.14164744920511
  H   -1.03942486972278      1.15942989077026     -1.47755732035727
  C   -0.84306171850625     -0.24438973212641      1.50348719180462
  H   -0.89211980673541      0.62190241215489      2.17059393593190
  H   -0.19163444261837     -0.99100423513957      1.95557004642835
  H   -1.85159726332745     -0.66457101270836      1.42819972753078
