14
Coordinates from ORCA-job run
  C   0.72830481675471     -0.12894191952780     -0.59821720262072
  C   -0.40007115373394      0.23074320676537      0.07831407195223
  C   1.09794002056902      0.64091107246441     -1.74723678303503
  N   1.37327903680271      1.33025468253777     -2.66193512829147
  N   1.54129970887178     -1.26380806088228     -0.33291058620304
  H   1.04641077407506     -1.98777027841664      0.16408502821734
  H   2.40597796841983     -1.03717408829126      0.14058553818237
  N   -1.30882011277291      1.15362683315140     -0.42432373449584
  H   -0.97560227918081      1.70482133505707     -1.20369640842686
  H   -1.76093631340008      1.71793228581475      0.27910505457537
  C   -0.84318069510164     -0.46228782413814      1.33115353166699
  H   -1.61914404822993     -1.20263195690455      1.11383445688909
  H   -0.01155794440997     -0.95713845135672      1.83141361927524
  H   -1.27289977866382      0.26146316372662      2.02982854231434
