14
Coordinates from ORCA-job run
  C   0.55422309290926     -0.31527219178774     -0.56659352276860
  C   -0.28001477797457      0.28911876172741      0.32564301782374
  C   0.52707469712107     -1.72623581770201     -0.77505815152146
  N   0.53655413158715     -2.88438052188001     -0.99385947021605
  N   1.48482692364342      0.50142298658242     -1.29482642055572
  H   1.44479170236149      0.28881460489738     -2.28448164316200
  H   2.43491204186916      0.33104730253181     -0.98379521123958
  N   -0.15771616176002      1.63358461734713      0.57658153498400
  H   0.38816156075437      2.11637022957605     -0.12491502645893
  H   -0.99588656593698      2.10611697722938      0.87483947415254
  C   -1.28668245904005     -0.45065302353444      1.14865298535409
  H   -2.29020004236193     -0.05200619136919      0.96751231063530
  H   -1.29412626013391     -1.51457756315909      0.91547950219391
  H   -1.06591788303845     -0.32335017045911      2.21182062077875
