14
Coordinates from ORCA-job run
  C   0.70268673714966      0.00028229754288     -0.51107120439809
  C   -0.38951769838612      0.21592195585916      0.27736151654853
  C   1.50344811447825      1.12411200250151     -0.89084157117552
  N   2.16056608901070      2.05750896760883     -1.18587103909663
  N   1.05430158160517     -1.31180434038700     -0.96236174011206
  H   1.99603431049884     -1.54842684809265     -0.67421445068097
  H   1.01959078099672     -1.36501355380135     -1.97344404576413
  N   -0.81352647755349      1.48047285362416      0.62410763855329
  H   -0.15142593766493      2.23126698997927      0.48995026276014
  H   -1.32558083312481      1.54413816779099      1.48909622394026
  C   -1.26935105459293     -0.90247829696279      0.73875226160984
  H   -1.31380496810062     -0.92277216596861      1.83289794884070
  H   -2.28715175796985     -0.75128967954045      0.36861314625010
  H   -0.88526888634660     -1.85291835015395      0.37802505272454
