14
Coordinates from ORCA-job run
  C   0.67368506310905     -0.28078136551267     -0.44254051825499
  C   -0.41977055463801      0.24119944803317      0.18115629724054
  C   1.48139836972116     -1.27864233161054      0.17911136988916
  N   2.17433784794148     -2.11139914616789      0.64358764424153
  N   1.01409898575388      0.20874541251004     -1.74945886002913
  H   1.85698575612775      0.77126305859767     -1.71788752453867
  H   1.18303242152470     -0.56203591705752     -2.38461697196709
  N   -1.11342723770582      1.27339095865505     -0.40058600488298
  H   -0.89734804106331      1.39016253094519     -1.38184350281087
  H   -2.08877338986992      1.34326988168673     -0.15818003234979
  C   -0.87106962058771     -0.17427283483086      1.54563056135070
  H   -0.81935841146808      0.67658707033988      2.23015114464054
  H   -0.26139167583342     -0.98498791509455      1.94302191791416
  H   -1.91239951301174     -0.51149885049370      1.51245447955689
