14
Coordinates from ORCA-job run
  C   0.67710125721537     -0.31709653368400     -0.41107684186705
  C   -0.41709179526443      0.26132305800600      0.15939561879773
  C   1.43562966768072     -1.31251130843092      0.27323708577911
  N   2.08804484810664     -2.14641370039479      0.79136126705331
  N   1.07068004600001      0.11141943784511     -1.72433197631077
  H   1.93065452114556      0.64730993162568     -1.68718338110882
  H   1.23470403908468     -0.68783343315989     -2.32455765505283
  N   -1.06092519874616      1.29117964464824     -0.48163231351074
  H   -2.04201401464889      1.39418011616512     -0.27745047266674
  H   -0.81051565651991      1.36212154803171     -1.45921841236572
  C   -0.92185705017687     -0.08928295702250      1.52338135269907
  H   -0.34122240871100     -0.89376234170898      1.97296218975332
  H   -1.96788583286509     -0.40801214167835      1.47009424054363
  H   -0.87430242230063      0.78737867975757      2.17501929825653
