14
Coordinates from ORCA-job run
  C   0.64369111026656     -0.29094092235914     -0.47811148794935
  C   -0.39609620808497      0.25837388794290      0.21045400194824
  C   1.39138668048396     -1.38575099886595      0.04867978778584
  N   2.03218248029591     -2.29729160421044      0.43299875737823
  N   0.98912686512175      0.26702662582310     -1.75588512819793
  H   1.87470314545290      0.75869851274963     -1.70745711459873
  H   1.08399936185997     -0.46550268850321     -2.44913989513747
  N   -1.02771681104961      1.37597886299567     -0.27744660007915
  H   -0.82403459796651      1.54729950632639     -1.25340751338431
  H   -1.99247174934517      1.48979679935557     -0.01043528387261
  C   -0.84861444587217     -0.22691644664424      1.55137887817454
  H   -1.90516389390293     -0.51151790314120      1.51354633006666
  H   -0.27336441072349     -1.09050372353167      1.88252667626900
  H   -0.74562752653619      0.57125009206261      2.29129859159703
