14
Coordinates from ORCA-job run
  C   0.74058282921459     -0.03518660049890     -0.45369154326093
  C   -0.36303395297859      0.22284846476570      0.30575005666717
  C   1.61898318172446      1.04904958413634     -0.77154629581814
  N   2.32537536875066      1.95546266373023     -1.03524719764806
  N   1.03257696262377     -1.35502007310641     -0.92632524613903
  H   1.91480821618150     -1.68240176313803     -0.55096415819062
  H   1.10867938299448     -1.36165122011527     -1.93654248496089
  N   -0.60103688846730      1.45794565224518      0.86931881999093
  H   -1.56966819587565      1.67672696955282      1.03817845177693
  H   -0.06893456309233      2.23301123819257      0.50018476392932
  C   -1.34515285320998     -0.84547908562606      0.66904538318241
  H   -1.05124498905644     -1.79048921676882      0.22024875503721
  H   -1.39394037746390     -0.95262523424172      1.75603091542697
  H   -2.34599412134526     -0.57419137912762      0.31655978000674
