14
Coordinates from ORCA-job run
  C   0.65992817026062     -0.29491315823636     -0.45327151968995
  C   -0.39586332532489      0.26566879596752      0.20132417571593
  C   1.30786970715415     -1.46526856145217      0.04193606522670
  N   1.86927912536665     -2.43721299898821      0.40175437903046
  N   1.12441557603361      0.32818068750281     -1.66117423948540
  H   1.22832288541922     -0.35907433017345     -2.39820778181883
  H   2.02931049076253      0.76317697451248     -1.51879246400447
  N   -0.93049272422767      1.44836052370822     -0.24656719563723
  H   -1.90299236935200      1.60324482618572     -0.03477642489232
  H   -0.64832069726739      1.67477593962339     -1.19117436877848
  C   -0.96838813970068     -0.28276802078918      1.47007450278297
  H   -0.87883791050691      0.45760356696845      2.26959275482287
  H   -0.46270825702866     -1.19690170414165      1.77829111081565
  H   -2.03252253158855     -0.50487254068756      1.33999100591208
