14
Coordinates from ORCA-job run
  C   0.80337898649855     -0.03134517678438     -0.32959840385578
  C   -0.42586644095879      0.23286409821858      0.19987151642225
  C   1.76185334772939      1.02909020629530     -0.39696529616675
  N   2.54643352917035      1.90822241123978     -0.43719327851837
  N   1.14357654994655     -1.33299007641204     -0.81974440833873
  H   1.96468828674852     -1.68986841002183     -0.34588231280248
  H   1.35149280865094     -1.29882496346146     -1.81061675855625
  N   -0.81712230986652      1.50249044834702      0.56536527344006
  H   -0.08470645723334      2.19077618830227      0.66501678115182
  H   -1.51789141647660      1.54964011230071      1.28723360811583
  C   -1.47912621386561     -0.82181697059838      0.32759047075506
  H   -1.78811123750339     -0.92274020635470      1.37351473875709
  H   -2.36135254264123     -0.53801928232087     -0.25284149770084
  H   -1.09824689019882     -1.77547837875001     -0.02775043270290
