14
Coordinates from ORCA-job run
  C   0.77758251481105     -0.33445828155076     -0.41518824538028
  C   -0.36989304130491      0.15426153308019      0.13127565860167
  C   1.61484492319888     -1.21566495732909      0.33732689503381
  N   2.32702721469536     -1.91226388378464      0.96481751708739
  N   1.18505352730876     -0.08141469989028     -1.75051201160414
  H   0.40617811648179      0.07806459689091     -2.37227866235787
  H   1.89819674539202      0.62693142420811     -1.85367021434292
  N   -1.18811669695439      1.01137188078539     -0.59990366651926
  H   -1.85150914377634      1.52292771033885     -0.03844901073602
  H   -0.68749630776751      1.61709189734050     -1.23459820696136
  C   -0.91533332473426     -0.28594635577401      1.45342121633730
  H   -1.05721864745610      0.57637475520752      2.11321236585713
  H   -0.25042160086352     -0.99231414300449      1.94825901486374
  H   -1.88989427903084     -0.76496147651822      1.31728735012079
