14
Coordinates from ORCA-job run
  C   0.78848987472012     -0.10053834895574     -0.50615254928410
  C   -0.34685109389150      0.10137196209822      0.21811657152732
  C   1.00498784071064     -1.34678740159975     -1.17255096904502
  N   1.20597046726360     -2.38352249215661     -1.69311051116957
  N   1.77621857913956      0.89551357616847     -0.71754029096562
  H   2.60021456610987      0.81278107069859     -0.13866700699061
  H   1.39716082236647      1.83068886307758     -0.69961660334789
  N   -0.56091530963284      1.31564747894973      0.86552414975490
  H   0.28381613807069      1.75691524953059      1.20061449048783
  H   -1.27263646568037      1.27921076005645      1.57919244692989
  C   -1.49269868319424     -0.86011007339666      0.25495292363936
  H   -1.27458162902872     -1.76777493015726     -0.30589774839173
  H   -2.38623283366929     -0.39523333758192     -0.17294307747114
  H   -1.72394227328402     -1.13916237673169      1.28807817432639
