14
Coordinates from ORCA-job run
  C   0.71717988674124     -0.24836957632673     -0.38897903258642
  C   -0.45453762494415      0.20622382624749      0.13775882710290
  C   1.51228145993489     -1.21939932218327      0.28923552716327
  N   2.21113911193136     -2.01038785082986      0.81383312881657
  N   1.13877451503277      0.26392693752490     -1.66307223717751
  H   1.06856423192051     -0.44973538744559     -2.38005851018681
  H   2.10623197813232      0.56179181013246     -1.62276420367749
  N   -1.24637410899661      1.06215219102077     -0.58772170957277
  H   -0.75616635327746      1.48696336399003     -1.36403357269722
  H   -1.83069930177940      1.68387164106535     -0.05208018744798
  C   -1.00378239438796     -0.25199367649523      1.45184586760408
  H   -1.15178569966103      0.60377442855955      2.11853366429675
  H   -0.33595453327629     -0.95794713427882      1.94371193887166
  H   -1.97587116737020     -0.72987125098106      1.30379049949096
