14
Coordinates from ORCA-job run
  C   0.64894207420837     -0.05200482514995     -0.55018227033931
  C   -0.31619968848676      0.08061085818608      0.40267694473138
  C   0.42162508690100     -0.80114258396378     -1.74287100575386
  N   0.28049996853549     -1.39757163704241     -2.74966138822354
  N   1.92149294493816      0.57613588549787     -0.32747439229162
  H   2.20117721448181      1.10810864509240     -1.14297643525220
  H   2.64056339789890     -0.11737472801206     -0.15337679813091
  N   -0.03156649046045      0.72376552906967      1.58247729488330
  H   0.81549463357617      1.27475258640232      1.53375995054108
  H   -0.81036282138479      1.16914961461497      2.04099038195337
  C   -1.67807141912361     -0.52791318191758      0.29047706109250
  H   -1.81058070092792     -1.04765581630714     -0.65743235254072
  H   -2.44675572826716      0.24782458731240      0.36823092833205
  H   -1.83825847188922     -1.23668493378279      1.10736208099851
