14
Coordinates from ORCA-job run
  C   0.76410304702542      0.01896368610405     -0.44104660092908
  C   -0.34033774744967      0.24854352109665      0.32205802577413
  C   1.63380096258617      1.09548112965697     -0.77188217830953
  N   2.37564203645739      1.98702423118249     -0.97974745247702
  N   1.06466912682926     -1.29255422688756     -0.92363734552448
  H   1.94665288563081     -1.31070986432871     -1.41137990595698
  H   0.34692101633599     -1.64829280381669     -1.53680491917951
  N   -0.77130742886268      1.51439584498601      0.68895815743225
  H   -1.20727589778939      1.56368185705743      1.59626703827167
  H   -0.12978095449426      2.27236355054409      0.50141795948348
  C   -1.24416322406043     -0.88628691593293      0.67496464788075
  H   -0.66818647413645     -1.80467533696417      0.83994567998952
  H   -1.82095050227252     -0.67394920507052      1.57559478933785
  H   -1.94878684579965     -1.08398546762712     -0.13470789579306
