14
Coordinates from ORCA-job run
  C   0.64672305949562     -0.26265988870576     -0.51553097870511
  C   -0.47277108282033      0.19993984436394      0.11501533047672
  C   0.70814447301544     -0.17337329330095     -1.94479356319807
  N   0.73678895939473     -0.05958737654455     -3.11810040399374
  N   1.72045603223083     -0.86767442457120      0.21474351608309
  H   1.86579081883264     -1.82154488341524     -0.09556683901218
  H   2.58471272531545     -0.36456348099772      0.05596907504981
  N   -1.56754925001120      0.66407352928264     -0.57469398587914
  H   -1.43131199502161      0.86778249588873     -1.55317742038640
  H   -2.15893654999526      1.32630679327248     -0.10087518770718
  C   -0.62656004429758      0.12861466202884      1.60277316681514
  H   0.18742480371393     -0.45098810568212      2.02927795678450
  H   -1.58955973943355     -0.32445965933641      1.85178656179275
  H   -0.60235221041911      1.13613378771732      2.03417277187982
