14
Coordinates from ORCA-job run
  C   0.67297472767896      0.01661024500509     -0.52431350092957
  C   -0.34326975687925      0.05923758991720      0.38263987788795
  C   0.51486921177991     -0.62092444397297     -1.79086722376991
  N   0.43814169807092     -1.14751953979773     -2.84258862931422
  N   1.91952866933202      0.64563631648601     -0.18574156815263
  H   2.06355996976270      1.48224178476709     -0.74062085137585
  H   2.69248221617685      0.01823983953652     -0.37448458914897
  N   -0.19456207076107      0.77540488532867      1.54595706896354
  H   -0.73366758533931      0.44940452123926      2.33244574563859
  H   0.77101438106677      0.99851681590595      1.74876127615739
  C   -1.68800521248148     -0.55354506098513      0.14903647252792
  H   -2.46153327350468      0.21795872067953      0.19192766177535
  H   -1.74106866253075     -1.05140801093669     -0.81799029952379
  H   -1.91046431237160     -1.29085366317280      0.92683855926418
