14
Coordinates from ORCA-job run
  C   0.78865339573569     -0.31994026333949     -0.40922822169682
  C   -0.34170409658665      0.19122273179546      0.15217781121086
  C   1.54462149790001     -1.31969175404318      0.27820736873334
  N   2.15122139233742     -2.16858728608686      0.82368696744384
  N   1.33298975536650      0.13353832246501     -1.63964000954156
  H   1.12721683346020      1.10536511937871     -1.81969672519507
  H   1.11868511174598     -0.44632504247071     -2.43934787738144
  N   -1.07766940800258      1.16896805456153     -0.51118013163858
  H   -1.05883140773547      1.08909615018042     -1.51786368017417
  H   -2.01624197635313      1.28465340714008     -0.16087793058640
  C   -0.79727192888122     -0.12465049720170      1.54221289591223
  H   -1.81607792026267     -0.52557135325947      1.52735144999460
  H   -0.80609203282297      0.78520898234143      2.15016781328972
  H   -0.14749921590110     -0.85428657146123      2.02303026962944
