14
Coordinates from ORCA-job run
  C   0.70918501720228     -0.05342339048291     -0.61861318478077
  C   -0.27451053074192      0.01850848830880      0.32002318023253
  C   0.42484353307603     -0.56962458695695     -1.92102342126212
  N   0.18900771569171     -0.95803962173219     -3.00712983925814
  N   2.06162134136768      0.29245686897814     -0.36941900335658
  H   2.32123705560583      0.17669338238049      0.59892153626655
  H   2.34814123850478      1.19143311618471     -0.73067304459258
  N   0.00036067187665      0.52567788485533      1.58834012562512
  H   -0.82317514833302      0.77746963445444      2.11309270135224
  H   0.68675230017114      1.26713139203139      1.59274775274938
  C   -1.64370469631976     -0.55676634988423      0.13591631113245
  H   -2.40533815271707      0.21684716008517      0.27912385629614
  H   -1.82313008502894     -1.34296200809363      0.87574233761045
  H   -1.77029026035539     -0.98540197012857     -0.85704930801468
