18

C	-0.520398	-0.013143	-1.428273
C	0.0	0.0	0.0
Cl	-2.259848	-0.093462	-1.570228
H	1.090926	0.0	0.0
N	-0.010355	1.28008	-2.11329
O	1.192965	1.280125	-2.332534
O	-0.812619	2.173936	-2.340696
N	0.112928	-1.107713	-2.307476
O	1.032703	-1.744862	-1.828014
O	-0.341187	-1.18312	-3.443627
N	-0.408764	-1.257726	0.711644
O	-0.894774	-2.182117	0.062461
O	-0.198418	-1.28165	1.919779
C	-0.481501	1.205709	0.785646
H	-0.037004	1.156575	1.777848
H	-1.570153	1.232216	0.870906
H	-0.132839	2.122782	0.31029
Cl	3.224259	0.0	0.0
