18

C	-0.382293	0.052054	-1.471205
C	0.0	0.0	0.0
Cl	0.257669	1.497148	-2.200432
H	1.093242	0.0	0.0
N	0.182792	-1.190672	-2.193121
O	0.88301	-1.039167	-3.17543
O	-0.174764	-2.248168	-1.691747
N	-1.883378	0.030869	-1.794038
O	-2.248524	-0.697672	-2.709464
O	-2.573728	0.816305	-1.164219
N	-0.508968	-1.258132	0.640373
O	0.310955	-2.003032	1.15871
O	-1.729852	-1.422098	0.643864
C	-0.448022	1.162282	0.874183
H	-1.526778	1.182617	1.011662
H	-0.108142	2.104793	0.446729
H	0.053796	1.04296	1.837516
Cl	3.240389	0.0	0.0
