18

C	-0.397199	0.009263	-1.466976
C	0.0	0.0	0.0
Cl	0.175672	1.476549	-2.220429
H	1.091593	0.0	0.0
N	0.210415	-1.191292	-2.216793
O	0.327145	-1.08522	-3.427009
O	0.473596	-2.167182	-1.530159
N	-1.910608	-0.086311	-1.731724
O	-2.57165	0.840632	-1.287415
O	-2.323442	-1.052705	-2.354433
N	-0.507639	-1.219281	0.699679
O	-1.624858	-1.629394	0.376215
O	0.177305	-1.666068	1.609085
C	-0.471681	1.183442	0.83485
H	-1.556631	1.203469	0.937967
H	-0.001716	1.080976	1.81452
H	-0.127189	2.117265	0.395696
Cl	3.229687	0.0	0.0
