18

C	-0.432616	0.012922	-1.459821
C	0.0	0.0	0.0
Cl	0.22753	-1.358505	-2.29919
H	1.089526	0.0	0.0
N	-1.956442	0.107751	-1.673643
O	-2.550817	-0.805799	-2.215112
O	-2.431203	1.162908	-1.266237
N	0.056976	1.275368	-2.187464
O	0.791795	2.038581	-1.581842
O	-0.349765	1.390626	-3.337564
N	-0.461952	-1.302731	0.586271
O	0.348603	-1.980291	1.206664
O	-1.660093	-1.570494	0.445046
C	-0.52118	1.091096	0.920489
H	-0.028121	0.946857	1.885023
H	-1.602029	1.038913	1.045862
H	-0.237981	2.070871	0.54488
Cl	3.296273	0.0	0.0
