15

C	0.0	0.0	0.0
C	-0.360397	0.016078	-1.532145
F	1.3526	0.0	0.0
H	-0.635352	1.069269	-1.702642
H	-0.422437	0.824857	0.552492
N	-0.388073	-1.249254	0.725752
O	-0.567646	-1.149896	1.933943
O	-0.333476	-2.30729	0.104062
C	-1.459081	-0.836484	-2.190519
H	-1.260536	-1.897691	-2.055998
H	-2.384465	-0.564593	-1.686545
H	-1.466954	-0.60619	-3.262573
C	0.87202	-0.227897	-2.309672
N	1.779954	-0.464697	-3.0157
F	-2.395773	0.0	0.0
