15

C	0.0	0.0	0.0
C	-0.543033	0.047429	-1.415536
F	1.356283	0.0	0.0
H	-1.664474	-0.034614	-1.151585
H	-0.386443	0.823083	0.590475
N	-0.404364	-1.227165	0.776694
O	-0.479575	-2.3048	0.19281
O	-0.5029	-1.075277	1.99091
C	0.02229	-0.985856	-2.390106
H	1.116852	-0.980011	-2.394011
H	-0.322311	-1.981804	-2.125578
H	-0.320419	-0.753223	-3.401472
C	-0.27557	1.38632	-1.919008
N	-0.055721	2.449569	-2.372653
F	-2.61309	0.0	0.0
