15

C	0.0	0.0	0.0
C	-0.414039	-0.238286	-1.457245
F	1.351807	0.0	0.0
H	0.494883	-0.59979	-1.959594
H	-0.394655	0.911574	0.425775
N	-0.364891	-1.093387	0.954845
O	-0.514508	-0.768752	2.12849
O	-0.308626	-2.247195	0.537083
C	-0.834381	1.103177	-2.066133
H	-1.014133	1.002554	-3.139445
H	-0.051923	1.85474	-1.91248
H	-1.750272	1.378347	-1.546205
C	-1.452166	-1.236088	-1.727103
N	-2.116404	-2.054106	-2.249713
F	-2.354736	0.0	0.0
