15

C	0.0	0.0	0.0
C	-0.418228	-0.078871	-1.472541
F	1.355346	0.0	0.0
H	0.485437	-0.392479	-2.012936
H	-0.392087	0.859968	0.525276
N	-0.363044	-1.192927	0.827208
O	-0.528117	-1.00169	2.026859
O	-0.28881	-2.293129	0.285676
C	-0.832049	1.320202	-1.937497
H	-1.738148	1.554566	-1.380738
H	-1.029319	1.325937	-3.012791
H	-0.038824	2.044909	-1.723796
C	-1.468073	-1.034377	-1.840386
N	-2.126903	-1.778001	-2.472378
F	-2.360259	0.0	0.0
