15

C	0.0	0.0	0.0
C	-0.548349	-0.03437	-1.412703
F	1.354042	0.0	0.0
H	-1.674711	-0.038033	-1.134555
H	-0.381971	0.86274	0.535497
N	-0.40514	-1.16945	0.859788
O	-0.494635	-0.934203	2.061133
O	-0.491609	-2.282982	0.352545
C	-0.07298	-1.188033	-2.299426
H	-0.33185	-0.975907	-3.339751
H	1.011595	-1.323558	-2.24232
H	-0.556324	-2.114297	-2.001007
C	-0.181755	1.23565	-2.019974
N	0.117456	2.247547	-2.5416
F	-2.625936	0.0	0.0
