15

C	0.0	0.0	0.0
C	-0.37542	-0.028261	-1.474971
F	1.367192	0.0	0.0
H	0.214154	-0.846166	-1.906195
H	-0.390205	0.833224	0.567273
N	-0.385282	-1.242951	0.740553
O	-0.495317	-1.138994	1.958667
O	-0.421426	-2.294025	0.108296
C	0.077905	1.289137	-2.118669
H	1.14854	1.452425	-1.974355
H	-0.139923	1.259943	-3.187517
H	-0.477147	2.124203	-1.683007
C	-1.786404	-0.272574	-1.841534
N	-2.565947	-0.461461	-2.714261
F	-2.369009	0.0	0.0
