15

C	0.0	0.0	0.0
C	-0.540622	0.553842	-1.3017
F	1.365193	0.0	0.0
H	-1.661315	0.356724	-1.095328
H	-0.383383	0.55349	0.849633
N	-0.402031	-1.42559	0.283884
O	-0.57807	-2.205083	-0.64572
O	-0.40712	-1.733806	1.472501
C	0.061263	-0.03176	-2.578404
H	-0.104814	-1.10506	-2.615681
H	1.135758	0.162531	-2.642251
H	-0.417666	0.428846	-3.446342
C	-0.309242	1.990223	-1.267548
N	-0.104937	3.147996	-1.265718
F	-2.611023	0.0	0.0
