15
Coordinates from ORCA-job run
  C   0.60956538533974      0.07033125006479     -0.44675322282085
  C   -0.72720202942045     -0.57823985571497     -0.07358775740386
  Br  0.77902167705783      0.21477518205478     -2.33435027801623
  H   -0.78970003104506     -1.54064501433436     -0.58275319546196
  N   0.80732468920950      1.42252293945192      0.26316282968905
  O   0.85410490937752      1.30217661832578      1.47944289532652
  O   0.90300596051602      2.43157151656584     -0.40636899157008
  N   1.75750969087678     -0.80496836103272      0.07043531982197
  O   2.84925657748497     -0.26497781866989      0.11953939118118
  O   1.47176020941425     -1.96329240760481      0.34214864518993
  N   -1.85389058145916      0.27458135215404     -0.62953679289193
  O   -1.89967687384185      1.42899844743560     -0.22312698684085
  O   -2.60844690611971     -0.27548447092325     -1.41966467765109
  C   -0.94765209286939     -0.75783303250002      1.35535138863183
  N   -1.20498058452099     -0.95951634527273      2.48406143281636
