15
Coordinates from ORCA-job run
  C   0.77942086440396     -0.08809738978921      0.23111358549275
  C   -0.60281357343308     -0.72859018058847      0.07783202883851
  Br  1.80084137788050     -1.09203004452439      1.49351461208148
  H   -0.47095584784375     -1.70241390290969     -0.40021375499559
  N   1.50525428717821     -0.08311510310231     -1.11651072209619
  O   2.70163032200583      0.14295297107089     -1.09591279466807
  O   0.79468012710623     -0.28502741619945     -2.09613171242249
  N   0.69219855167652      1.37724431931451      0.70705587836115
  O   1.19927727939097      2.22201059565648     -0.00854011459955
  O   0.11352689521301      1.52244228333827      1.76863105570727
  N   -1.52383252436607      0.04757296199222     -0.86133710064173
  O   -2.29921155360072     -0.63922621178114     -1.50499576126109
  O   -1.42678615850716      1.26546343507567     -0.84648633510492
  C   -1.31484739998688     -0.88947157298504      1.33922566030867
  N   -1.94738264711758     -1.07071474456834      2.31275547499980
