15
Coordinates from ORCA-job run
  C   0.63771017419285      0.16043981966658     -0.37985600408476
  C   -0.68956614912773     -0.58739779457338     -0.21891574062395
  Br  0.94173284272167      0.60094057352162     -2.20336543483473
  H   -0.66659270743755     -1.46239213903427     -0.86948902625781
  N   0.71287554052408      1.39384374644075      0.54040784150154
  O   0.80287981046058      2.49726153280570      0.04052220586598
  O   0.67806502266255      1.08845517055490      1.72417553252506
  N   1.78508742356144     -0.73950935071004      0.09215100314061
  O   2.84274068685848     -0.17349363602124      0.30907373082386
  O   1.53659321441488     -1.93540954754745      0.16716415047439
  N   -1.81156030161995      0.29859732272197     -0.73201860974605
  O   -2.47076845522774     -0.14725462420085     -1.66081610701771
  O   -1.94815191994658      1.37149401130237     -0.15731590830708
  C   -1.00868914536498     -0.99095701744790      1.14410037910164
  N   -1.34135603667202     -1.37361806747877      2.20418198743900
