15
Coordinates from ORCA-job run
  C   0.64590416492972      0.20210474203185     -0.39396492702332
  C   -0.67139827564086     -0.56691072722163     -0.26382401394955
  Br  1.06287856773383      0.55783549416596     -2.21611749313564
  H   -0.65820518418433     -1.37230366630895     -1.00178547311822
  N   0.66525739591120      1.47067673458803      0.46502059832983
  O   1.23804162500410      2.45175662774089      0.03443915318639
  O   0.12682656695415      1.32083133134612      1.55345643996908
  N   1.75985533432905     -0.69455602741208      0.17668183103625
  O   2.62195281333816     -0.14587035059118      0.84278519049017
  O   1.67795961896652     -1.87269242173263     -0.13722396477941
  N   -1.86852822657804      0.30031781406654     -0.64047240506707
  O   -1.67984176165695      1.49721142649662     -0.80692626977975
  O   -2.91918712778891     -0.31375242064386     -0.74528380960436
  C   -0.91131623148756     -1.15060248961462      1.05025254577061
  N   -1.08819927983007     -1.68404606691107      2.08196259767499
