14

C	-0.46678	0.030469	-1.437528
C	0.0	0.0	0.0
Br	-2.424461	0.061194	-1.561148
H	1.093003	0.0	0.0
H	-0.371009	0.869743	0.534508
N	-0.011196	1.38769	-2.03122
O	-0.154386	2.358994	-1.305327
O	0.40478	1.378641	-3.179257
C	0.030466	-1.034367	-2.291174
N	0.394893	-1.875991	-3.026682
N	-0.47128	-1.19914	0.723964
O	-0.647115	-1.066055	1.932281
O	-0.620166	-2.243414	0.092648
Br	3.332614	0.0	0.0
