14

C	-0.556216	0.103208	-1.412924
C	0.0	0.0	0.0
Br	0.485141	1.261489	-2.565561
H	1.089253	0.0	0.0
H	-0.36777	-0.902674	0.484125
N	-0.489514	-1.292382	-2.072237
O	-1.160578	-1.442246	-3.084592
O	0.246683	-2.115055	-1.551789
C	-1.958411	0.50141	-1.454436
N	-3.103894	0.766019	-1.462496
N	-0.439291	1.141004	0.840116
O	-0.605292	2.233857	0.302553
O	-0.561605	0.912415	2.040304
Br	3.368388	0.0	0.0
