13

C	-0.492934	-0.051294	-1.404177
C	0.0	0.0	0.0
F	-1.876054	-0.094001	-1.500019
H	1.090812	0.0	0.0
H	-0.081193	-0.893285	-1.95526
H	-0.391023	0.905664	0.479143
N	-0.087397	1.185108	-2.161017
O	0.698475	1.050521	-3.096208
O	-0.585158	2.248274	-1.795481
N	-0.403028	-1.252945	0.655771
H	-1.189677	-1.109353	1.274192
H	0.39227	-1.546837	1.209026
F	2.650878	0.0	0.0
