13

C	-0.548941	0.018605	-1.395658
C	0.0	0.0	0.0
F	-0.090803	1.087396	-2.1067
H	1.100282	0.0	0.0
H	-1.642557	0.033616	-1.432036
H	-0.389019	-0.896746	0.48934
N	-0.154583	-1.237227	-2.141086
O	-0.625812	-2.277681	-1.683964
O	0.553628	-1.149165	-3.13246
N	-0.537215	1.211203	0.66927
H	0.187623	1.914459	0.549953
H	-0.54884	1.018503	1.66476
F	2.677732	0.0	0.0
