13

C	-0.632481	0.002823	-1.36237
C	0.0	0.0	0.0
F	-0.243048	1.094325	-2.097127
H	1.090992	0.0	0.0
H	-1.724764	-0.030524	-1.349479
H	-0.344215	0.921063	0.491799
N	-0.252655	-1.225392	-2.153917
O	-1.128978	-2.08122	-2.292267
O	0.883281	-1.285153	-2.600278
N	-0.425529	-1.221514	0.705019
H	-1.044264	-1.012015	1.474957
H	0.422456	-1.619565	1.089197
F	2.655039	0.0	0.0
