13

C	-0.352097	-0.11014	-1.446306
C	0.0	0.0	0.0
F	-1.704683	-0.367247	-1.67898
H	1.092471	0.0	0.0
H	0.230304	-0.876653	-1.955869
H	-0.44505	0.903161	0.423269
N	-0.073447	1.17059	-2.183622
O	-0.684314	2.170573	-1.812356
O	0.724019	1.128855	-3.118703
N	-0.405257	-1.199365	0.739195
H	-1.221483	-1.637989	0.331822
H	0.373244	-1.846697	0.708293
F	2.643908	0.0	0.0
