20

C	0.0	0.0	0.0
C	-0.552088	0.054813	-1.437063
Cl	1.800847	0.0	0.0
H	-1.616482	0.294025	-1.317663
C	-0.452636	1.203263	0.816739
H	-1.54591	1.214231	0.824386
H	-0.081825	2.137864	0.3978
H	-0.079109	1.103108	1.839002
C	-0.475007	-1.281267	0.670935
H	-0.160338	-1.272029	1.716982
H	-0.052672	-2.167226	0.194887
H	-1.567995	-1.305593	0.625616
C	-0.380499	-1.211932	-2.248889
H	0.647425	-1.574432	-2.224889
H	-1.057133	-1.969651	-1.854971
H	-0.655148	-1.026171	-3.288302
N	0.047392	1.212966	-2.179364
O	-0.415374	2.332006	-1.955115
O	0.968851	0.987466	-2.965391
Cl	-3.800929	0.0	0.0
