20

C	0.0	0.0	0.0
C	-0.314061	-0.063729	-1.539873
Cl	1.809906	0.0	0.0
H	0.524637	-0.592346	-1.995845
C	-0.509629	1.256443	0.678733
H	-0.204367	1.240492	1.727765
H	-1.603378	1.238166	0.626227
H	-0.121072	2.167307	0.223921
C	-0.444967	-1.221065	0.789607
H	-1.536586	-1.260669	0.776859
H	-0.097728	-1.105704	1.819858
H	-0.039222	-2.141564	0.376687
C	-0.472984	1.297784	-2.183099
H	-0.525393	1.198654	-3.26701
H	0.386849	1.921965	-1.932746
H	-1.392669	1.769797	-1.838436
N	-1.449903	-0.972882	-1.990638
O	-1.364468	-2.152718	-1.65807
O	-2.263016	-0.525016	-2.786913
Cl	-3.788188	0.0	0.0
