20

C	0.0	0.0	0.0
C	-0.552204	0.113907	-1.433745
Cl	1.800688	0.0	0.0
H	-1.617834	0.345737	-1.305372
C	-0.450729	1.168986	0.866914
H	-1.543895	1.186695	0.872224
H	-0.072469	2.119095	0.49239
H	-0.082088	1.020655	1.884939
C	-0.475246	-1.30661	0.61943
H	-0.057567	-2.173191	0.105082
H	-1.56866	-1.32739	0.579297
H	-0.153985	-1.342179	1.663011
C	-0.376232	-1.116963	-2.298581
H	0.657464	-1.465565	-2.300099
H	-1.038028	-1.900697	-1.929772
H	-0.664901	-0.891833	-3.326464
N	0.0468	1.30314	-2.126558
O	0.960582	1.110274	-2.930281
O	-0.405904	2.412684	-1.844247
Cl	-3.80631	0.0	0.0
