17
Coordinates from ORCA-job run
  C   -0.60483010457377     -0.31345962861810     -0.25149469545169
  C   0.80329793755858     -0.21673494931109      0.37025297688959
  F   -0.62470971216261     -1.50680383764044     -0.97447834003533
  H   0.90054321389921     -1.06924283085626      1.05203499932067
  N   -0.78021855336905      0.74340375286320     -1.21078223133926
  H   -1.71453988893343      0.70053259672162     -1.60123530925252
  H   -0.66021415337278      1.64855967335954     -0.77096794890157
  C   -1.69583177324563     -0.43663791161666      0.79782256208222
  H   -2.65517302435890     -0.58763370736507      0.29724639501076
  H   -1.51178580893268     -1.29268375729160      1.45100666858809
  H   -1.75464487610723      0.46926389639492      1.40383816928853
  C   0.89189031641445      1.00812475679968      1.16561737504607
  N   0.94108476641721      2.01701576015059      1.76524777337095
  C   1.91547613276431     -0.27542211603724     -0.68021122497652
  H   1.84506235111822      0.57167677222748     -1.36051444031940
  H   2.89310853654652     -0.26907763973906     -0.19474647388507
  H   1.81148464033759     -1.19288083004152     -1.25863625543553
