17
Coordinates from ORCA-job run
  C   -0.67958669613224     -0.16301909479109     -0.18009142451181
  C   0.77634103767426     -0.36148086617425      0.27831154717246
  F   -0.91977738469847     -1.25907226789952     -1.05571252503130
  H   0.82863573319564     -1.37576560499543      0.68945923023081
  N   -0.83254655225009      1.07376879149684     -0.85199365994285
  H   -1.80477908856555      1.24844897278194     -1.07216944204800
  H   -0.29556246787048      1.09857817302461     -1.70900935506870
  C   -1.67550788705521     -0.29258679886821      0.95071955165335
  H   -1.53912944362416     -1.24658694510122      1.46198712816961
  H   -1.55828184997890      0.52304196448227      1.66387950586039
  H   -2.68849183435206     -0.27029704734671      0.54196854055092
  C   1.09548194041868      0.57596966262506      1.35554230603572
  N   1.37277273072394      1.32349551416700      2.21688845275977
  C   1.78891919604769     -0.23812586197269     -0.86439603886820
  H   1.86272852674758      0.79318577384901     -1.21352713900728
  H   1.49055993116268     -0.88604142781238     -1.68953936676902
  H   2.77922410855671     -0.54351293746521     -0.52331731118587
