17
Coordinates from ORCA-job run
  C   -0.68905904899118     -0.39368391015316     -0.20880923100824
  C   0.84067115925775     -0.50253610929544     -0.08283919872663
  F   -1.16804834827138     -1.71121372337034     -0.00723308505662
  H   1.16507350625850     -1.19375159544142     -0.87141695475820
  N   -1.01397595818548      0.06641403653319     -1.51397273408917
  H   -0.71315783834830     -0.60576945734358     -2.21051316965524
  H   -2.01422791210902      0.19572723137058     -1.60506215832885
  C   -1.33876242553431      0.46872255300842      0.84966587574500
  H   -2.42406109900514      0.38231794712079      0.75883765845857
  H   -1.05598981481226      0.12410495928980      1.84481367549037
  H   -1.05801313646155      1.51455427929665      0.72786457570716
  C   1.19401154359508     -1.11795493242045      1.19824210118477
  N   1.49723881253507     -1.56672276968475      2.23963065643969
  C   1.56022298005892      0.83838142987379     -0.24982267244220
  H   2.64048920372983      0.68487781170907     -0.27176511876232
  H   1.24405413457555      1.30898394239056     -1.17999138498040
  H   1.33353424170793      1.50754830711629      0.58137116478231
