17
Coordinates from ORCA-job run
  C   -0.58715031171142     -0.34768508676086     -0.24683347672216
  C   0.82637149709291     -0.16832991746830      0.34376390956367
  F   -0.54092883884020     -1.51557239699991     -1.00895052307183
  H   1.00196626162445     -1.03019293063749      0.99766616968606
  N   -0.86298259964784      0.72365122186699     -1.16572054511467
  H   -1.80119257855833      0.62461629224086     -1.53604156849825
  H   -0.79845858688018      1.62059655857144     -0.69839202275192
  C   -1.63826490519886     -0.58304879111021      0.82379810332943
  H   -1.74352776495381      0.29488335300066      1.46384527149923
  H   -2.59803277312566     -0.78372668863888      0.34179351266142
  H   -1.37743128521517     -1.44624656483027      1.44044437904361
  C   0.84704431067974      1.03606020551539      1.17435993608207
  N   0.83979423253941      2.02817937755796      1.80334770611532
  C   1.91196628490242     -0.11686282665557     -0.73421415716638
  H   2.89909042245646     -0.05257955060013     -0.27282878031483
  H   1.85914815946798     -1.02356905876502     -1.33608222458669
  H   1.76258847536806      0.74082680371332     -1.38795568975409
