14
Coordinates from ORCA-job run
  C   -0.41721577663330     -0.46852521228299     -0.73212745569170
  C   0.79844868006148      0.41530539566788     -0.41216500118379
  Br  0.20954443418048     -2.26514352687255     -1.15519929566847
  H   1.52256957579213      0.36718971907570     -1.22731494585336
  H   -0.82386530403298     -0.08226607037704     -1.67003777623702
  C   -1.49566048068323     -0.51187876860843      0.33447907799817
  H   -1.82679568848716      0.50167898671657      0.57509758465852
  H   -2.34910703915335     -1.07649184528975     -0.04261576832504
  H   -1.13851952196792     -0.98663965483498      1.24662853859146
  N   1.53859068095661     -0.07264525271815      0.81221100433609
  O   2.61862799624800     -0.61571319344992      0.61263679517403
  O   0.98741278654299      0.10078800292392      1.89428151777058
  C   0.37395894526747      1.79388007139106     -0.18639389098513
  N   0.00201071190880      2.89946134865870     -0.04948038458433
