14
Coordinates from ORCA-job run
  C   -0.79162728949762      0.22886136108756     -0.28565373977257
  C   0.73061095708080      0.19620800075059     -0.45386563587530
  Br  -1.55760713515147      0.35412627819558     -2.07181673468859
  H   1.03617769651005     -0.66130318728157     -1.05637507534844
  H   -1.06761572007246      1.15064843197439      0.22847512543143
  C   -1.31949762221569     -0.99457471077374      0.43974043113510
  H   -1.00622141838168     -1.91395561074687     -0.05908650778091
  H   -0.95755029386295     -1.00926968393438      1.47104897643499
  H   -2.40898390131929     -0.96817660723663      0.46610441203607
  N   1.32904622731976     -0.02382171016957      0.91984285729184
  O   1.87482560964228     -1.10401700427648      1.11472885733609
  O   1.16222716158111      0.87784193571449      1.73327322476006
  C   1.27017543356875      1.43505981807044     -1.00233602153630
  N   1.70704029479841      2.43137268862618     -1.44408016942346
