14
Coordinates from ORCA-job run
  C   -0.49796542339190     -0.50461102091876     -0.65259775205880
  C   0.81261631343017      0.28105157088399     -0.48975700340979
  Br  -0.07077089106512     -2.39305238579112     -0.87495595414098
  H   1.48405014303895      0.06752905620923     -1.32333360863369
  H   -0.91128735127339     -0.19270677433454     -1.61478877200125
  C   -1.52101987649238     -0.31035471063521      0.45102064729391
  H   -2.44196898069549     -0.82800537731770      0.18062496196771
  H   -1.74215769078359      0.75287513424705      0.57462330533765
  H   -1.16531092040745     -0.70412746588525      1.40133220394937
  N   1.56646397495933     -0.13959546985456      0.75154951949861
  O   2.57727934508702     -0.80800252997564      0.57149889536451
  O   1.09136420789590      0.20751969007887      1.82777450058400
  C   0.53692172772732      1.71256972256863     -0.41013494777889
  N   0.28178542197063      2.85891056072499     -0.39185599597234
