14
Coordinates from ORCA-job run
  C   -0.77631115884576      0.19067836579068     -0.34962763936783
  C   0.75396892036824      0.18469802348197     -0.41803532078660
  Br  -1.42685674201190      0.18330116848137     -2.18532562246082
  H   1.11549512400623     -0.70235763425487     -0.94166833091474
  H   -1.10393084250113      1.13631373992685      0.08470907982423
  C   -1.32456723543902     -0.99706331935895      0.41872592055635
  H   -2.41372397889961     -0.99866367460912      0.37248697606469
  H   -0.95811082564980     -1.93773108414570      0.00263513018776
  H   -1.03193388592988     -0.93561217793829      1.47005585536288
  N   1.26620027632276      0.06955557335563      1.00244170816706
  O   1.02919952320393      1.01868199609793      1.74129372746663
  O   1.82023817869923     -0.98178653267993      1.30323032448887
  C   1.30279170027836      1.39805192169008     -1.01238992037615
  N   1.74754094639834      2.37393363416235     -1.49053188821234
