14
Coordinates from ORCA-job run
  C   -0.47688515892320     -0.49382056774563     -0.67710064955480
  C   0.83825167721126      0.26872054064077     -0.45256257748030
  Br  -0.07242251747195     -2.38815438432885     -0.89506641569754
  H   1.54406346059659      0.04407333399242     -1.25411219627757
  H   -0.84358078407754     -0.16803872247057     -1.65368916325617
  C   -1.54281601358044     -0.28949572586108      0.38342984742308
  H   -1.23623148411667     -0.69900919757445      1.34429917609306
  H   -2.46085815278026     -0.78674418472198      0.06830942301938
  H   -1.74886063915410      0.77673291470775      0.50824489274492
  N   1.52609369481620     -0.16472907353552      0.82174933672499
  O   2.53181827224825     -0.85176439613470      0.68863936129719
  O   1.00945033782572      0.19274553764763      1.87532696103886
  C   0.58281812351073      1.70457766848246     -0.38410071956764
  N   0.34615918389541      2.85490625690173     -0.37336727650746
