14
Coordinates from ORCA-job run
  C   -0.75994050353282      0.12967598415552     -0.40643355389595
  C   0.76776540811802      0.23798659080782     -0.36538334499057
  Br  -1.27375050383285      0.06054831916985     -2.28378241778947
  H   1.23057066823934     -0.62251453545452     -0.85231394236867
  H   -1.18736327321015      1.05135457236980     -0.00882893220898
  C   -1.27325601484265     -1.09004164094741      0.33550095391888
  H   -1.06502670553030     -0.99856458081421      1.40458880444470
  H   -0.80714854597852     -2.00341729659926     -0.03955818206306
  H   -2.35276502894421     -1.17435189814060      0.20909860123092
  N   1.18252682165444      0.16852420725560      1.08912505129178
  O   0.83972979301377      1.10973015700152      1.79572428767657
  O   1.76928689914362     -0.84776935923826      1.44435764727721
  C   1.26461937210373      1.48635768530441     -0.93234577954270
  N   1.66475161359860      2.49148179512972     -1.38874919298063
