14
Coordinates from ORCA-job run
  C   -0.78659441019334      0.15326977207412     -0.34390571725283
  C   0.74074504656889      0.25408629215210     -0.40874014860637
  Br  -1.43516463366228      0.18299338760443     -2.18027904138022
  H   1.16132643464712     -0.57963443063988     -0.97407318096970
  H   -1.17738465701267      1.05484327996651      0.13013938202113
  C   -1.25420214236806     -1.10080622428030      0.37041820513185
  H   -2.34069162772782     -1.17371816120343      0.31908561862616
  H   -0.82402387118648     -1.99592215960156     -0.08337852092849
  H   -0.96831681890356     -1.06467504451165      1.42479232788709
  N   1.26007328562077      0.10446295844237      1.00569515818889
  O   1.87251375123312     -0.92670678681534      1.25956234429904
  O   0.97059872365011      1.00389523990842      1.78655047288650
  C   1.20348039417559      1.53055945563617     -0.94055146695757
  N   1.57664052515861      2.55935242126806     -1.36631543294549
