14
Coordinates from ORCA-job run
  C   -0.60918128897854     -0.11944553529853     -0.61351898046311
  C   0.85911123427932     -0.05759822349536     -0.18257836150260
  Br  -0.69795033188589     -1.29650955561548     -2.16238702929711
  H   1.22803550504582     -1.04993907923688      0.08412037056751
  H   -0.91314565252282      0.86776209990370     -0.96456131112682
  C   -1.51493417886490     -0.62199859560703      0.49504007290094
  H   -1.17836124852564     -1.59119702994175      0.86870186040850
  H   -1.53195326561041      0.09121491088202      1.32314073639916
  H   -2.53381727751001     -0.72876177036395      0.12242047880609
  N   0.91936979125952      0.76521991242893      1.08757945413957
  O   1.20798913940300      0.16608494257986      2.11729541668280
  O   0.61420407108105      1.94766624403275      0.98044501260610
  C   1.72314260499554      0.56469810702073     -1.17905288632000
  N   2.42649089783397      1.06280357271098     -1.97664483380102
