14
Coordinates from ORCA-job run
  C   -0.80674533616158      0.19449051323944     -0.26915126080441
  C   0.71307795092759      0.26402106015481     -0.44878914239072
  Br  -1.59567437242559      0.36286558524334     -2.04170729016311
  H   1.06423670167343     -0.53958125841494     -1.09903487811629
  H   -1.13332408085511      1.07052244100987      0.29310224806843
  C   -1.25173276930963     -1.09380881912905      0.39701208321534
  H   -0.88485542450236     -1.13343833430378      1.42586120584555
  H   -2.34057956122286     -1.13971656093015      0.42650510653736
  H   -0.88179194282120     -1.96599086283012     -0.14574494205182
  N   1.33657887101650      0.00759999882645      0.90693540430636
  O   1.94466889097870     -1.04853553763178      1.04104195737668
  O   1.12524184968211      0.85418545785904      1.76827084237805
  C   1.17044072742229      1.56131058505132     -0.93327623904139
  N   1.54045849559772      2.60607573185555     -1.32102509516003
