14
Coordinates from ORCA-job run
  C   -0.42505048598780     -0.68496379573900     -0.12066494821028
  C   0.67275527178819      0.37619197888221     -0.16526440776900
  Br  -0.38524328227798     -1.58689756924417      1.60321690657515
  H   0.69687910286282      0.79985098006473     -1.17599013167990
  H   -0.16926890734030     -1.44610005004807     -0.85884205697392
  C   -1.79369513055422     -0.08466075814231     -0.38194460356752
  H   -2.06210697106783      0.63605417374257      0.39217232610812
  H   -2.54921412146646     -0.87062965585076     -0.39706698055031
  H   -1.80034188805116      0.41944740364446     -1.35360237758445
  N   2.03169112294676     -0.27757265655768      0.00236551050812
  O   2.74573327025793      0.08789051648163      0.92514036809393
  O   2.28625125262892     -1.13431890598726     -0.83597807786665
  C   0.48367145553901      1.44155594862842      0.80966884616815
  N   0.26793931072213      2.32315239012522      1.55478962674856
