14
Coordinates from ORCA-job run
  C   -0.49978843279289     -0.49416673861969     -0.65964850557630
  C   0.81056496990778      0.29022349441835     -0.48850535156367
  Br  -0.07176059002829     -2.37770402641482     -0.92274731278215
  H   1.48060116974252      0.08916212538184     -1.32622739120474
  H   -0.91906376341281     -0.16307635115286     -1.61305187479943
  C   -1.51677546282715     -0.32348642956559      0.45345245309246
  H   -1.15694874952392     -0.73933004863903      1.39288494168990
  H   -2.43972874535210     -0.83399465776565      0.17606992981062
  H   -1.73597295069076      0.73700515535429      0.60222799568966
  N   1.56729142977156     -0.14652577060433      0.74495669126966
  O   2.57781073661306     -0.81251697987033      0.55386190801783
  O   1.09567271877534      0.18697670442596      1.82709256675104
  C   0.53248583205668      1.72000327478832     -0.38837700551158
  N   0.27561183776099      2.86543024826351     -0.35098904488331
