14
Coordinates from ORCA-job run
  C   -0.49555051781699     -0.48506941402701     -0.67013539341698
  C   0.81475978578742      0.29430079836273     -0.47796936163943
  Br  -0.06913343035205     -2.36543063686577     -0.95362742055624
  H   1.49102820500966      0.10338138534699     -1.31307231952774
  H   -0.90560075713454     -0.14030175960574     -1.62257989577840
  C   -1.52147695425034     -0.32586780615055      0.43658476488681
  H   -2.44261284405509     -0.83252182550049      0.14625827280236
  H   -1.74096022280430      0.73314430699648      0.59563609272778
  H   -1.16924091167350     -0.75253221594626      1.37415159139344
  N   1.56132239970813     -0.15894395326711      0.75568640520458
  O   1.08166958388685      0.16173385503940      1.83818525154077
  O   2.57283870693459     -0.82319294591521      0.56412043524237
  C   0.53900334988164      1.72347000807194     -0.36205235252845
  N   0.28395360687853      2.86883020346062     -0.31218607035088
