11
Coordinates from ORCA-job run
  C   -0.17629112717989      0.19894977269562      0.28300188536874
  C   1.16752689649999     -0.43951076432053     -0.05773654851545
  H   -0.02650120724658      0.92275362400870      1.09918755076408
  H   1.86265502304601      0.32986104226084     -0.40386045112816
  H   1.60265431361643     -0.92788314381512      0.81543563432797
  H   1.03044385130602     -1.17211261614580     -0.85353424013655
  C   -1.10486892370747     -0.81944088842155      0.79714942456547
  N   -1.84133713927182     -1.62705975938786      1.22416112260235
  N   -0.75524810652230      0.79086814692175     -0.92332036118420
  H   -0.12325605348725      1.50093056240814     -1.27493596967228
  H   -1.63577752705313      1.24264402379581     -0.70554804699196
