11
Coordinates from ORCA-job run
  C   -0.15572961037899      0.18265695795850      0.30447221270395
  C   1.15783254425681     -0.44349644440604     -0.15600192640577
  H   0.05102004738097      0.85412830267254      1.15232904203882
  H   0.96416496208886     -1.12777918429241     -0.98240681785641
  H   1.83760237174473      0.34012874593017     -0.50048401829941
  H   1.64159969032894     -0.98433597618868      0.65869417755623
  C   -1.06269830619044     -0.85839646301055      0.81158353436061
  N   -1.78115743186841     -1.68511772212343      1.23255565900860
  N   -0.80032321752708      0.85155968758794     -0.82616884719319
  H   -0.18645300432456      1.58277696327606     -1.16649242655520
  H   -1.66485804551083      1.28887513259590     -0.52908058935823
