11
Coordinates from ORCA-job run
  C   -0.24155667831444      0.21064204667112      0.37200143929823
  C   1.13847315581716     -0.32053163702586     -0.03164768497235
  H   -0.13505635150420      0.83346137670501      1.26663532576215
  H   1.59429056022404     -0.90417039644079      0.77164120913899
  H   1.05362987291729     -0.95682034380653     -0.91570453093875
  H   1.79681089424392      0.51896477558933     -0.26850158671968
  C   -1.11656476136200     -0.91351800446694      0.74165189220004
  N   -1.78191221773969     -1.84028930263232      1.01586391018301
  N   -0.92612145380603      1.02168258139552     -0.63253763580018
  H   -1.00665910245309      0.49887407833994     -1.49755588408413
  H   -0.37533391802294      1.85070482567151     -0.82284645406732
