11
Coordinates from ORCA-job run
  C   -0.09580090559948      0.24380911788430      0.35375677049211
  C   1.21270277249179     -0.38499703988619     -0.11420259624011
  H   0.09896659001232      0.84302623147616      1.24850833384198
  H   1.04360206506545     -0.99583329795418     -1.00437696500091
  H   1.91448501278434      0.41126081022552     -0.36396863642279
  H   1.64271712556672     -1.02173816114877      0.66060351849099
  C   -1.05919021709876     -0.81262333940830      0.73998799738925
  N   -1.84832227123629     -1.64112686130862      1.00597537951813
  N   -0.60859048683560      1.14615942065640     -0.67178148943755
  H   -1.45661100069486      1.59836804886877     -0.35064768503749
  H   -0.84495868445564      0.61569507059490     -1.50285462759360
