11
Coordinates from ORCA-job run
  C   -0.16917185712554      0.18231977047204      0.29723386735802
  C   1.16643921049521     -0.43531839419698     -0.10785448302868
  H   -0.00171504179389      0.85823029256593      1.15021357860756
  H   1.01113648725397     -1.12447782949536     -0.93843450649418
  H   1.85349300577231      0.35225296018664     -0.42841897182794
  H   1.62130758390585     -0.96903112267491      0.72802262199696
  C   -1.08749950101123     -0.86389953551969      0.77249692891348
  N   -1.81552976654247     -1.69459877209581      1.16837147691117
  N   -0.77324155986185      0.84215772592721     -0.86051542238717
  H   -1.65281453086764      1.27297078692575     -0.60058297921709
  H   -0.15240403022473      1.57739411790519     -1.17853211083213
