11
Coordinates from ORCA-job run
  C   -0.22959902613852      0.18840397791978      0.38902697655160
  C   1.14352617605236     -0.30702701392792     -0.07834911547701
  H   -0.10400967496399      0.76934603573300      1.30908954968489
  H   1.03933012117450     -0.90245882488524     -0.98846403297524
  H   1.62850245461521     -0.92216263455834      0.68326714392303
  H   1.78627147396732      0.54987714503710     -0.29457291587865
  C   -1.08346045550563     -0.96095358380783      0.73038698254200
  N   -1.76151125981387     -1.88833149609753      0.96892768707042
  N   -0.95204427386676      1.03665731398257     -0.55608388346675
  H   -0.41729896389558      1.88144598769849     -0.72035055680267
  H   -1.04970657162506      0.55520309290592     -1.44287783517161
