16

C	0.0	0.0	0.0
C	-0.45663	0.07532	-1.44464
Br	2.033148	0.0	0.0
H	-1.549643	0.19686	-1.324171
H	-0.047114	0.983251	-1.90201
N	-0.352322	1.224954	0.656155
H	0.146849	2.009746	0.255338
H	-0.143564	1.174626	1.645968
N	-0.566517	-1.141224	0.614893
H	-1.602217	-0.957525	0.478657
H	-0.392471	-1.111481	1.61583
C	-0.137002	-1.152348	-2.280823
H	-0.583965	-1.054454	-3.275224
H	-0.54965	-2.041736	-1.804681
H	0.940807	-1.292383	-2.398653
H	-3.15363	0.0	0.0
