16

C	0.0	0.0	0.0
C	-0.422707	-0.010623	-1.460784
Br	2.064006	0.0	0.0
H	-1.519552	0.084033	-1.360825
H	-0.02202	0.886264	-1.944655
N	-0.533679	1.087383	0.745987
H	-0.361839	1.950054	0.236404
H	-1.568965	0.887554	0.686239
N	-0.39641	-1.18088	0.65073
H	0.073834	-2.004407	0.309005
H	-0.297645	-1.082788	1.650726
C	-0.083285	-1.262373	-2.256149
H	-0.640241	-2.117931	-1.862163
H	0.987656	-1.486694	-2.234405
H	-0.383548	-1.136628	-3.301424
H	-3.161473	0.0	0.0
