16

C	0.0	0.0	0.0
C	-0.428149	0.013244	-1.468219
Br	1.994207	0.0	0.0
H	-1.522381	-0.089071	-1.402984
H	-0.015815	-0.877252	-1.951305
N	-0.442982	1.130596	0.77843
H	-0.169497	1.99892	0.327412
H	-1.474607	1.044324	0.722557
N	-0.476823	-1.218005	0.57924
H	-0.331562	-1.137579	1.582695
H	-1.502888	-1.150335	0.436531
C	-0.085256	1.270431	-2.252338
H	-0.418201	1.164995	-3.289384
H	-0.601443	2.141272	-1.83993
H	0.989008	1.471172	-2.260021
H	-3.058594	0.0	0.0
