15

C	0.0	0.0	0.0
C	-0.544452	-0.986912	-1.005225
F	1.394965	0.0	0.0
H	-0.289142	-2.005468	-0.716755
H	-1.638894	-0.859202	-1.037289
C	-0.376776	1.405816	-0.277003
N	-0.522407	2.569968	-0.296726
C	-0.473432	-0.385313	1.389622
H	-0.098089	-1.384557	1.625944
H	-0.075144	0.328281	2.112527
H	-1.565328	-0.371779	1.409084
N	5.9e-05	-0.809428	-2.37801
O	0.159713	-1.83429	-3.039973
O	0.226403	0.330658	-2.774647
Cl	-3.633803	0.0	0.0
