15

C	0.0	0.0	0.0
C	-0.518292	0.019	-1.432911
F	1.393545	0.0	0.0
H	-0.260862	0.955157	-1.923418
H	-1.604674	-0.138114	-1.398335
C	-0.395414	1.280614	0.624173
N	-0.57288	2.320968	1.139086
C	-0.468569	-1.16574	0.846085
H	-0.062723	-1.045684	1.852946
H	-1.559644	-1.163716	0.875263
H	-0.103666	-2.09599	0.413566
N	0.123802	-1.047641	-2.247681
O	-0.113847	-2.218446	-1.95861
O	0.852079	-0.687376	-3.172751
Cl	-3.629498	0.0	0.0
