15

C	0.0	0.0	0.0
C	-0.514217	-0.045339	-1.435352
F	1.390769	0.0	0.0
H	-1.598511	-0.209337	-1.399611
H	-0.260298	0.870434	-1.963727
C	-0.390364	1.310862	0.561668
N	-0.568438	2.379603	1.014289
C	-0.476063	-1.128664	0.888578
H	-1.567467	-1.123335	0.908046
H	-0.109618	-2.076172	0.495279
H	-0.078933	-0.970514	1.893649
N	0.145651	-1.142018	-2.192104
O	-0.135676	-2.300613	-1.891156
O	0.936852	-0.817632	-3.079192
Cl	-3.635419	0.0	0.0
