15

C	0.0	0.0	0.0
C	-0.566204	0.415012	-1.348658
F	1.373396	0.0	0.0
H	-0.23064	1.416404	-1.622857
H	-1.664941	0.400449	-1.278691
C	-0.381927	1.081817	0.942634
N	-0.544992	1.958499	1.706369
C	-0.508005	-1.332412	0.517363
H	-1.598672	-1.294223	0.562967
H	-0.095682	-1.502488	1.513767
H	-0.177502	-2.126439	-0.149508
N	-0.163679	-0.450957	-2.496395
O	-0.576931	-0.088448	-3.594973
O	0.548695	-1.433887	-2.303583
Cl	-3.683715	0.0	0.0
