15

C	0.0	0.0	0.0
C	-0.529282	0.026134	-1.428875
F	1.388117	0.0	0.0
H	-0.28127	0.966668	-1.916053
H	-1.616581	-0.128207	-1.384065
C	-0.387925	1.28649	0.620885
N	-0.578032	2.327491	1.129454
C	-0.47655	-1.156662	0.85553
H	-0.125988	-2.092029	0.424199
H	-1.5676	-1.141036	0.889619
H	-0.064664	-1.036182	1.859358
N	0.09549	-1.029908	-2.270547
O	-0.035065	-2.20261	-1.927416
O	0.694396	-0.658432	-3.281231
Cl	-3.652017	0.0	0.0
