15

C	0.0	0.0	0.0
C	-0.190467	0.033162	-1.536
F	1.391514	0.0	0.0
H	0.428885	-0.783673	-1.906711
H	0.192322	0.984834	-1.90088
C	-0.408666	1.261852	0.638134
N	-0.589918	2.295563	1.164411
C	-0.558437	-1.211106	0.691864
H	-0.212731	-2.11331	0.183625
H	-0.224477	-1.221114	1.732051
H	-1.652132	-1.148317	0.64884
N	-1.517322	-0.170369	-2.175126
O	-2.064287	0.821653	-2.644238
O	-1.891944	-1.334332	-2.280762
Cl	-3.762621	0.0	0.0
