17

C	-0.563779	0.003525	-1.417705
C	0.0	0.0	0.0
F	0.149631	0.867624	-2.184674
H	1.086162	0.0	0.0
N	-0.245943	-1.37326	-2.075896
O	0.646114	-2.055319	-1.594188
O	-0.905151	-1.626035	-3.08272
N	-1.91894	0.345039	-1.499207
H	-2.225833	0.263598	-2.461096
H	-2.462718	-0.271552	-0.909607
N	-0.499637	-1.147646	0.804513
O	0.077029	-1.352696	1.862725
O	-1.464098	-1.7868	0.373552
N	-0.481073	1.247956	0.679366
O	-1.380978	1.140049	1.50996
O	0.054245	2.28267	0.311881
Cl	3.158567	0.0	0.0
