17

C	-0.571523	0.0026	-1.414795
C	0.0	0.0	0.0
F	0.128548	0.87624	-2.182387
H	1.08615	0.0	0.0
N	-0.247954	-1.367137	-2.082884
O	0.588703	-2.091642	-1.564229
O	-0.853056	-1.57498	-3.132647
N	-1.930186	0.33366	-1.486585
H	-2.467568	-0.291326	-0.90005
H	-2.240767	0.268426	-2.448351
N	-0.49977	-1.140325	0.814867
O	0.098094	-1.355911	1.859031
O	-1.486989	-1.760458	0.409283
N	-0.477657	1.253447	0.675267
O	0.041794	2.288157	0.285364
O	-1.357967	1.148527	1.526333
Cl	3.159316	0.0	0.0
