17

C	-0.634977	-0.015933	-1.391575
C	0.0	0.0	0.0
F	-1.936125	0.431941	-1.296667
H	1.087266	0.0	0.0
N	0.071116	0.985138	-2.325056
O	1.286232	1.01319	-2.277702
O	-0.658143	1.593139	-3.101618
N	-0.505574	-1.255353	-2.036811
H	-1.074971	-1.947963	-1.572515
H	-0.763402	-1.176824	-3.012491
N	-0.457065	-1.167139	0.81608
O	-1.520896	-1.714633	0.512314
O	0.258268	-1.477326	1.758198
N	-0.456404	1.237689	0.709942
O	-0.968444	1.133899	1.817208
O	-0.253394	2.276385	0.094768
Cl	3.217704	0.0	0.0
