17

C	-0.310742	-0.011788	-1.492517
C	0.0	0.0	0.0
F	-0.094419	-1.312013	-1.909486
H	1.090061	0.0	0.0
N	-1.771736	0.264213	-1.847369
O	-2.156897	-0.17034	-2.927694
O	-2.411386	0.959237	-1.069677
N	0.463358	0.927589	-2.166676
H	0.442555	0.743363	-3.162999
H	1.418939	0.92193	-1.808458
N	-0.56458	-1.185646	0.687008
O	-1.646851	-1.607815	0.283197
O	0.07946	-1.624014	1.634246
N	-0.44571	1.218192	0.746273
O	0.024129	2.275997	0.35809
O	-1.194462	1.056751	1.703121
Cl	3.160107	0.0	0.0
