17

C	-0.644555	-0.015438	-1.385337
C	0.0	0.0	0.0
F	-0.27229	1.176314	-1.995914
H	1.085002	0.0	0.0
N	-0.017605	-1.067946	-2.314229
O	-0.700428	-1.355439	-3.295791
O	1.108747	-1.45898	-2.071067
N	-2.01732	-0.258888	-1.360871
H	-2.373928	-0.378877	-2.299222
H	-2.49102	0.475282	-0.853766
N	-0.498288	-1.179862	0.77969
O	-0.247122	-2.271532	0.289722
O	-1.113683	-0.972647	1.820888
N	-0.426241	1.217833	0.771395
O	-1.484881	1.774539	0.471311
O	0.310977	1.541524	1.69337
Cl	3.176534	0.0	0.0
