17

C	-0.640721	0.021533	-1.396405
C	0.0	0.0	0.0
F	-0.232617	1.222568	-1.931461
H	1.088401	0.0	0.0
N	0.041027	-1.03718	-2.299909
O	1.237053	-0.878346	-2.472938
O	-0.669086	-1.905793	-2.801417
N	-2.017852	-0.149684	-1.500249
H	-2.260743	-1.032268	-1.922576
H	-2.524791	0.093904	-0.667286
N	-0.441707	-1.210679	0.747922
O	-0.809613	-1.085907	1.911145
O	-0.352008	-2.26273	0.122865
N	-0.464579	1.196944	0.775722
O	0.377657	1.812978	1.411616
O	-1.669954	1.456428	0.740227
Cl	3.200083	0.0	0.0
