17

C	-0.578197	0.002409	-1.411744
C	0.0	0.0	0.0
F	0.111192	0.88215	-2.181413
H	1.086151	0.0	0.0
N	-0.250887	-1.362512	-2.086592
O	-0.840607	-1.556773	-3.147393
O	0.569572	-2.098934	-1.56094
N	-1.939716	0.325881	-1.474601
H	-2.470747	-0.306191	-0.889753
H	-2.254372	0.267942	-2.435548
N	-0.498082	-1.137748	0.819879
O	0.110976	-1.358708	1.856896
O	-1.49412	-1.751975	0.425323
N	-0.473545	1.255494	0.675662
O	-1.339581	1.151951	1.540313
O	0.036449	2.289794	0.273892
Cl	3.154692	0.0	0.0
