17

C	-0.42788	-0.031855	-1.47963
C	0.0	0.0	0.0
F	-1.653927	-0.585275	-1.621933
H	1.086852	0.0	0.0
N	-0.506364	1.406563	-1.988056
O	0.470193	2.095126	-1.711627
O	-1.471857	1.721436	-2.664936
N	0.499569	-0.691191	-2.327247
H	0.467212	-1.678267	-2.094237
H	1.439032	-0.368775	-2.08487
N	-0.453346	-1.271027	0.647232
O	-1.128051	-1.202368	1.667761
O	-0.092373	-2.302336	0.090089
N	-0.565519	1.119274	0.789532
O	0.066262	1.465647	1.780218
O	-1.6424	1.581109	0.410416
Cl	3.159065	0.0	0.0
