18
Coordinates from ORCA-job run
  C   -0.62489491017140      0.41370031639014      0.02282049941858
  C   0.52557187649720     -0.59701908425283      0.16995740435981
  F   -0.34455808733174      1.52693902435218      0.80236259799625
  H   0.17832240981013     -1.55712542606723     -0.21661865639289
  N   -1.78575504803534     -0.20325148297103      0.63438264106560
  H   -2.48073825445259      0.51741964286124      0.79639036577684
  H   -2.18687321289843     -0.88755083594686      0.00329187331098
  C   -0.82845182196558      0.91121032849474     -1.39633486761534
  H   -1.70058503214242      1.56775921232227     -1.41472716418216
  H   0.03762058613555      1.47972967143091     -1.73829332001904
  H   -0.99353840007759      0.07731650281663     -2.08171955862658
  C   1.03286935820116     -0.71126292718995      1.59125925382200
  H   1.45931903585796      0.23570206472506      1.91439988172718
  H   1.79590328358588     -1.48908028425233      1.66069982640893
  H   0.19533716311777     -0.96910848593128      2.23842725449450
  N   1.63749370616977     -0.21030789621422     -0.75508449248621
  O   1.71107124181395     -0.81739695638828     -1.82421714190633
  O   2.37088610588573      0.71232661582086     -0.40799639715212
