18
Coordinates from ORCA-job run
  C   -0.66704532551792      0.47203659730898      0.03196187274686
  C   0.49288978388547     -0.55151137786124      0.06286886874911
  F   -0.35969239469620      1.44608464542617      0.97626321808661
  H   0.19807082523247     -1.40386451598757     -0.55160915131968
  N   -1.92119212823870     -0.10366781965398      0.42528545716614
  H   -1.83750891020974     -0.69005462367750      1.24480170751511
  H   -2.34171142434844     -0.62696679925991     -0.33016972544765
  C   -0.81885965240169      1.15548547176268     -1.30998643157956
  H   -0.91631808292945      0.43046704022617     -2.12063584825584
  H   0.04812894887196      1.78422299091980     -1.51074942636675
  H   -1.70766274440698      1.78558059960681     -1.27020000940359
  C   0.90708701054986     -0.97298846026589      1.45901442015207
  H   0.07993073105221     -1.47010324103836      1.96942930865754
  H   1.21490088224435     -0.10571339905827      2.03793960140701
  H   1.73685663779382     -1.68047470780010      1.40868104176214
  N   1.67681683324410      0.02433534561246     -0.65400884286150
  O   2.38398656073215      0.81938790647435     -0.03998484417273
  O   1.83132244914275     -0.31125565273461     -1.82890121683528
