18
Coordinates from ORCA-job run
  C   -0.84939593493347      0.11124771157876     -0.00474029949089
  C   0.40483362177515     -0.67912344043963      0.40210152591146
  F   -1.57721595008095      0.19387111753002      1.21891795814594
  H   0.05801493741149     -1.61062312931857      0.85407301444332
  N   -1.55686723059567     -0.61730997881431     -0.98605029939941
  H   -2.41169496653320     -0.14839935080402     -1.25433048653005
  H   -1.76189379685623     -1.56317645411349     -0.68963119696804
  C   -0.61024791444337      1.53317524398224     -0.45536683491101
  H   -0.17357762988415      2.12126649107404      0.35071028455792
  H   -1.56848194809584      1.98711585052019     -0.71928654007774
  H   0.04814392539226      1.55341899321040     -1.32210283185593
  C   1.34275739022954      0.05883123068303      1.33354360317796
  H   1.79767249387232      0.91231028454203      0.83317933193067
  H   2.13877009014369     -0.60759659510525      1.67165403477815
  H   0.78333336342173      0.40191488722243      2.20442334852008
  N   1.13142372749728     -1.10776806138716     -0.83481411294751
  O   1.00713896500337     -2.28128173019188     -1.17758545207983
  O   1.79528685667605     -0.25787307016883     -1.42469504720508
