18
Coordinates from ORCA-job run
  C   -0.87355401732094      0.06645189693893      0.05597616907151
  C   0.40180632888240     -0.71317589276710      0.40231145185666
  F   -1.58390908059624      0.07041826230885      1.26217469432036
  H   0.05786737109011     -1.63346185841511      0.87627409490099
  N   -1.66590615272718     -0.73092447595044     -0.85244538200544
  H   -2.62319752098813     -0.39934884436895     -0.81179875891111
  H   -1.32600809455966     -0.60633597020369     -1.79839144019115
  C   -0.68787435473376      1.52073572657438     -0.32932625424894
  H   -0.10422714612288      1.60183161907141     -1.24528126901924
  H   -1.67381430447528      1.96130983109989     -0.49320156181955
  H   -0.19424474514060      2.08085278265358      0.46632209408999
  C   1.38856899942508      0.02487194547751      1.28985938843742
  H   2.17444216166138     -0.65657426447730      1.61784296905888
  H   0.86491291298140      0.40400269011882      2.16833305303396
  H   1.84697353506026      0.86167978570493      0.75936642373582
  N   1.13209166141508     -1.17299588127688     -0.82161344207201
  O   1.84692901620625     -2.16048148779174     -0.68598488531783
  O   1.02014342994271     -0.51785586469708     -1.85941734492032
