16

C	0.0	0.0	0.0
C	-0.523451	0.026049	-1.432048
Cl	1.844833	0.0	0.0
H	-1.58641	0.296305	-1.325264
H	-0.262901	-0.965856	0.42835
N	-0.514468	1.02913	0.789368
H	-0.379247	1.945474	0.393824
H	-0.25214	0.972346	1.759671
C	-0.364808	-1.297904	-2.140931
H	0.674145	-1.631611	-2.138755
H	-0.993719	-2.023986	-1.622515
H	-0.705554	-1.2266	-3.173166
N	0.143404	1.134602	-2.191536
O	0.039638	2.271348	-1.727448
O	0.75513	0.866352	-3.223661
Cl	-3.723305	0.0	0.0
