16

C	0.0	0.0	0.0
C	-0.560047	0.045635	-1.422085
Cl	1.782701	0.0	0.0
H	-1.644624	-0.067526	-1.285722
H	-0.29412	-0.984157	0.37324
N	-0.495072	0.974567	0.927159
H	-0.323416	1.898993	0.548319
H	-1.505876	0.829786	0.977037
C	-0.016896	-1.016472	-2.360914
H	1.025566	-0.818411	-2.619468
H	-0.0704	-1.991665	-1.871694
H	-0.616597	-1.048321	-3.269638
N	-0.415097	1.376209	-2.094901
O	-1.011334	1.505041	-3.160866
O	0.273934	2.254476	-1.578165
Cl	-3.596585	0.0	0.0
