16

C	0.0	0.0	0.0
C	-0.410444	0.085084	-1.494909
Cl	1.77677	0.0	0.0
H	0.48575	-0.110048	-2.089804
H	-0.279865	-0.987766	0.365466
N	-0.516383	1.098137	0.769418
H	-1.536973	1.019754	0.676106
H	-0.309654	0.916914	1.746264
C	-1.007803	1.402608	-1.939874
H	-1.996218	1.531282	-1.501231
H	-1.093229	1.420573	-3.026093
H	-0.351188	2.208273	-1.607547
N	-1.262301	-1.097918	-1.916931
O	-1.107856	-2.157786	-1.31986
O	-1.925616	-0.958212	-2.937159
Cl	-3.520689	0.0	0.0
