17

C	-0.46165	0.171868	-1.454748
C	0.0	0.0	0.0
Br	-2.382855	0.540176	-1.53959
H	1.093479	0.0	0.0
C	0.316805	1.261124	-2.159596
H	0.053184	1.300185	-3.218429
H	1.383464	1.05231	-2.036447
H	0.084738	2.224713	-1.701069
N	-0.206136	-1.170302	-2.144889
O	-1.129572	-1.951671	-2.322423
O	0.968717	-1.360993	-2.436836
N	-0.440638	-1.258652	0.563987
H	-1.360096	-1.183594	0.979599
H	0.227932	-1.549306	1.266021
C	-0.39952	1.184632	0.777037
N	-0.733866	2.09505	1.440644
Br	3.421296	0.0	0.0
