17

C	-0.565997	0.012961	-1.429007
C	0.0	0.0	0.0
Br	0.228523	-1.467723	-2.417319
H	1.098165	0.0	0.0
C	-2.073771	-0.084018	-1.490662
H	-2.510309	0.804949	-1.024854
H	-2.37891	-0.966714	-0.931214
H	-2.407351	-0.147334	-2.524562
N	-0.137322	1.281121	-2.156736
O	-0.630047	1.466829	-3.266196
O	0.64646	2.028916	-1.583174
N	-0.473942	-1.235739	0.669791
H	0.22416	-1.943877	0.454159
H	-0.39827	-1.079073	1.670563
C	-0.522926	1.151215	0.734858
N	-0.989399	2.029214	1.360177
Br	3.449211	0.0	0.0
