17

C	-0.577717	-0.036239	-1.426548
C	0.0	0.0	0.0
Br	0.279015	-1.474293	-2.409617
H	1.091057	0.0	0.0
C	-2.078509	-0.215661	-1.456488
H	-2.55762	0.638556	-0.96727
H	-2.43344	-0.28346	-2.483025
H	-2.319482	-1.131816	-0.917638
N	-0.228313	1.246131	-2.171407
O	-0.815274	1.445313	-3.232505
O	0.60706	1.985126	-1.66405
N	-0.399849	-1.228745	0.698871
H	0.429027	-1.604075	1.145395
H	-1.091428	-1.037336	1.41191
C	-0.507462	1.186844	0.695826
N	-1.011749	2.069015	1.286852
Br	3.429907	0.0	0.0
