17

C	-0.589308	0.093112	-1.426117
C	0.0	0.0	0.0
Br	0.205694	-1.283357	-2.531382
H	1.093771	0.0	0.0
C	-2.095028	-0.058352	-1.444844
H	-2.333964	-1.053365	-1.071464
H	-2.558458	0.700878	-0.813328
H	-2.475821	0.048871	-2.461488
N	-0.199609	1.454468	-2.002592
O	-1.04821	2.340319	-1.880457
O	0.91614	1.593826	-2.479812
N	-0.408706	-1.26835	0.608168
H	0.414869	-1.683391	1.027351
H	-1.102576	-1.124837	1.328944
C	-0.469954	1.143024	0.792365
N	-0.904439	1.998428	1.471961
Br	3.414144	0.0	0.0
