14

C	-0.209275	-0.005555	-1.5103
C	0.0	0.0	0.0
F	-1.567249	-0.064971	-1.858326
H	1.097301	0.0	0.0
H	0.170211	0.952098	-1.878581
C	0.549627	-1.151811	-2.136724
H	1.573445	-1.083298	-1.75439
H	0.532169	-1.078227	-3.227558
H	0.105165	-2.105477	-1.839804
C	-0.500429	-1.210135	0.627829
N	-0.889582	-2.206398	1.115649
C	-0.53737	1.192632	0.627716
N	-0.951839	2.179391	1.114033
F	2.512656	0.0	0.0
