14

C	-0.211618	-0.008391	-1.510238
C	0.0	0.0	0.0
F	-1.56993	-0.071912	-1.855393
H	1.097211	0.0	0.0
H	0.163374	0.950052	-1.881398
C	0.549818	-1.151682	-2.137124
H	1.572669	-1.082235	-1.756064
H	0.531181	-1.077246	-3.226721
H	0.108612	-2.106185	-1.840365
C	-0.498396	-1.210158	0.629968
N	-0.887961	-2.205601	1.119134
C	-0.538213	1.192263	0.62797
N	-0.953461	2.178028	1.115812
F	2.513528	0.0	0.0
