14

C	-0.212131	-0.010328	-1.51004
C	0.0	0.0	0.0
F	-1.570597	-0.071426	-1.854697
H	1.097379	0.0	0.0
H	0.16513	0.946474	-1.883014
C	0.546408	-1.156712	-2.134748
H	0.102617	-2.109422	-1.836451
H	0.528206	-1.083986	-3.224473
H	1.569429	-1.089206	-1.753711
C	-0.498417	-1.209053	0.63201
N	-0.88423	-2.204989	1.123229
C	-0.537521	1.193566	0.626026
N	-0.952888	2.180827	1.110688
F	2.513225	0.0	0.0
