14

C	-0.374271	-0.01282	-1.486632
C	0.0	0.0	0.0
F	0.121827	1.154804	-2.058533
H	1.096206	0.0	0.0
H	0.167956	-0.848606	-1.940481
C	-1.858279	-0.067742	-1.776787
H	-2.032475	-0.057203	-2.855749
H	-2.346819	0.805353	-1.337072
H	-2.302057	-0.971866	-1.354357
C	-0.464663	-1.220365	0.632378
N	-0.842478	-2.230922	1.101599
C	-0.536611	1.170596	0.669667
N	-0.976034	2.126925	1.194637
F	2.467498	0.0	0.0
