18
Coordinates from ORCA-job run
  C   -0.73786103113948      0.00700980431854     -0.17966339192228
  C   0.67788039383265      0.25583105702696      0.32383505461322
  F   -0.85576545569850      0.54660480332235     -1.43482609408523
  H   0.70264107544571     -0.09664432668000      1.35831701290379
  C   -1.21513492192983     -1.42308415481988     -0.20929493662323
  H   -0.64462283678190     -1.98210535684867     -0.95077795386166
  H   -2.26802481682294     -1.44598154851391     -0.49738629285439
  H   -1.10199670444567     -1.88486147881753      0.77079863043553
  N   -1.67334830670050      0.79387793758411      0.72542947972887
  O   -2.36326286745316      1.67065317438015      0.23104454997668
  O   -1.66127479625066      0.44135194981983      1.90080949758370
  N   0.85864020804843      1.70151464551357      0.35432714741105
  H   1.70313920175487      1.93850330444493      0.85843462660529
  H   0.94235748639878      2.06114781368004     -0.58914711738169
  C   1.70584109848144     -0.50842452406935     -0.50953343387998
  H   2.71048216025442     -0.24467830355330     -0.17129560825940
  H   1.59904348190120     -1.59181147515142     -0.41631839493157
  H   1.62026663110513     -0.23790332163640     -1.56475277545869
