18
Coordinates from ORCA-job run
  C   -0.76874719990874     -0.42887817572545     -0.25519780418809
  C   0.72379309657890     -0.15466864531762     -0.48173587306702
  F   -1.08305128590477     -1.56398563530577     -0.95823518039206
  H   0.83997113271948     -0.19707121260070     -1.57147920892286
  C   -1.21925913017386     -0.59346574529038      1.16735949069532
  H   -0.67696170499349     -1.44156915194218      1.58201324284801
  H   -1.02360072722514      0.29959846526352      1.75690490353586
  H   -2.29054200162138     -0.79757408942980      1.18779412287043
  N   -1.52629553771463      0.69646608154669     -0.93898925910589
  O   -1.96542570425681      1.59769604630605     -0.22746378241953
  O   -1.58249896892783      0.65371354630534     -2.16355451224222
  N   1.46183307900685     -1.24362567025487      0.15460334314720
  H   1.93045709326506     -1.81935160201902     -0.52909939067624
  H   2.15085663460980     -0.88414358182337      0.80071897505383
  C   1.16374569932851      1.21226340622173      0.02153325068020
  H   0.61702656215463      2.02921813763895     -0.45054884723111
  H   1.02422562076818      1.29154169862872      1.10299187634357
  H   2.22547334229521      1.34583612779816     -0.19661534692938
