18
Coordinates from ORCA-job run
  C   -0.68486010938084     -0.01722649175430     -0.15544481152777
  C   0.76977895318480      0.22018082425409      0.27223265813694
  F   -0.87714034942731      0.54189539300988     -1.39086492790629
  H   0.87246575104374     -0.19497625137957      1.27854548923615
  C   -1.18067593152056     -1.44130868372258     -0.16850660040743
  H   -2.24995999135254     -1.45517667169188     -0.38981459226050
  H   -0.66171794200215     -1.99551691494822     -0.95002725308214
  H   -1.00837413166616     -1.91588680547553      0.79669968411407
  N   -1.55176520208611      0.77334512181340      0.81137979912975
  O   -1.49947029360771      0.39273937909474      1.97873986684519
  O   -2.19878260312278      1.71946253474170      0.38410184367583
  N   1.11396259924555      1.63168890354475      0.34118507045876
  H   0.64926090137502      2.08996496656643      1.11522787208658
  H   0.84206999985367      2.10051651056400     -0.51513235771551
  C   1.72876662145460     -0.48847181228318     -0.67607671511005
  H   2.74783643508697     -0.25931003271140     -0.36513429920184
  H   1.59593760683207     -1.57169021276683     -0.66724634412073
  H   1.59366768608975     -0.12922975685550     -1.69886438235103
