18
Coordinates from ORCA-job run
  C   -0.67607212830721     -0.45912227948578     -0.24751109340376
  C   0.80967987433134     -0.18970795482099      0.02989143285393
  F   -0.74667050252493     -1.29223207317247     -1.33504065534105
  H   1.24334729957251     -1.20183900936132      0.06799005890739
  C   -1.43188416900705     -1.07188897961280      0.89996612232700
  H   -0.95518263945707     -2.01806750095249      1.16650429079158
  H   -2.46063255475427     -1.27375424171643      0.59700066146546
  H   -1.43618398810516     -0.39846624561026      1.75297294937043
  N   -1.35055493018557      0.83698110140475     -0.66625917794036
  O   -1.35310258148385      1.10289380769388     -1.86423640079485
  O   -1.80455920166488      1.53849893206325      0.23206754158296
  N   0.95024062145562      0.53959560127979      1.28098623806584
  H   1.79380282755287      1.09690197744996      1.27083926037985
  H   1.00049349257579     -0.08890838603921      2.07174859971232
  C   1.47503436903954      0.57418041220599     -1.10510325551214
  H   1.22662179894730      0.14390739936056     -2.07423848116409
  H   1.15575217682524      1.61883466799912     -1.09888920980131
  H   2.55987023518977      0.54319277131444     -0.97668888149918
