18
Coordinates from ORCA-job run
  C   -0.66076599069659     -0.47297153373556     -0.26352612733937
  C   0.81301371323773     -0.16982097667526      0.04181386909400
  F   -0.69299423649925     -1.29504125821839     -1.36138453665860
  H   1.27110393434611     -1.17114077061275      0.07861737614157
  C   -1.41883870780317     -1.11776113253593      0.86465726901436
  H   -1.45393543594073     -0.45426663933670      1.72467107806867
  H   -2.43704431275689     -1.34253315956687      0.54283586322036
  H   -0.92213295862240     -2.05433686956544      1.12854153503840
  N   -1.36026696041889      0.81074514289090     -0.67918272347400
  O   -1.34383058982181      1.09286385232087     -1.87338050883217
  O   -1.85240949532468      1.48764820978352      0.21792433604519
  N   0.91302805727636      0.55097920440882      1.30173033799244
  H   0.97132214852400     -0.08310324718849      2.08740927209019
  H   1.73833194134333      1.13495082683967      1.30944180001972
  C   1.47965079832843      0.62013027793335     -1.07444690295269
  H   1.25856442406027      0.19270407427026     -2.05143371705939
  H   1.13572549083391      1.65688630021963     -1.06530846054302
  H   2.56247817993428      0.61306769876839     -0.92697975986567
