18
Coordinates from ORCA-job run
  C   -0.60647602085441     -0.46587076939405     -0.27092293010258
  C   0.88688863934086     -0.21789411580795      0.03432853969974
  F   -0.68008990722068     -1.27374709280764     -1.37275307007384
  H   1.30993737431546     -1.22992054731367      0.03533807602299
  C   -1.41648118568233     -1.07717099795291      0.84285177831092
  H   -1.48746675016277     -0.40138664666258      1.69190764223172
  H   -0.94329338278811     -2.01153859417455      1.15233570203147
  H   -2.42097960110027     -1.30051826421913      0.47808678192215
  N   -1.23554583757310      0.85678843362412     -0.66427612930969
  O   -1.30718444255761      1.68701584586891      0.24245448701513
  O   -1.57634572303780      1.02630535789504     -1.82609181802897
  N   1.18990318647387      0.38616347713029      1.31599939506968
  H   0.89907946577610     -0.20636446509056      2.08291886587640
  H   0.71569627257202      1.27680038771352      1.40478050925000
  C   1.54079406782196      0.58299942283375     -1.08388079744489
  H   1.29846393154914      0.17355568510519     -2.06545840604975
  H   1.21371754679032      1.62635259710210     -1.05294239094320
  H   2.62138236633734      0.56843028615013     -0.94267623547729
