18
Coordinates from ORCA-job run
  C   -0.68989779956710     -0.02577512498425     -0.13083711696997
  C   0.77796674741941      0.23706054502576      0.23228023748453
  F   -0.92432799648035      0.45555041412103     -1.39144811246041
  H   0.91480099926845     -0.11313221524714      1.25903681597416
  C   -1.18259071387469     -1.44803381210378     -0.03847742158743
  H   -2.25969181233958     -1.47575028567700     -0.21627843465743
  H   -0.97145729497034     -1.86348896725126      0.94610192987089
  H   -0.69317849866332     -2.04852914939467     -0.80472345326269
  N   -1.52535611723936      0.82352673725686      0.81339778762962
  O   -1.43444837817234      0.51536900953793      1.99965808381330
  O   -2.18683130520766      1.74242979301953      0.35016411216116
  N   1.12293090332571      1.64962929026517      0.19973976989255
  H   0.68160541968390      2.15726859306068      0.95650343761269
  H   0.82444397010913      2.06264043773182     -0.67624307622962
  C   1.70495401658030     -0.53192164245155     -0.70071497307188
  H   1.57467926588379     -1.61220010596688     -0.61636998131520
  H   2.73382870444372     -0.28321912743526     -0.44128802193268
  H   1.53356988980034     -0.24042438950700     -1.73950158295159
