18
Coordinates from ORCA-job run
  C   -0.61636212806778     -0.46258022267936     -0.25331678278426
  C   0.88545923594217     -0.22560734302927      0.01795540697675
  F   -0.72074030960519     -1.28024167291346     -1.34549984968550
  H   1.29910624850925     -1.24147123862952      0.02112696850479
  C   -1.40788408094039     -1.05585108715518      0.88321734037597
  H   -2.42210200355420     -1.27275259419318      0.54228167038792
  H   -1.45346269126823     -0.37166802003691      1.72729185488480
  H   -0.93691526362549     -1.99183343418924      1.19118825062814
  N   -1.24187468340488      0.86195910214082     -0.64622401557895
  O   -1.60784085399715      1.02246600130079     -1.80157462124250
  O   -1.28594583087175      1.70177534169639      0.25336545962463
  N   1.22068228069376      0.38920174997513      1.28623384408117
  H   0.94542983997184     -0.19436099001215      2.06558401657795
  H   0.75411856372431      1.28354352015811      1.37717512917098
  C   1.52228759043561      0.55736553719398     -1.12270622924199
  H   1.25204244119005      0.14206111297934     -2.09449239710936
  H   1.20826487789703      1.60473362642564     -1.09322687551698
  H   2.60573676697105      0.53126061096809     -1.00737917005355
