18
Coordinates from ORCA-job run
  C   -0.73043143088049     -0.08772892324616     -0.20371427375077
  C   0.70751527477493      0.23389786275347      0.21079465975375
  F   -0.90836892116740      0.18233569336849     -1.52612878266724
  H   0.85116933776924     -0.20047424216566      1.20821606213060
  C   -1.20605528726413     -1.49067552483773      0.09107169303795
  H   -1.14380319125147     -1.69972566557760      1.15873309500346
  H   -2.24200779191331     -1.59275179080433     -0.23817235188335
  H   -0.59835998766462     -2.21004807607479     -0.45830581325291
  N   -1.64489771561181      0.85896034887475      0.55976663944885
  O   -2.49118277685360      1.48253261340659     -0.05978867167353
  O   -1.46230297787855      0.88312029698214      1.77628566200932
  N   0.87291267557304      1.68394353706195      0.20121534834969
  H   1.82548706882726      1.93098905235701     -0.03052718355839
  H   0.65900599878354      2.07231852797034      1.11078301648655
  C   1.68753898653969     -0.39863379880955     -0.76742174422691
  H   2.70847677899881     -0.25706145317881     -0.40463392874989
  H   1.59172049066950      0.07841774552214     -1.74372195162329
  H   1.52358346854938     -1.47041620360225     -0.88545147483389
