18
Coordinates from ORCA-job run
  C   -0.65122966437538     -0.55382567795802     -0.20918869111755
  C   0.82639717642855     -0.16488223650197     -0.26587706192591
  F   -0.72263858890308     -1.90671916626080     -0.45581899292133
  H   1.15870471730026     -0.45656781425930     -1.27396355593797
  C   -1.38849609873961     -0.24907229417122      1.06266030956101
  H   -1.44535108704092      0.82153469568682      1.24213054327262
  H   -0.85461471422797     -0.73162758165916      1.87972907246072
  H   -2.40218631232416     -0.64694494582584      0.99527457201952
  N   -1.32562192912069      0.10967247405567     -1.40241117141354
  O   -1.13656868038459     -0.41158041816765     -2.49593439108263
  O   -1.95551439847284      1.14407332938976     -1.19286700735980
  N   1.49847999145757     -0.90952798659198      0.79386136773645
  H   2.45215326600711     -0.58116029438422      0.88441828836419
  H   1.53164904848139     -1.89282299577496      0.55303657807089
  C   1.05038528329765      1.32522808080498     -0.06887414571348
  H   0.48653987458139      1.92550799152654     -0.78371615871240
  H   0.76895402901537      1.62099847772713      0.94318750306356
  H   2.10995808701996      1.55571636236424     -0.20664705836438
