18
Coordinates from ORCA-job run
  C   -0.71685899037796     -0.32723381599949     -0.39156415375767
  C   0.75734563249991      0.07406526503716     -0.44889775423572
  F   -0.93063869881189     -1.22828958320927     -1.41051160858360
  H   0.89866579684328      0.49438321111264     -1.45645773719650
  C   -1.21313336245883     -0.91859232009528      0.89620167957190
  H   -1.15430669900967     -0.20162691858577      1.71118599044598
  H   -2.25296424724763     -1.22574413773278      0.77461088083713
  H   -0.59487816716033     -1.78557543982351      1.12351744956317
  N   -1.52348172298596      0.90764269738354     -0.76979331499038
  O   -2.02660732890709      1.55627898029271      0.14503061064373
  O   -1.55951901779079      1.19317975163686     -1.96160690778185
  N   1.53352479624085     -1.14137534722941     -0.22466224909220
  H   2.51178712545475     -0.90168674223361     -0.11900858309537
  H   1.45072738474330     -1.75271893325038     -1.02804324711135
  C   1.12407932610948      1.11792957733798      0.59294278672865
  H   0.49507423334812      2.00631291696577      0.52724970596629
  H   1.04050477356997      0.69700496536747      1.59637410958232
  H   2.15967916594051      1.43404587302536      0.44343234250549
