13
Coordinates from ORCA-job run
  C   0.51142486851182     -0.10055840980373      0.21782294455512
  C   -0.82183970756678     -0.02726251478760     -0.08102629964204
  C   0.84811706739171     -0.68482503310748      1.47319252882531
  N   1.08566879562277     -1.16587527492118      2.52316515982352
  C   1.62528699020080      0.36814037996189     -0.67581354630212
  H   1.23231616539206      0.83286450263340     -1.58109232460864
  H   2.26296170510820     -0.47058192372796     -0.96746335209490
  H   2.25125875549452      1.09776145189595     -0.15589748053794
  N   -1.84371590348863     -0.56793606706157      0.67367741874614
  H   -1.59488325882006     -0.82255493912320      1.61955955211348
  H   -2.73473442425380     -0.10237030718971      0.59891650674459
  C   -1.23363962417261      0.56923680975030     -1.32061043048954
  N   -1.58822142942002      1.07296132548089     -2.32343067713298
