13
Coordinates from ORCA-job run
  C   0.51492398604202     -0.15219347242684      0.17261326398222
  C   -0.82605340598536      0.01017682507823     -0.04623858593785
  C   0.88287216519438     -0.96488583184379      1.28369238495564
  N   1.15061110411997     -1.63391705901341      2.21703934938586
  C   1.60727951166459      0.44409844561551     -0.67005437129827
  H   1.19405786143125      1.07718783009629     -1.45637978925462
  H   2.20408149856163     -0.34250834643220     -1.13938739934220
  H   2.27810154187491      1.04908431695307     -0.05495686648482
  N   -1.83448853970298     -0.63260728859166      0.64315996494653
  H   -2.71323169848354     -0.14109894025608      0.69255302367650
  H   -1.55761446892022     -1.06260121718117      1.51488271507667
  C   -1.26524029081951      0.83264306418274     -1.13831231427192
  N   -1.63629926497714      1.51862167381931     -2.01961137543373
