13
Coordinates from ORCA-job run
  C   0.49051698227966     -0.13807025555342      0.36735186542110
  C   -0.83744578406363     -0.00565413358060      0.07562087518181
  C   0.89340575520998     -0.43871198291425      1.69727462114392
  N   1.27458857617705     -0.68390810829133      2.78524532989365
  C   1.53576072675443      0.04491038270519     -0.70014208120049
  H   1.30400568089674     -0.57282991594124     -1.57362994523739
  H   1.59420674295997      1.08991932216507     -1.02582927402529
  H   2.51987963980265     -0.24240363977630     -0.33223899246882
  N   -1.31581808614268      0.23959032750294     -1.19828806930454
  H   -0.68225747157136      0.72143056848222     -1.81751548869960
  H   -2.26148836578175      0.58436405304854     -1.24762975101218
  C   -1.83467303522993     -0.21955779210994      1.08343398145748
  N   -2.68068136129114     -0.37907882573688      1.88634692885036
