13
Coordinates from ORCA-job run
  C   0.52208092713242     -0.15704260661003      0.14887030593169
  C   -0.81909899415333      0.09650945203963      0.05083711327100
  C   0.92600711660365     -1.03068517051142      1.19954583477716
  N   1.21698699185026     -1.76180641812107      2.07776589607183
  C   1.57885810203850      0.41936538953570     -0.75115663824032
  H   2.29146521390300      1.01492641572537     -0.17421506602327
  H   2.13713339845889     -0.37801535201079     -1.24816595772871
  H   1.13543582323412      1.05940500584538     -1.51489015606698
  N   -1.78261541248210     -0.32774725654097      0.94397696275430
  H   -2.70720980130752     -0.45268773170993      0.56238162413422
  H   -1.49613188836234     -1.06816014028151      1.56940729856691
  C   -1.29828893518159      0.95186150416528     -0.99850027546361
  N   -1.70562254173395      1.63507690847436     -1.86585694198422
