13
Coordinates from ORCA-job run
  C   0.52634123437728     -0.14614443306714      0.14566957349747
  C   -0.82268560052519      0.05954928578502      0.04278836336494
  C   0.95157808861156     -1.06730598516583      1.14631538856488
  N   1.25656555500700     -1.84292718509738      1.98036200403747
  C   1.57060366335568      0.52841234327069     -0.69912475973495
  H   2.17641853035906     -0.21402995106912     -1.22473167200824
  H   1.11194632604100      1.18732706539412     -1.43717658047214
  H   2.24293591083932      1.12422389746455     -0.07613705179172
  N   -1.77874328233341     -0.46185194732528      0.89113743656652
  H   -2.69482927759734     -0.59154194098882      0.49149480110858
  H   -1.47211820723652     -1.23001245587591      1.47152080254536
  C   -1.32265677274592      0.96434287085991     -0.95391918004540
  N   -1.74635616815253      1.69095843581521     -1.77719912563277
