13
Coordinates from ORCA-job run
  C   0.53484500871158      0.22858880481962      0.23686062047984
  C   -0.80832110435517      0.23099091650701     -0.01253223388174
  C   1.09132607386319      1.20584467448799      1.10685232838379
  N   1.59659383803535      1.99372550291309      1.82311977160585
  C   1.43303444729739     -0.80456104005262     -0.38876179006587
  H   1.27506263796989     -0.84406830450019     -1.47133575921815
  H   2.48078423326604     -0.56901287369899     -0.20670580112210
  H   1.23982225121777     -1.80233611701638      0.02191462078349
  N   -1.42294197970860     -0.65146262830229     -0.88108079508387
  H   -0.95716165799009     -1.53636309435072     -1.00957065467766
  H   -2.42185936460512     -0.73658457487947     -0.77905807255615
  C   -1.65690405703683      1.23871510534452      0.55348437579066
  N   -2.38428032666539      2.04452362872843      1.00881338956191
