13
Coordinates from ORCA-job run
  C   0.53413980816971     -0.29534730262874     -0.02541070711564
  C   -0.82772209519973     -0.17900158108908     -0.06525382745560
  C   1.12572388100787     -1.57270621297136     -0.23703370350918
  N   1.66097236526678     -2.60640332769470     -0.41926453779861
  C   1.44129065676855      0.89286960125988      0.14209770737320
  H   2.41346850043836      0.58074872280533      0.52368486366874
  H   1.02888210474388      1.62292002379276      0.84668090502438
  H   1.59850494987214      1.39832292739937     -0.81694971168093
  N   -1.51561954362016      1.01965821412592     -0.01957561223322
  H   -2.46277485572097      0.96120943443565      0.32109273402461
  H   -1.00340033369692      1.80140574874739      0.36067247397153
  C   -1.64402384500118     -1.34458432375494     -0.24704165762972
  N   -2.35044159302834     -2.27909192442748     -0.36369892663956
