13
Coordinates from ORCA-job run
  C   0.44883030929063     -0.18935243995050      0.39482165421768
  C   -0.84007713039108      0.05509273563883      0.01376423527949
  C   0.72779646994256     -0.56947156838711      1.73618796451610
  N   1.00915187467235     -0.88403829812066      2.83659966769311
  C   1.58286222980399     -0.04792434997526     -0.58480321785380
  H   2.51340446163445     -0.41924898372275     -0.15711521056434
  H   1.74038525889558      1.00059848813363     -0.86275643520559
  H   1.37555288227997     -0.61644550231595     -1.49696715650300
  N   -1.20245180516229      0.38302471248877     -1.27959143561633
  H   -2.11215069200464      0.80451930953272     -1.38188953392149
  H   -0.48932774894020      0.83307747921938     -1.83266082156110
  C   -1.92258391478421     -0.11493053639635      0.93845795219766
  N   -2.83239219523714     -0.23390104614476      1.67595233732160
