13
Coordinates from ORCA-job run
  C   0.52061534162665     -0.15644553411550      0.15214155350111
  C   -0.81956973160397      0.09828962028088      0.04518942592009
  C   0.92002292263022     -1.00803879290791      1.22253744630933
  N   1.20989985692748     -1.72246483154409      2.11464631906645
  C   1.58230793349188      0.40206981682311     -0.75319270507171
  H   2.27717871161379      1.03078230317759     -0.18989759697359
  H   1.14170413836753      1.00391430477100     -1.54897889919289
  H   2.15947788362464     -0.40652980856411     -1.20892196228902
  N   -1.78685893055859     -0.30482684986711      0.94440893021007
  H   -2.70919398812457     -0.43850521439988      0.55978819908087
  H   -1.50360440675887     -1.03504174489301      1.58339595199780
  C   -1.29359113389938      0.93442801074420     -1.02171613806806
  N   -1.69838859733680      1.60336872049483     -1.90140052449044
