13
Coordinates from ORCA-job run
  C   0.52259330980107     -0.12619896216004      0.17181981238002
  C   -0.82569053110885      0.04249609283603      0.01032300200137
  C   0.93164592159947     -0.97955404487320      1.23713394155938
  N   1.23113689168607     -1.69782461547177      2.12296397233634
  C   1.58271095744338      0.52800036368944     -0.66887978588474
  H   1.13802608859134      1.11833406226454     -1.47114781832918
  H   2.20460648201940      1.18856862520298     -0.05879193801190
  H   2.23595556675293     -0.22639197928857     -1.11482428059633
  N   -1.80217608131356     -0.44954630586448      0.85326287222281
  H   -1.49914164010768     -1.17513430627088      1.48826481411681
  H   -2.69622340285799     -0.63206915628405      0.42468256677385
  C   -1.30746510244274      0.87365984646100     -1.05706905332139
  N   -1.71697846006286      1.53566037975900     -1.93973810524704
