13
Coordinates from ORCA-job run
  C   0.50428425574337      0.11779989704774      0.35647270305508
  C   -0.77907945378750      0.30703978587001     -0.07159698513105
  C   0.97552563464741      0.81674481684817      1.50148924713590
  N   1.40767372615269      1.37034060523363      2.44804036805952
  C   1.42378565637417     -0.83272437619833     -0.36235692869793
  H   1.43576310892078     -0.61566584621633     -1.43529700559974
  H   1.10680979679327     -1.87341681093544     -0.22741470677837
  H   2.44239045693844     -0.74627165766247      0.01370876079714
  N   -1.30115103888096     -0.29706425511835     -1.20035858583384
  H   -2.30694273975378     -0.30184520074560     -1.26365057189148
  H   -0.88083192320409     -1.17651127015604     -1.45876228957732
  C   -1.64267053568704      1.24174253186114      0.58870938310765
  N   -2.38555694425675      1.99083178017188      1.11101661135444
