13
Coordinates from ORCA-job run
  C   0.52333757533203     -0.13475235349503      0.16261772546504
  C   -0.82491984364741      0.05260995156648      0.02312708180075
  C   0.93718747826635     -1.01205639193462      1.20634326622050
  N   1.24173757542955     -1.74952196814970      2.07450641589697
  C   1.57968443845837      0.51882749537825     -0.68344706246759
  H   2.21916961070021      1.16111856519506     -0.07203734896476
  H   2.21623927788498     -0.23605388598023     -1.15179166481307
  H   1.13096752853284      1.12864288679639     -1.46872149935695
  N   -1.79533225087844     -0.44063520712984      0.87203712362420
  H   -2.69829812822267     -0.60507958098453      0.45527326566585
  H   -1.49223167665455     -1.17851266207119      1.49256225850124
  C   -1.31169670694200      0.90764311035406     -1.02295156071411
  N   -1.72684487825926      1.58977004045489     -1.88751800085807
