13
Coordinates from ORCA-job run
  C   0.47880690651746     -0.01926169530500      0.40520411932629
  C   -0.81232500062541      0.21623905316882      0.02398929082378
  C   0.93267198978546      0.45105131541838      1.66675047277552
  N   1.34859318347899      0.84013481972054      2.69954639034779
  C   1.43819989538638     -0.72202744724561     -0.51529767854332
  H   0.97644640495871     -1.61960506627188     -0.94025333043940
  H   1.74361581788139     -0.06930380466148     -1.34155354481736
  H   2.34013873087052     -1.02154423925498      0.01611107901991
  N   -1.33973197173988     -0.21515807606921     -1.17857866927205
  H   -2.21281362918179      0.20532312833630     -1.45398955949038
  H   -0.68029669422234     -0.32071084329839     -1.93321579879469
  C   -1.72689603496773      0.86857618107077      0.91550865462419
  N   -2.48540959814175      1.40728667439175      1.63577857443973
