13
Coordinates from ORCA-job run
  C   0.53597507070793      0.24934831726283      0.21407707993929
  C   -0.81615733891585      0.20488685572144      0.01222301201344
  C   1.07833983005230      1.19626639153925      1.12516902811884
  N   1.56345473066536      1.95814602518466      1.88289528258084
  C   1.45146704992825     -0.72659135337775     -0.47462885288817
  H   2.49094874454420     -0.42562506277584     -0.36165684271508
  H   1.34648239005112     -1.73266788118996     -0.05239995545614
  H   1.22441853156445     -0.77903360321239     -1.54365327521715
  N   -1.42669628786743     -0.66869507466933     -0.86777318527057
  H   -0.93450870887076     -1.53225125857366     -1.04606071076916
  H   -2.42086735688034     -0.78479340260026     -0.75175139951090
  C   -1.67998049338076      1.14667352308247      0.66289024304821
  N   -2.41387616159847      1.89433652360853      1.19966957612653
