13
Coordinates from ORCA-job run
  C   0.50951559429753     -0.06543746713180      0.23442641288828
  C   -0.81549435014315     -0.08320627580978     -0.10677303847847
  C   0.84450729971311     -0.61730073547263      1.50469726135555
  N   1.08145043749875     -1.07471468178488      2.56536108404292
  C   1.61750182571348      0.47211682799897     -0.62716938687957
  H   1.22343526051182      0.90398244854784     -1.54794473957845
  H   2.17601277391253      1.24538036180356     -0.09372260632221
  H   2.31908814178153     -0.32331570430030     -0.89232328525571
  N   -1.82253417579064     -0.68677470349638      0.62009812150891
  H   -1.58721165477998     -0.91407597132554      1.57654143600704
  H   -2.73953474247868     -0.28174411951865      0.51358510474357
  C   -1.22612283451110      0.47634449829322     -1.36390267290888
  N   -1.58061357572520      0.94874552219636     -2.38187369112298
