13
Coordinates from ORCA-job run
  C   0.53370234754976      0.15118821256790      0.29406827121719
  C   -0.77710192824012      0.31751046947692     -0.05270610800764
  C   1.11275681775970      0.99043287102743      1.28506837806361
  N   1.63475084821875      1.65834050129198      2.10397391073772
  C   1.37142906340397     -0.92066534009261     -0.35012725698312
  H   1.04428399805133     -1.92096931542272     -0.04359769249657
  H   1.30204237411213     -0.85766161863755     -1.44086338394689
  H   2.41859415623709     -0.81507706823912     -0.06950146237996
  N   -1.40440406565242     -0.42555867156541     -1.03513260654023
  H   -2.41187998538785     -0.40987299629449     -1.01463162884937
  H   -1.02204825271265     -1.34397126782928     -1.19977748913864
  C   -1.56235710088872      1.36594473800026      0.53032769333547
  N   -2.23976827245097      2.21035948571668      0.99289937498843
