13
Coordinates from ORCA-job run
  C   0.50612245628914      0.12309093279979      0.35073085844806
  C   -0.80436109925622      0.24456722367312     -0.01530685906707
  C   1.03752166198815      0.97148296648537      1.36037303808698
  N   1.52331938874176      1.65453036457158      2.18902155719314
  C   1.40055643961416     -0.89128322681571     -0.31040460652362
  H   1.60173017980867     -0.62541144766758     -1.35454508870069
  H   2.35797778355498     -0.95668777099839      0.20477620366638
  H   0.93570019013776     -1.88224422864457     -0.29286987616796
  N   -1.41155250911971     -0.57058877971442     -0.95278742998603
  H   -0.79969369115665     -0.96783572762035     -1.64899079061786
  H   -2.27584809197801     -0.22077857822645     -1.33539921270190
  C   -1.66713951507079      1.17966211862110      0.64547987968697
  N   -2.40433319355324      1.94049615353654      1.15892232668362
