13
Coordinates from ORCA-job run
  C   0.51640983320957     -0.15856100542809      0.16500639505654
  C   -0.82555129168010      0.02846069837650     -0.02646707133914
  C   0.89248321031270     -0.93088550803224      1.30190265310064
  N   1.16209367343804     -1.56676128705722      2.25759640582206
  C   1.60010638963142      0.37183109681488     -0.73119307561776
  H   1.18140821845384      0.97824975448334     -1.53541903402435
  H   2.16634198980419     -0.44975816209538     -1.17784327077185
  H   2.29991583813807      0.98815168228978     -0.16143127811038
  N   -1.83060744506129     -0.55686321832390      0.71712059443967
  H   -2.69426400855366     -0.03946340855930      0.76807581643619
  H   -1.54021308697448     -0.95434398787208      1.59976878515209
  C   -1.27425811396490      0.81519229519793     -1.14079734606196
  N   -1.65686520675340      1.47475105020577     -2.03731957408175
