13
Coordinates from ORCA-job run
  C   0.50117626932302     -0.10456064174211      0.23739124415085
  C   -0.81854329316340     -0.02362825275917     -0.11568950062909
  C   0.78558028544758     -0.71368547771674      1.49349679847022
  N   0.98035359998986     -1.21539554998663      2.54279617809380
  C   1.65107470979468      0.38363115320315     -0.59834975526823
  H   2.29588538355601     -0.44967835529906     -0.89046360160264
  H   1.29557032380006      0.87638659057261     -1.50424878701831
  H   2.25995064728907      1.09407426096338     -0.03368087977458
  N   -1.87039885767581     -0.58443555131450      0.58003110058944
  H   -1.65820338915572     -0.87589832877934      1.52395957131132
  H   -2.75792187586700     -0.11562793367084      0.48686720490446
  C   -1.17736783678306      0.60039005553692     -1.35839832452818
  N   -1.48815596655527      1.12942803099234     -2.36271124869907
