13
Coordinates from ORCA-job run
  C   0.50976610077971      0.14772160621423      0.33569790428006
  C   -0.79973911783455      0.25737379292344     -0.03738736355978
  C   0.98420904801793      0.87205672925400      1.46335377810394
  N   1.42207384067592      1.45007155544090      2.39252087535554
  C   1.45578004160779     -0.74228799465323     -0.42480735886000
  H   2.48126467792656     -0.59584520407349     -0.08791139841206
  H   1.41314560513026     -0.52028781528393     -1.49600678941992
  H   1.20743568323458     -1.80069214981872     -0.28459138412646
  N   -1.33053745399029     -0.37467828765508     -1.14661750785695
  H   -0.86495063785625     -1.22274182299448     -1.43091491711306
  H   -2.33566573056659     -0.44568114766650     -1.16574226319756
  C   -1.69068909581534      1.13607144035681      0.66266905776940
  N   -2.45309296130973      1.83991929795605      1.21873736703685
