13
Coordinates from ORCA-job run
  C   0.53838443828487      0.18039548083499      0.27521857024538
  C   -0.79485839234766      0.26509870303502     -0.01074786755608
  C   1.09796239197191      1.04148708246315      1.25897623367728
  N   1.59374152249139      1.74146486922471      2.06687205129757
  C   1.41290117529825     -0.82306578180015     -0.42569994100087
  H   2.46207505403953     -0.67862432217518     -0.17017739749746
  H   1.31129427474636     -0.72356727548256     -1.51171321135316
  H   1.14130636540049     -1.84953914844402     -0.15215682337530
  N   -1.41553951245700     -0.49203912946290     -0.98725147623306
  H   -0.97123002395472     -1.36968559265936     -1.20882856933248
  H   -2.41729790582626     -0.56624826166583     -0.90339335496017
  C   -1.62270647800346      1.24382689259528      0.63131816271591
  N   -2.33603290964370      2.03149648353686      1.13758362337243
