13
Coordinates from ORCA-job run
  C   0.52895818386577      0.13814989472428      0.30897386302200
  C   -0.78026219136437      0.31026498371628     -0.04079361001605
  C   1.08576184436064      0.91789977717592      1.35931049137695
  N   1.58769849487183      1.53768758718226      2.22700646449300
  C   1.38785646656035     -0.87712508973662     -0.39584824970332
  H   1.32156986965902     -0.74761924142897     -1.48080869996833
  H   2.43182560253713     -0.77118818672367     -0.10385030959540
  H   1.07708999015181     -1.89999681602958     -0.15379607207291
  N   -1.38678632930101     -0.37296201957957     -1.07866077391609
  H   -0.99205345842556     -1.27471513716479     -1.29752801487679
  H   -2.39456058661730     -0.37017218566826     -1.06958689237799
  C   -1.58639271533606      1.30532456615961      0.60405861315589
  N   -2.27970517096227      2.10445186737310      1.12052319047904
