13
Coordinates from ORCA-job run
  C   0.52554181828494      0.11552447727469      0.32472164129896
  C   -0.78592892323955      0.29883705391920     -0.01083717528450
  C   1.15038994206802      1.00677066783332      1.23934991409565
  N   1.71391835082864      1.72179181352231      1.98791321492334
  C   1.32320683982725     -1.01238351141823     -0.27295764493488
  H   0.79627557253389     -1.96383536911889     -0.14881276264239
  H   1.49600425428473     -0.85373151999515     -1.34366592629354
  H   2.29604259455964     -1.09793987910749      0.20941682000031
  N   -1.48225094225948     -0.54751644996990     -0.85309951909964
  H   -2.33342054174654     -0.17200270208485     -1.24039803684838
  H   -0.92557321984441     -1.05488326944316     -1.52340422104128
  C   -1.55611890064288      1.35073384886278      0.58597864333405
  N   -2.21808684465423      2.20863483972537      1.04579505249231
