13
Coordinates from ORCA-job run
  C   0.53609547305242      0.18314435428313      0.27136307085091
  C   -0.82002728775487      0.14956954061113      0.11030178584879
  C   1.11360411571866      1.09682829029165      1.19502543770753
  N   1.63793474225775      1.83901652356790      1.94562550430023
  C   1.42961771449720     -0.72719617301139     -0.52751380021341
  H   1.09092961835944     -1.76500789222285     -0.44554360859081
  H   1.43398600957232     -0.45158378486684     -1.58846275677737
  H   2.45667139036094     -0.67560731445137     -0.16844601465834
  N   -1.46467001976462     -0.73889047172810     -0.73040910165814
  H   -0.92353778237538     -1.07033181596802     -1.51411034352634
  H   -2.41208467053035     -0.49632470637197     -0.97363330312054
  C   -1.67359455926183      0.98801863698336      0.90035868753697
  N   -2.40492474413167      1.66736481288338      1.52444444230051
