13
Coordinates from ORCA-job run
  C   0.51388034604703     -0.05543635973752      0.23069434229697
  C   -0.82367819716463      0.03469835008295     -0.04269808835787
  C   0.86477782529780     -0.43928989987045      1.55701725456139
  N   1.11527347947792     -0.77068014414847      2.66056415490395
  C   1.61696748786540      0.24307048291609     -0.74589736642902
  H   2.27732558936573     -0.62082197064343     -0.85753613253909
  H   2.22127867355975      1.08372896957594     -0.39369235566650
  H   1.21383163879927      0.49879922051978     -1.72727667112796
  N   -1.84241363255623     -0.10218742784423      0.87679942527529
  H   -1.58695293982060     -0.52512588726250      1.75794125497240
  H   -2.72851774851169     -0.40953232274141      0.50972499836514
  C   -1.24457849843806      0.39313239526983     -1.36842867001246
  N   -1.59619402392168      0.66864459388343     -2.45721214624224
