13
Coordinates from ORCA-job run
  C   0.54572884785928      0.15229528992384      0.27165830667567
  C   -0.79629194734236      0.26564556510879      0.04298480146236
  C   1.14814508528974      0.90271921959293      1.31824503883715
  N   1.69008316804078      1.50097581017727      2.17707952257519
  C   1.39366563057509     -0.77136775380485     -0.56090538335980
  H   2.45174200133711     -0.62127220300026     -0.35043874500628
  H   1.22702319778514     -0.58641993707175     -1.62696916574090
  H   1.15959343785216     -1.82240171383040     -0.35539553253209
  N   -1.45160393306001     -0.39634953728477     -0.97838403508654
  H   -2.45434378036564     -0.44547368636166     -0.89247349567596
  H   -1.03312121208243     -1.26417934050242     -1.27548814292575
  C   -1.59589145874134      1.17707078184495      0.80838412530041
  N   -2.28572903714753      1.90775750520832      1.42170270547652
