13
Coordinates from ORCA-job run
  C   0.53978259592555      0.12845972331819      0.29487961112878
  C   -0.81931156074515      0.10168450853656      0.15879521749508
  C   1.12536341989399      0.82701703991543      1.38606163829102
  N   1.65601213915802      1.39652925111320      2.27110982726349
  C   1.42819073340326     -0.55836877559291     -0.70730294199307
  H   2.46188788704273     -0.57059913564209     -0.36425174432914
  H   1.40555432519545     -0.04773390732178     -1.67704146701487
  H   1.10562342622184     -1.59348009086878     -0.85868539309084
  N   -1.46889048458369     -0.58802806341137     -0.84786846554301
  H   -2.42956074783477     -0.32749460561887     -1.00432400937912
  H   -0.94504119906199     -0.71279178430768     -1.70022516719534
  C   -1.66621169225662      0.72110495861338      1.13605650071544
  N   -2.39239884235862      1.22470088126670      1.91379639365159
