13
Coordinates from ORCA-job run
  C   0.51503184928921      0.02079049602862      0.22868915817592
  C   -0.82775394275726     -0.01568093805745     -0.03097042550414
  C   0.91273626925013     -0.26393394352707      1.56654419280124
  N   1.21064085346596     -0.51277618733587      2.68024717929465
  C   1.58427775200929      0.30975580467359     -0.78693292857847
  H   1.14769189231340      0.53530595321478     -1.75983649429390
  H   2.24299628894595     -0.55617820106450     -0.89966964147907
  H   2.20376499786573      1.15308017196679     -0.47086226713999
  N   -1.81971612633034     -0.18963566715845      0.91519460656252
  H   -1.50767888451510     -0.57977200196933      1.79365101362719
  H   -2.67438592294255     -0.60402606583902      0.57684699179335
  C   -1.29559772097873      0.24887104691376     -1.36241450661412
  N   -1.69100730561569      0.45419953215415     -2.45148687864516
