13
Coordinates from ORCA-job run
  C   0.52659630765545      0.14852193162553      0.30965826692811
  C   -0.80033045059529      0.25747716434189      0.00374494650931
  C   1.12737108269547      1.09258120907177      1.18668724009544
  N   1.66953194194623      1.85522706443554      1.90327416888671
  C   1.36644133316115     -0.95029688279046     -0.28447071595495
  H   2.35440202283675     -0.97460525480928      0.17362444540421
  H   0.89229786242883     -1.92413269082310     -0.12598654480085
  H   1.50343737944031     -0.80789728686969     -1.36273336568651
  N   -1.47200378823031     -0.64242443150308     -0.80251613425363
  H   -0.90637764299031     -1.13216107843125     -1.47835420145320
  H   -2.35107884564171     -0.31980840713551     -1.17502830500893
  C   -1.60869322125798      1.28194346889904      0.59785306033649
  N   -2.30159398144858      2.11657519398860      1.05524713899782
