13
Coordinates from ORCA-job run
  C   0.50873582268594     -0.05301790315058      0.24067099423876
  C   -0.82254924898507      0.05059860438605     -0.05871567267527
  C   0.83039282893284     -0.43228326120351      1.57604109325294
  N   1.05526952372927     -0.75678757714547      2.68710399887458
  C   1.63393928288718      0.21433281416575     -0.71907405490861
  H   1.25230405619936      0.45103640375308     -1.71311044450460
  H   2.24235378747769      1.05482586020432     -0.37474644107322
  H   2.28631095114808     -0.65910904744447     -0.79824477613245
  N   -1.85926288050151     -0.06904110327594      0.84489807207262
  H   -2.73463161144734     -0.39389171361830      0.46508997172511
  H   -1.61552328101104     -0.49357286290434      1.72908258628708
  C   -1.21805848866860      0.40721885275403     -1.39240675534228
  N   -1.55828074244680      0.67969093347938     -2.48558857181465
