13
Coordinates from ORCA-job run
  C   0.53565303290339      0.17393495736667      0.27834695520673
  C   -0.79900085256980      0.26204575513730      0.00089745475909
  C   1.09983841959202      0.99273378429521      1.29444197915167
  N   1.61151632870905      1.64692223810203      2.13069270368508
  C   1.41546116028106     -0.79330208285294     -0.46721955899763
  H   1.17876104103403     -1.83114150093565     -0.20566115127074
  H   2.46513214606632     -0.62426513710740     -0.23038519833124
  H   1.28539731476341     -0.67490739269152     -1.54770808599991
  N   -1.41794294083701     -0.46598918175648     -0.99823932253903
  H   -2.42183628724106     -0.52519161100021     -0.93406340176721
  H   -0.97977062711582     -1.34287419273905     -1.23562223439965
  C   -1.62867146405833      1.21098655971236      0.68382088125957
  N   -2.34353727152728      1.97104780446969      1.22869897924326
