13
Coordinates from ORCA-job run
  C   0.52542409908192     -0.11894338438318      0.17311116615038
  C   -0.82457247221957      0.04157270362071      0.01623086980159
  C   0.94155519380290     -0.96695190572759      1.23995935972236
  N   1.24199784311443     -1.68538181087774      2.12518925502929
  C   1.57830123266295      0.52809907295248     -0.68212575742699
  H   2.21123146808291      1.18678010421522     -0.08129331838271
  H   1.12585647322622      1.12047602402575     -1.47856676145725
  H   2.22184284464516     -0.22897501154797     -1.13711905588535
  N   -1.79457055522850     -0.44875734765594      0.86703447563855
  H   -2.69205631459065     -0.63348999830614      0.44718623973497
  H   -1.48650646452347     -1.16836058623397      1.50635665056648
  C   -1.31555738455992      0.86207892074383     -1.05513079446792
  N   -1.73394596349437      1.51185321917456     -1.94283232902339
