14

C	-0.377967	-0.038683	-1.482399
C	0.0	0.0	0.0
Br	0.108926	1.707898	-2.266783
H	1.093908	0.0	0.0
C	0.368071	-1.052115	-2.239574
N	0.890433	-1.835579	-2.945186
C	-1.816192	-0.212753	-1.682237
N	-2.978265	-0.312973	-1.837052
N	-0.373818	-1.22192	0.671467
O	-0.29478	-1.230705	1.90684
O	-0.583537	-2.221075	-0.040713
C	-0.49107	1.151079	0.71062
N	-0.832657	2.114954	1.293991
H	2.314631	0.0	0.0
