14

C	-0.336299	-0.019154	-1.47942
C	0.0	0.0	0.0
Br	-2.279442	-0.311025	-1.822764
H	1.095096	0.0	0.0
C	-0.011733	1.288368	-2.054959
N	0.22958	2.336903	-2.52955
C	0.392762	-1.042573	-2.236034
N	0.957409	-1.784006	-2.953486
N	-0.350148	-1.215832	0.686053
O	-0.377049	-2.255118	0.008763
O	-0.422848	-1.167223	1.921017
C	-0.493014	1.168481	0.678304
N	-0.82861	2.15889	1.219462
H	2.302856	0.0	0.0
