14

C	-0.422835	0.136762	-1.455812
C	0.0	0.0	0.0
Br	0.579864	-1.130946	-2.62851
H	1.092285	0.0	0.0
C	-1.849198	-0.081889	-1.676951
N	-3.004677	-0.178532	-1.881051
C	-0.068934	1.472504	-1.941787
N	0.152077	2.565574	-2.317642
N	-0.475712	-1.214478	0.628203
O	-0.298023	-1.290221	1.851155
O	-0.909586	-2.12925	-0.092689
C	-0.381332	1.14917	0.786289
N	-0.608887	2.124642	1.4051
H	2.308742	0.0	0.0
