14

C	-0.422199	0.061232	-1.456942
C	0.0	0.0	0.0
Br	0.338876	-1.55866	-2.339422
H	1.092263	0.0	0.0
C	-1.854884	0.104184	-1.720806
N	-2.984104	0.27046	-2.019458
C	0.206325	1.183971	-2.145477
N	0.643387	2.069005	-2.797775
N	-0.547209	-1.219276	0.660276
O	-1.543438	-1.758182	0.158332
O	0.051607	-1.583668	1.668578
C	-0.469311	1.114704	0.786824
N	-0.826091	1.975761	1.503772
H	2.457013	0.0	0.0
