14

C	-0.353581	-0.056166	-1.488686
C	0.0	0.0	0.0
Br	0.090906	1.699996	-2.274305
H	1.09363	0.0	0.0
C	0.438076	-1.049986	-2.22976
N	0.986345	-1.815538	-2.935509
C	-1.778832	-0.283982	-1.718374
N	-2.927536	-0.449895	-1.906436
N	-0.369606	-1.222304	0.671796
O	-0.324026	-1.223282	1.909276
O	-0.543998	-2.229458	-0.039923
C	-0.506436	1.151087	0.698427
N	-0.85913	2.116051	1.274276
H	2.311912	0.0	0.0
