14

C	-0.445224	-0.024414	-1.459556
C	0.0	0.0	0.0
Br	0.198285	1.652258	-2.293878
H	1.09373	0.0	0.0
C	0.150577	-1.125272	-2.224771
N	0.592061	-1.966065	-2.918577
C	-1.900741	-0.035511	-1.596176
N	-3.071975	-0.002564	-1.702472
N	-0.386373	-1.208932	0.697657
O	-0.161675	-1.235995	1.913651
O	-0.776227	-2.175691	0.016212
C	-0.456419	1.160869	0.721806
N	-0.779105	2.116127	1.329554
H	2.329119	0.0	0.0
