14

C	-0.382699	0.001913	-1.46445
C	0.0	0.0	0.0
Br	-2.344999	-0.270968	-1.74276
H	1.097246	0.0	0.0
C	-0.075745	1.313102	-2.039653
N	0.142198	2.366036	-2.515806
C	0.309246	-1.017782	-2.25801
N	0.869257	-1.742128	-2.995938
N	-0.335885	-1.224341	0.681132
O	-0.396038	-2.254094	-0.008164
O	-0.366195	-1.189178	1.918884
C	-0.475464	1.159371	0.706897
N	-0.809979	2.156754	1.234951
H	2.301117	0.0	0.0
