17

C	-0.396066	0.035561	-1.482366
C	0.0	0.0	0.0
F	-0.058263	-1.189803	-2.048042
H	1.096647	0.0	0.0
C	-1.859622	0.184127	-1.640208
N	-3.018314	0.333348	-1.761784
C	0.351398	1.117694	-2.239393
H	0.177736	0.985516	-3.30921
H	0.009388	2.111727	-1.948321
H	1.416053	1.013137	-2.015128
C	-0.515002	-1.213668	0.626831
N	-0.947491	-2.160826	1.170492
C	-0.461832	1.239634	0.770842
H	-0.15455	1.143208	1.813239
H	-1.547631	1.365436	0.734399
H	0.024715	2.129862	0.369768
Br	3.483108	0.0	0.0
