17

C	-0.39674	-0.044384	-1.479282
C	0.0	0.0	0.0
F	-1.789842	-0.181593	-1.584918
H	1.096962	0.0	0.0
C	-0.069307	1.240666	-2.127413
N	0.154851	2.273412	-2.639726
C	0.267566	-1.192706	-2.207603
H	-0.008182	-1.175862	-3.263738
H	1.350427	-1.107106	-2.094167
H	-0.066137	-2.131712	-1.762948
C	-0.470931	-1.225942	0.640689
N	-0.87615	-2.192941	1.170687
C	-0.518928	1.231165	0.74118
H	-0.063117	2.13004	0.323134
H	-0.234036	1.169894	1.792553
H	-1.606534	1.306758	0.670166
Br	3.454547	0.0	0.0
