17

C	-0.396715	0.046681	-1.483168
C	0.0	0.0	0.0
F	-0.131011	-1.199139	-2.043427
H	1.096659	0.0	0.0
C	-1.848974	0.281407	-1.640064
N	-2.994872	0.510387	-1.757765
C	0.412011	1.078354	-2.247865
H	0.146691	2.092185	-1.94531
H	0.212471	0.96524	-3.315364
H	1.470138	0.901083	-2.03827
C	-0.522825	-1.211756	0.623152
N	-0.964557	-2.15518	1.165829
C	-0.4526	1.23901	0.778261
H	-1.539781	1.353351	0.77361
H	-0.111561	1.150009	1.810687
H	0.011323	2.1331	0.359002
Br	3.486053	0.0	0.0
