17

C	-0.473637	-0.014424	-1.463736
C	0.0	0.0	0.0
F	0.006362	1.140885	-2.071965
H	1.09625	0.0	0.0
C	0.095804	-1.170882	-2.183029
N	0.444084	-2.108895	-2.796682
C	-1.984636	-0.02278	-1.636877
H	-2.407989	0.869418	-1.174116
H	-2.226506	-0.014679	-2.70122
H	-2.418977	-0.912394	-1.178071
C	-0.485374	-1.204589	0.665512
N	-0.923002	-2.149512	1.210789
C	-0.442086	1.257465	0.753561
H	-0.128095	2.137101	0.190983
H	-1.52029	1.293621	0.928679
H	0.070057	1.276721	1.717104
Br	3.441784	0.0	0.0
