16

C	0.0	0.0	0.0
C	-0.425786	-0.387776	-1.421539
F	1.366174	0.0	0.0
H	0.495221	-0.30577	-2.018299
H	-0.37173	0.972071	0.278014
N	-0.368143	-0.909906	1.130724
O	-0.287722	-2.12527	0.966222
O	-0.551014	-0.363864	2.213663
N	-1.255431	0.739434	-1.991529
O	-2.117104	0.472808	-2.81871
O	-0.88791	1.88126	-1.722016
C	-1.076116	-1.726677	-1.682861
H	-0.397229	-2.529255	-1.397648
H	-1.986749	-1.751751	-1.092365
H	-1.302511	-1.806758	-2.746792
F	-2.333048	0.0	0.0
