16

C	0.0	0.0	0.0
C	-0.475745	-0.247257	-1.437112
F	1.358512	0.0	0.0
H	-1.243065	-1.008955	-1.423054
H	-0.388743	0.916944	0.420861
N	-0.394532	-1.088543	0.952147
O	-0.432329	-0.764372	2.136452
O	-0.50064	-2.230824	0.522198
N	0.677756	-0.800874	-2.24461
O	0.766106	-2.025529	-2.342079
O	1.45843	-0.008334	-2.773227
C	-0.981536	1.026778	-2.080046
H	-0.238685	1.824924	-2.023066
H	-1.880206	1.25113	-1.50731
H	-1.223777	0.857969	-3.132666
F	-2.405007	0.0	0.0
