16

C	0.0	0.0	0.0
C	-0.428303	0.041303	-1.474164
F	1.359066	0.0	0.0
H	0.496188	0.279032	-2.020154
H	-0.374398	0.849952	0.546215
N	-0.376739	-1.19286	0.826132
O	-0.473567	-0.978048	2.030515
O	-0.380201	-2.309352	0.315941
N	-1.230637	1.304908	-1.691004
O	-2.103165	1.308386	-2.548296
O	-0.828851	2.311995	-1.109709
C	-1.111651	-1.143881	-2.116134
H	-1.291657	-0.921415	-3.169532
H	-2.048939	-1.281443	-1.583118
H	-0.481093	-2.028271	-2.03829
F	-2.342564	0.0	0.0
