16

C	0.0	0.0	0.0
C	-0.436393	-0.206087	-1.456221
F	1.354539	0.0	0.0
H	0.483843	-0.06538	-2.043961
H	-0.382273	0.922596	0.405196
N	-0.361497	-1.05925	0.998239
O	-0.59006	-0.669902	2.1387
O	-0.225899	-2.239151	0.677685
N	-1.251332	0.993478	-1.877015
O	-0.883091	2.086171	-1.451941
O	-2.106727	0.846761	-2.740177
C	-1.108543	-1.494526	-1.874622
H	-0.434068	-2.333965	-1.711329
H	-1.35622	-1.429446	-2.935348
H	-2.008541	-1.578538	-1.274158
F	-2.352793	0.0	0.0
