15
Coordinates from ORCA-job run
  C   -0.80249403824043      0.24109203763399     -0.29298547903116
  C   0.47696344361737     -0.22043028033294     -0.93303086508630
  F   -1.80235986072325      0.30695827111455     -1.18449194311422
  H   0.80090217901792      0.58566363221233     -1.59557172600779
  H   0.18579658513357     -1.06787216217400     -1.56147478302152
  N   -1.21796612763433     -0.71432397359828      0.81260413846436
  O   -0.76577203999489     -0.47746424368724      1.92588883841317
  O   -1.89682492460299     -1.66862097361703      0.46333077763439
  N   -0.73555126744538      1.61067671939748      0.36588988805889
  O   0.33670405058337      2.20318928372398      0.34003762532692
  O   -1.79417223043445      2.00527137014533      0.83611794703031
  C   1.58713042991856     -0.62123602684424      0.03270786085312
  H   1.83349642990873      0.18775554654243      0.71793380705576
  H   2.48231499150682     -0.86890796824273     -0.53972295540711
  H   1.31383237938938     -1.50175123227365      0.61576686883119
