15
Coordinates from ORCA-job run
  C   -0.80970440650459      0.22648413771389     -0.28508150350244
  C   0.44130644435314     -0.30562408062125     -0.92656283971284
  F   -1.72045610026188      0.58139151114809     -1.20346394395993
  H   0.17438155818118     -1.26307059089347     -1.38013866863223
  H   0.65951904430211      0.39524508692733     -1.73837750685125
  N   -1.51406016614398     -0.74160580061154      0.65355881060064
  O   -2.56123876001281     -0.32363429811435      1.12918042195541
  O   -1.00467924866831     -1.84317273435187      0.82253527533167
  N   -0.49397071327221      1.44679278138843      0.56281676724550
  O   -0.18484043329541      1.22691473201440      1.72732349421672
  O   -0.50260098608579      2.51867870531588     -0.02412934274933
  C   1.64419323439078     -0.44969510204861     -0.00023875391961
  H   1.98964032564353      0.51909864942993      0.36316442382472
  H   2.46543551853709     -0.90656099202496     -0.55450250588076
  H   1.41707468883715     -1.08224200527191      0.85591587203373
