15
Coordinates from ORCA-job run
  C   -0.65768149972173      0.13443252661410     -0.13292559766284
  C   0.58031302809430     -0.71012506592963     -0.21511956424170
  F   -0.92616307482979      0.77347620466546     -1.27099862078004
  H   0.72618515000565     -1.19016942255042      0.75156801811218
  H   0.36267102366799     -1.49066013814537     -0.95195951370496
  N   -1.87333291057373     -0.71849639068310      0.22970165603428
  O   -2.78050454564292     -0.77021066499554     -0.58564545398552
  O   -1.79450018038752     -1.28853017433591      1.31101376190957
  N   -0.60017580664425      1.18273181188363      0.97736458129363
  O   0.13697061777589      0.94340575472963      1.92540055243961
  O   -1.32907814866920      2.15437698252855      0.82388824027857
  C   1.80244094961282      0.09954870892082     -0.63691597192513
  H   2.06380856023551      0.84125463541017      0.11852374571912
  H   2.65729245433027     -0.56707629913335     -0.75878371879776
  H   1.63275438274673      0.60704153102095     -1.58711211468901
