15
Coordinates from ORCA-job run
  C   -0.80326752757437      0.24972657552490     -0.28371602098358
  C   0.46729689972825     -0.21380976406284     -0.93960889031283
  F   -1.80993443681980      0.33224796483712     -1.16635066246662
  H   0.79047758971963      0.59599375188476     -1.59795613836474
  H   0.16451450234363     -1.05399386900285     -1.57231609407851
  N   -1.21609068401177     -0.71579958452736      0.81432775026119
  O   -0.75473095924895     -0.49429855230965      1.92690684441341
  O   -1.90268252898219     -1.66229137510852      0.45904289961965
  N   -0.72199387731624      1.61092189512992      0.38959887875819
  O   -1.77358943821830      2.00564011673700      0.87531921134358
  O   0.35285449566843      2.19847530744142      0.35918564411162
  C   1.58356783107211     -0.63046876475558      0.01236625119379
  H   2.47203437606935     -0.87882003769229     -0.57017173163647
  H   1.84155243879740      0.17087988350502      0.70229694293491
  H   1.30999131877281     -1.51440354760107      0.59007511520641
