15
Coordinates from ORCA-job run
  C   -0.57219242153204     -0.07698919076628      0.37000990260847
  C   0.51871506380225     -0.58973948960350     -0.52408167402455
  F   -0.43069979698223     -0.46494711675769      1.63636102478008
  H   0.41982325222585     -1.68041362349506     -0.52557260356366
  H   0.32299497830692     -0.23216438697718     -1.53388241164637
  N   -0.68133476981072      1.44779943364887      0.36686520960377
  O   -1.15840939775120      1.94775706477320      1.37736494303976
  O   -0.31312052939965      2.02214231755299     -0.65002780062328
  N   -1.94398890719116     -0.54508354175092     -0.11768256956345
  O   -2.22526801537267     -0.20747815621062     -1.26109359313229
  O   -2.61178028645212     -1.21275167547465      0.65647572841890
  C   1.90305459893713     -0.17619637522741     -0.03438258324835
  H   2.03499388660505      0.90485113515860     -0.09265702166278
  H   2.66564154518872     -0.63877523910253     -0.66243824945425
  H   2.07257079942588     -0.49801115576785      0.99374169846801
