15
Coordinates from ORCA-job run
  C   -0.79093208966299      0.13567058751668     -0.37979460178201
  C   0.55004731014208     -0.35762206444353     -0.84656025512359
  F   -1.62831255249762      0.33148001061779     -1.40908761903530
  H   0.39418451236313     -1.37082999164307     -1.22441015418772
  H   0.79983617763012      0.27904499342427     -1.70107752445980
  N   -1.51825062233332     -0.78929873212339      0.58408334355061
  O   -0.95654528678295     -1.82864141848818      0.90927267608334
  O   -2.63233828863512     -0.40839349272195      0.91759210820032
  N   -0.64197256833073      1.45199116576167      0.36445487017355
  O   -0.43712378530351      1.36844990823903      1.56899776404110
  O   -0.66150333333325      2.45898839063959     -0.32766369406585
  C   1.66198810676889     -0.32123358649146      0.19653867814749
  H   1.39224458955811     -0.88140735140523      1.08992872592159
  H   2.56164660936108     -0.76868796967756     -0.22862450911664
  H   1.90703122105608      0.70148955079536      0.48635019165289
