16

C	-0.514778	0.048015	-1.449696
C	0.0	0.0	0.0
Br	0.278299	1.513794	-2.424681
H	1.09486	0.0	0.0
N	-0.134328	-1.284376	-2.127586
O	0.989165	-1.389983	-2.582514
O	-1.002648	-2.15255	-2.079828
C	-1.966693	0.175841	-1.516652
N	-3.134997	0.310651	-1.533282
C	-0.46519	-1.25464	0.747614
H	-1.551014	-1.376133	0.727396
H	0.010569	-2.139421	0.323978
H	-0.132511	-1.168326	1.783139
C	-0.47149	1.201122	0.683126
N	-0.874813	2.137723	1.267388
Cl	3.231708	0.0	0.0
