16

C	-0.425532	0.004696	-1.479853
C	0.0	0.0	0.0
Br	0.410881	-1.441036	-2.449222
H	1.096016	0.0	0.0
N	-1.959401	-0.166332	-1.533512
O	-2.600799	0.876805	-1.452326
O	-2.412783	-1.301718	-1.550207
C	-0.099485	1.255446	-2.151523
N	0.156664	2.265346	-2.696936
C	-0.469939	-1.227637	0.781988
H	-0.157885	-2.139391	0.273032
H	0.01852	-1.201954	1.757354
H	-1.552572	-1.243945	0.925937
C	-0.470938	1.223934	0.643677
N	-0.837717	2.184878	1.212888
Cl	3.200191	0.0	0.0
