16

C	-0.525197	0.001221	-1.443196
C	0.0	0.0	0.0
Br	0.283634	1.408758	-2.490108
H	1.094836	0.0	0.0
N	-0.156492	-1.353734	-2.076646
O	-1.092993	-2.108975	-2.334079
O	1.032442	-1.579653	-2.211199
C	-1.974761	0.145433	-1.512219
N	-3.143203	0.279543	-1.525228
C	-0.464286	-1.245931	0.763193
H	-0.003828	-2.136795	0.332704
H	-0.114903	-1.16442	1.792835
H	-1.552572	-1.352124	0.764274
C	-0.463934	1.216069	0.662108
N	-0.84213	2.177937	1.219939
Cl	3.260972	0.0	0.0
