16

C	-0.417164	-0.028994	-1.469557
C	0.0	0.0	0.0
Br	-2.363612	0.118656	-1.700523
H	1.096663	0.0	0.0
N	0.197349	1.158365	-2.240392
O	0.963489	0.874603	-3.148789
O	-0.143578	2.271059	-1.871767
C	-0.003281	-1.264329	-2.119173
N	0.268369	-2.299651	-2.608263
C	-0.426329	-1.268622	0.746613
H	0.024188	-2.144384	0.277131
H	-1.512568	-1.379858	0.78058
H	-0.040643	-1.203635	1.764878
C	-0.503257	1.17573	0.697863
N	-0.896816	2.061194	1.364832
Cl	3.1809	0.0	0.0
