14

C	-0.496389	-0.003836	-1.442157
C	0.0	0.0	0.0
Br	0.171801	1.565607	-2.384155
H	1.091482	0.0	0.0
H	-0.083354	-0.863427	-1.965098
C	-1.953194	-0.012716	-1.528326
N	-3.128565	-0.027359	-1.550586
N	-0.395558	-1.329976	0.586513
O	-0.296709	-2.32864	-0.132106
O	-0.753019	-1.364263	1.76562
N	-0.476461	1.101426	0.75961
H	0.23403	1.351749	1.431396
H	-1.333556	0.88818	1.250399
F	2.519248	0.0	0.0
