14

C	-0.60649	-0.108103	-1.401396
C	0.0	0.0	0.0
Br	0.482695	-1.188059	-2.629761
H	1.096014	0.0	0.0
H	-1.583322	-0.601598	-1.389718
C	-0.754483	1.207436	-2.01678
N	-0.918678	2.220696	-2.586782
N	-0.432979	-1.175678	0.792632
O	-0.554755	-1.038335	2.015615
O	-0.613828	-2.244802	0.200962
N	-0.367491	1.236503	0.648399
H	-0.957604	1.052793	1.451964
H	0.500703	1.633201	0.992448
F	2.501566	0.0	0.0
