14

C	-0.504167	0.018351	-1.438765
C	0.0	0.0	0.0
Br	0.177262	1.584791	-2.374702
H	1.091499	0.0	0.0
H	-0.109833	-0.842837	-1.973357
C	-1.961912	0.031022	-1.511058
N	-3.13761	0.030399	-1.511124
N	-0.390653	-1.337884	0.569837
O	-0.700644	-1.392575	1.761223
O	-0.323712	-2.323619	-0.17027
N	-0.471036	1.092149	0.776476
H	0.237494	1.320436	1.460305
H	-1.337069	0.880421	1.255512
F	2.515471	0.0	0.0
