14

C	-0.586012	0.01614	-1.406373
C	0.0	0.0	0.0
Br	0.001034	-1.528584	-2.449806
H	1.09007	0.0	0.0
H	-1.676612	-0.057925	-1.378632
C	-0.197636	1.234344	-2.104398
N	0.051326	2.207486	-2.712622
N	-0.518829	-1.273657	0.64889
O	0.278481	-2.086682	1.100043
O	-1.752921	-1.394929	0.71182
N	-0.507929	1.141088	0.70214
H	-1.447421	0.986066	1.04154
H	0.119068	1.369773	1.46019
F	2.552893	0.0	0.0
