14

C	-0.516785	-0.165303	-1.423913
C	0.0	0.0	0.0
Br	0.148609	1.272218	-2.555381
H	1.101418	0.0	0.0
H	-0.125294	-1.085554	-1.850031
C	-1.975582	-0.16746	-1.484092
N	-3.151163	-0.175839	-1.480473
N	-0.393323	-1.245098	0.742034
O	-0.359771	-2.317376	0.132247
O	-0.678177	-1.143279	1.937452
N	-0.455373	1.189243	0.634104
H	-1.29403	1.036085	1.178767
H	0.276757	1.511774	1.253097
F	2.512118	0.0	0.0
