14

C	-0.323704	0.039594	-1.470908
C	0.0	0.0	0.0
Br	-2.255605	0.346988	-1.866186
H	1.093307	0.0	0.0
H	0.165122	0.940246	-1.846282
C	0.127812	-1.080052	-2.285253
N	0.504131	-1.90923	-3.027266
N	-0.522997	-1.232264	0.655911
O	-0.900573	-2.159439	-0.069078
O	-0.491606	-1.281262	1.880892
N	-0.384043	1.165169	0.726413
H	-1.145971	1.677743	0.305252
H	0.429849	1.746942	0.864997
F	2.497706	0.0	0.0
