14

C	-0.435786	0.029713	-1.439302
C	0.0	0.0	0.0
Br	-2.417401	0.035821	-1.640205
H	1.093309	0.0	0.0
H	-0.13331	1.008075	-1.811316
C	0.104733	-0.995251	-2.32164
N	0.531691	-1.746824	-3.117071
N	-0.446945	-1.252003	0.673124
O	-0.467911	-2.288772	0.01096
O	-0.727714	-1.190405	1.87335
N	-0.402265	1.187335	0.684215
H	0.298476	1.382955	1.387576
H	-1.296778	1.070219	1.144844
F	2.491179	0.0	0.0
