15

C	0.0	0.0	0.0
C	-0.494235	-0.013606	-1.460753
Br	1.964634	0.0	0.0
H	-1.605408	-0.112328	-1.245676
C	-0.416142	1.257357	0.626401
N	-0.574097	2.278886	1.1854
C	-0.434674	-1.119556	0.838322
N	-0.571958	-1.988767	1.617594
N	0.009171	-1.25657	-2.159217
O	-0.107209	-2.329197	-1.571526
O	0.456026	-1.129057	-3.301839
N	-0.148121	1.186368	-2.126544
H	0.804302	1.162351	-2.469536
H	-0.770864	1.340852	-2.906219
F	-2.503785	0.0	0.0
