15

C	0.0	0.0	0.0
C	-0.235274	0.180182	-1.601756
Br	1.957412	0.0	0.0
H	0.52953	-0.448684	-2.055758
C	-0.482865	1.020142	0.917592
N	-0.647951	1.842036	1.743315
C	-0.455251	-1.339531	0.354943
N	-0.604322	-2.483462	0.58567
N	0.214962	1.591521	-1.956291
O	-0.340932	2.523953	-1.385927
O	1.04424	1.696993	-2.859258
N	-1.490882	-0.02807	-2.18841
H	-1.523563	-0.971166	-2.551993
H	-2.191546	0.061543	-1.386993
F	-2.503187	0.0	0.0
