15

C	-0.451884	0.045465	-1.451289
C	0.0	0.0	0.0
F	-1.845993	0.375188	-1.474329
H	1.095038	0.0	0.0
H	0.043247	0.879372	-1.954359
N	-0.192257	-1.151702	-2.142489
H	-0.625776	-1.947416	-1.690699
H	-0.491104	-1.093868	-3.105317
C	-0.496718	-1.218897	0.633537
N	-0.913728	-2.210152	1.106698
C	-0.45131	1.240527	0.774843
H	-0.02717	1.21769	1.779672
H	-1.537721	1.306218	0.836337
H	-0.066376	2.131088	0.272238
Br	3.54489	0.0	0.0
