15

C	-0.368203	0.228749	-1.465287
C	0.0	0.0	0.0
F	-0.138157	-0.974167	-2.169447
H	1.094864	0.0	0.0
H	-1.438146	0.429643	-1.601013
N	0.404265	1.303976	-1.966799
H	0.253107	1.410495	-2.959065
H	1.390849	1.127332	-1.79007
C	-0.53073	-1.27339	0.473602
N	-1.025107	-2.262211	0.86959
C	-0.481598	1.151382	0.884796
H	-0.055585	2.083133	0.515824
H	-1.574067	1.226976	0.880062
H	-0.145965	0.996219	1.912877
Br	3.526747	0.0	0.0
