15

C	-0.448658	-0.031077	-1.4573
C	0.0	0.0	0.0
F	0.068814	1.123713	-2.075159
H	1.095094	0.0	0.0
H	0.011037	-0.877797	-1.971776
N	-1.864765	-0.09748	-1.604118
H	-2.28976	0.726973	-1.198489
H	-2.107166	-0.126199	-2.585909
C	-0.464611	-1.212452	0.671009
N	-0.853414	-2.168884	1.231178
C	-0.470297	1.250806	0.747266
H	0.007907	1.282653	1.727122
H	-1.554377	1.267892	0.894906
H	-0.158214	2.135055	0.190584
Br	3.551259	0.0	0.0
