15

C	-0.44583	-0.042717	-1.458417
C	0.0	0.0	0.0
F	0.043884	1.124712	-2.075594
H	1.095137	0.0	0.0
H	0.037927	-0.875948	-1.972284
N	-1.857738	-0.146282	-1.607911
H	-2.308841	0.657589	-1.189675
H	-2.099302	-0.170643	-2.590556
C	-0.462433	-1.207955	0.680568
N	-0.852487	-2.156533	1.252709
C	-0.472905	1.254857	0.738355
H	-1.558181	1.276016	0.877175
H	-0.154714	2.135862	0.180723
H	-0.00288	1.288791	1.722193
Br	3.539505	0.0	0.0
