15

C	-0.301376	0.006327	-1.498406
C	0.0	0.0	0.0
F	-1.683034	-0.004813	-1.693665
H	1.096762	0.0	0.0
H	0.079484	0.945836	-1.911827
N	0.275362	-1.077677	-2.238903
H	0.047373	-1.952351	-1.776757
H	1.286162	-0.972111	-2.188767
C	-0.485434	-1.239927	0.596531
N	-0.875674	-2.244735	1.06386
C	-0.531346	1.227981	0.732033
H	-0.114473	2.126929	0.27172
H	-1.62131	1.27519	0.683452
H	-0.218542	1.214043	1.777537
Br	3.490036	0.0	0.0
