15

C	-0.366628	0.193466	-1.470567
C	0.0	0.0	0.0
F	-0.175867	-1.03637	-2.139227
H	1.094911	0.0	0.0
H	-1.429408	0.423511	-1.612123
N	0.438899	1.22952	-2.001041
H	0.303028	1.311978	-3.000447
H	1.420415	1.034883	-1.804463
C	-0.533335	-1.256494	0.511416
N	-1.028434	-2.232739	0.937077
C	-0.474913	1.17849	0.85282
H	-1.566823	1.256142	0.852136
H	-0.133077	1.055685	1.881734
H	-0.049201	2.097617	0.451083
Br	3.529311	0.0	0.0
