15

C	-0.441693	0.040618	-1.456029
C	0.0	0.0	0.0
F	-1.822686	0.414465	-1.499824
H	1.095053	0.0	0.0
H	0.088084	0.851339	-1.96187
N	-0.211402	-1.17315	-2.131756
H	-0.68906	-1.944885	-1.684142
H	-0.483741	-1.111301	-3.102601
C	-0.50187	-1.214323	0.637684
N	-0.930702	-2.202021	1.107845
C	-0.448793	1.246062	0.767429
H	-1.535361	1.313074	0.831118
H	-0.021725	1.230494	1.77146
H	-0.065563	2.133335	0.257689
Br	3.529292	0.0	0.0
