17

C	-0.380679	-0.042175	-1.474716
C	0.0	0.0	0.0
Br	0.043468	1.745773	-2.271108
H	1.100316	0.0	0.0
H	-0.348334	-0.960544	0.412401
C	0.555191	-1.039578	-2.140134
H	0.490214	-1.005967	-3.231088
H	0.277246	-2.047238	-1.803763
H	1.570228	-0.825523	-1.783742
C	-1.857293	-0.272997	-1.735576
H	-2.12352	-1.266605	-1.353761
H	-2.097998	-0.23231	-2.801604
H	-2.446427	0.472087	-1.198186
N	-0.670835	1.079124	0.744506
H	-0.166641	1.930489	0.514914
H	-0.467928	0.915977	1.726544
F	2.77514	0.0	0.0
