17

C	-0.306034	0.032641	-1.509586
C	0.0	0.0	0.0
Br	0.013815	-1.789483	-2.261697
H	1.094135	0.0	0.0
H	-0.349287	0.97252	0.382265
C	-1.740362	0.383771	-1.867982
H	-2.451105	-0.310223	-1.409486
H	-1.952453	1.393128	-1.494768
H	-1.902027	0.369547	-2.949217
C	0.726318	0.954439	-2.145934
H	1.711298	0.675791	-1.744462
H	0.512292	1.981747	-1.821252
H	0.694238	0.920174	-3.238842
N	-0.557149	-1.071829	0.810848
H	-1.468931	-1.354171	0.46748
H	0.057513	-1.869169	0.709579
F	2.760238	0.0	0.0
