17

C	-0.095171	-0.017707	-1.519031
C	0.0	0.0	0.0
Br	-2.019283	-0.068516	-2.15833
H	1.097806	0.0	0.0
H	-0.407749	0.936887	0.393605
C	0.565511	1.242397	-2.045168
H	0.043044	2.138797	-1.703022
H	1.571001	1.217043	-1.608563
H	0.616769	1.254906	-3.135998
C	0.618855	-1.245973	-2.058697
H	0.670172	-1.236517	-3.150017
H	1.624469	-1.184773	-1.618892
H	0.132418	-2.169081	-1.740021
N	-0.525562	-1.141733	0.730745
H	0.142446	-1.900191	0.665873
H	-1.401194	-1.450686	0.320024
F	2.749197	0.0	0.0
