17

C	-0.291195	-0.062058	-1.514083
C	0.0	0.0	0.0
Br	0.007752	1.78345	-2.20272
H	1.093943	0.0	0.0
H	-0.456266	0.886444	0.449713
C	0.75726	-0.953434	-2.168874
H	1.733153	-0.678635	-1.744645
H	0.545309	-1.994663	-1.893167
H	0.742128	-0.876603	-3.259355
C	-1.717093	-0.417708	-1.904648
H	-2.436061	0.250786	-1.421982
H	-1.854221	-0.35473	-2.987614
H	-1.938214	-1.447355	-1.601403
N	-0.388596	-1.21015	0.733286
H	0.36744	-1.877982	0.649323
H	-1.242096	-1.633927	0.392169
F	2.753068	0.0	0.0
