16
Coordinates from ORCA-job run
  C   0.66336862411552     -0.22781243299684     -0.00638948479925
  C   -0.33107703814015      0.92902581056232      0.22150068879239
  Cl  2.02911340601881      0.00088590199526      1.11446549211261
  H   0.20581056609963      1.86513299606819      0.03448904903833
  N   1.25773626667941     -0.07930098248030     -1.40793174608864
  O   1.64162796212636     -1.10328609496838     -1.95878720765872
  O   1.33981965180295      1.05953488668255     -1.85828779985610
  C   0.05838072057714     -1.59549101619863      0.16333608347481
  H   -0.40325602013196     -1.64462148298110      1.14809669021066
  H   0.82338942362744     -2.36238654495174      0.06484522644034
  H   -0.70392519116963     -1.75858768716997     -0.60175870716540
  N   -0.89928266048523      0.81651262039459      1.56177663622992
  H   -0.24566124936754      1.19917995912796      2.23415464621222
  H   -1.75640278724940      1.35220432263236      1.61803029378466
  C   -1.40376648766244      0.82228560572618     -0.77263861753856
  N   -2.27487518684091      0.72772413855755     -1.55390124318925
