16
Coordinates from ORCA-job run
  C   0.72262368205712     -0.19416078660511     -0.02436686390970
  C   -0.27410706336276      0.96089488360779      0.20595688743934
  Cl  2.19464183455609      0.13132835533392      0.90503120308188
  H   0.26047776217512      1.88941956673295     -0.00147690947052
  N   1.13512460537929     -0.14129416049516     -1.49623501136071
  O   1.32221244971932      0.97759243317852     -1.96357130025877
  O   1.26953062546137     -1.20541688717584     -2.08799577804703
  C   0.16544622954717     -1.54933404070897      0.32279008740135
  H   -0.08644226085910     -1.55531930736933      1.38348922848684
  H   -0.72283453777737     -1.75977663103420     -0.27733184510464
  H   0.90541561166182     -2.32324122427700      0.13029710420433
  N   -0.72382413799092      0.95870834382591      1.58499746120279
  H   -0.96203258408852      1.89663531385397      1.87763092916319
  H   -1.54193340104862      0.37445633065164      1.70157931273470
  C   -1.37352005752422      0.83783497302289     -0.76995856305927
  N   -2.29177875790577      0.70267283745803     -1.49083594250381
