16
Coordinates from ORCA-job run
  C   0.54227447738022     -0.16585651672224     -0.07434762751506
  C   -0.80429447096290      0.56028711635525      0.18528338471302
  Cl  1.84981968704159      1.01129485238305     -0.15048831180420
  H   -1.56387248841537     -0.22580860380424      0.23167230511997
  N   0.37390679387559     -0.83838649967038     -1.44108365494820
  O   -0.61412522843236     -1.56679219956438     -1.51282746239131
  O   1.18568255198271     -0.63437554356808     -2.32964464221863
  C   0.85521741399933     -1.25027807964131      0.93510350334303
  H   1.77725491187058     -1.76423187128330      0.65713080813218
  H   0.03601914609055     -1.97072189276105      0.96776372822148
  H   0.98904784659900     -0.80328763796507      1.92070053226108
  N   -1.22296212730228      1.51742779519098     -0.80791002747688
  H   -0.49989657573923      2.19912931668388     -0.99933494147733
  H   -1.49873199164336      1.05585144605791     -1.66453606353263
  C   -0.73572985413131      1.19317026150348      1.50852086889675
  N   -0.67061009221275      1.68357805680550      2.57299760067674
