16
Coordinates from ORCA-job run
  C   0.72250492564740     -0.09173102185066     -0.07060561708566
  C   -0.43996759876888      0.75458948851435      0.47357035685416
  Cl  2.20592301640584      0.88135728477226     -0.02689751118941
  H   -0.15559616272571      0.96144746576873      1.51129478124014
  N   0.47300834857311     -0.45301640256573     -1.53406351542507
  O   1.28662539913028     -1.20125046180023     -2.05647737255266
  O   -0.52811921127249      0.01597416649168     -2.07131125249262
  C   0.91283575310265     -1.37784966529156      0.70081916058233
  H   0.00723115769115     -1.97966791712557      0.62929865701412
  H   1.10272297903511     -1.14227355345382      1.74932822703726
  H   1.76355052619886     -1.92419923763241      0.29732093165610
  N   -1.66907319126474     -0.01794964275315      0.49227397581775
  H   -2.11904638733356      0.03024877603712     -0.41281845383010
  H   -2.30166976415168      0.35334830192414      1.18917265301089
  C   -0.54938225107079      2.06417977568470     -0.19765767375851
  N   -0.71154753919656      3.12579264328017     -0.67324734687871
