14
Coordinates from ORCA-job run
  C   -0.35132965383031      0.33855314467912      0.56800454190091
  C   1.09523476683789     -0.11422288514488      0.36224233875253
  Br  -0.23824733922828      1.77094158332793      1.91775596754855
  H   1.72825557074509      0.73637860597766      0.11770561561976
  H   1.47754009864985     -0.63206668835380      1.24356051830497
  C   -1.19169523145714     -0.70738548756084      1.14357665624356
  N   -1.90078390701344     -1.51979564387388      1.61117851804082
  C   -0.96904271931997      0.90632770719497     -0.70458706792643
  H   -1.95381274108615      1.32249622249396     -0.49257602942440
  H   -1.07994392357591      0.10988948152372     -1.44408682859983
  H   -0.33075280861008      1.69478370508413     -1.10852524573496
  N   1.20662419771749     -1.06535572906916     -0.78890564087985
  O   2.10017980315203     -0.84686310024801     -1.60223665222089
  O   0.40577388701891     -1.99568091603091     -0.82310669162475
