14
Coordinates from ORCA-job run
  C   -0.35674652725644      0.31970159068085      0.56776489079215
  C   1.08957004006746     -0.15867634248532      0.40287865955453
  Br  -0.30928362566288      1.57450539741198      2.08306768200513
  H   1.42694071175827     -0.69612487736762      1.28755141739956
  H   1.73399149696631      0.69001220566098      0.17910819344179
  C   -1.23833214196195     -0.78196360288506      0.94402701723029
  N   -1.97303705387109     -1.65920555531213      1.21334499876999
  C   -0.89198332502499      1.04520033288093     -0.66147924310606
  H   -1.88417602558002      1.44625538469869     -0.45394163715317
  H   -0.96092672781666      0.35300397481711     -1.50315567410532
  H   -0.22299704165560      1.86367671723748     -0.93142088535671
  N   1.18236867257735     -1.10006276557394     -0.75377761881350
  O   1.44635483494340     -0.60894617409379     -1.85040897312631
  O   0.95925671251684     -2.28637628567016     -0.52255882753237
