14
Coordinates from ORCA-job run
  C   -0.40863160717493      0.14419675751569      0.50276182788171
  C   0.50310893396333     -0.97451084907268     -0.01954445655580
  Br  0.48088775062867      1.04243438149012      2.00564721342117
  H   0.72913416191206     -1.68878145901863      0.76967524106894
  H   0.01747639514915     -1.46474647677062     -0.86632636329782
  C   -1.59873849590531     -0.51749581492865      1.03501632981844
  N   -2.56593031490031     -1.06691334580531      1.41561191675850
  C   -0.81053196687879      1.18655765348089     -0.53667462713369
  H   -1.51761792898109      1.88783652799372     -0.09309565270716
  H   0.06228596996986      1.73046175632103     -0.89150069493077
  H   -1.28525664076909      0.68872792042984     -1.38638985824102
  N   1.80790659969334     -0.45231531586142     -0.51829382864935
  O   1.78077374541006      0.17876660491287     -1.57375012562104
  O   2.80513339788305     -0.69521834068683      0.15486307818788
