14
Coordinates from ORCA-job run
  C   -0.42443031195113      0.16723337595585      0.48219427032444
  C   0.57191454603826     -0.93155681667959      0.08750336311643
  Br  0.37875579331514      1.28283497231050      1.88455593922955
  H   0.13391873408722     -1.54343743063923     -0.70426296191813
  H   0.83828296407355     -1.53899816765755      0.95014729452382
  C   -1.57049503999714     -0.51901064100409      1.07644803537364
  N   -2.49871529235845     -1.09614973469552      1.50941564702766
  C   -0.88688330302637      1.06067443511087     -0.66511732635761
  H   -1.64765539325298      1.75240165889384     -0.30279460833434
  H   -1.31442795484735      0.44176372193767     -1.45845028709938
  H   -0.05085993201940      1.62514970395280     -1.07250258175271
  N   1.84227031001484     -0.37189582375952     -0.45720783067289
  O   2.84555404951770     -0.46901818608070      0.24320518585231
  O   1.78377083040611      0.14000893235467     -1.57413413931277
