16

C	-0.564048	-0.007998	-1.410604
C	0.0	0.0	0.0
Br	0.187179	1.451708	-2.463175
H	1.093581	0.0	0.0
N	-0.051442	-1.292559	-2.134668
O	-0.723899	-1.654413	-3.101169
O	0.949953	-1.849928	-1.717709
N	-1.974535	0.04712	-1.444007
H	-2.297839	-0.664996	-0.794641
H	-2.304277	-0.17109	-2.376669
N	-0.484409	-1.239843	0.656131
H	-0.872821	-1.018379	1.565472
H	0.353524	-1.793376	0.809675
C	-0.47166	1.182493	0.700199
N	-0.811046	2.119155	1.325695
F	2.531513	0.0	0.0
