16

C	-0.563223	-0.01158	-1.408453
C	0.0	0.0	0.0
Br	0.200668	1.439163	-2.469791
H	1.09357	0.0	0.0
N	-0.05928	-1.304494	-2.123536
O	-0.746071	-1.6833	-3.073795
O	0.952188	-1.85012	-1.715529
N	-1.973454	0.051146	-1.447587
H	-2.302946	-0.169546	-2.380188
H	-2.302237	-0.657421	-0.797182
N	-0.48888	-1.236969	0.65892
H	-0.87101	-1.012664	1.569548
H	0.346118	-1.795034	0.808167
C	-0.473032	1.183692	0.696678
N	-0.832252	2.105731	1.332846
F	2.531472	0.0	0.0
