16

C	-0.498754	0.004702	-1.442085
C	0.0	0.0	0.0
Br	0.476289	1.310381	-2.528502
H	1.092043	0.0	0.0
N	-0.107885	-1.363642	-2.09294
O	0.982497	-1.842064	-1.831237
O	-0.946141	-1.859269	-2.850415
N	-1.879825	0.255641	-1.578652
H	-2.407518	-0.261263	-0.885193
H	-2.202209	0.012989	-2.506888
N	-0.369574	-1.196304	0.75249
H	-1.236197	-1.630573	0.459996
H	0.395523	-1.850366	0.650332
C	-0.499352	1.196508	0.669589
N	-0.902724	2.141072	1.242067
F	2.521128	0.0	0.0
