16

C	-0.408852	-0.031628	-1.442785
C	0.0	0.0	0.0
Br	-2.543874	0.299361	-1.578212
H	1.09345	0.0	0.0
N	0.069468	1.155524	-2.251964
O	0.305478	2.190509	-1.648302
O	0.171051	0.984188	-3.462874
N	-0.042491	-1.188817	-2.054352
H	-0.199796	-1.975721	-1.437822
H	-0.330597	-1.284734	-3.014287
N	-0.332088	-1.299368	0.598956
H	0.452076	-1.543536	1.193452
H	-1.176088	-1.243083	1.156799
C	-0.511009	1.117735	0.77027
N	-0.948005	1.943635	1.484753
F	2.492394	0.0	0.0
