14

C	0.0	0.0	0.0
C	-0.441827	0.137096	-1.464662
Cl	1.791467	0.0	0.0
H	-1.525137	0.279176	-1.493708
H	0.117899	0.942737	-1.938054
C	-0.379104	1.23339	0.721653
N	-0.605243	2.232459	1.298503
N	-0.439976	-1.238967	0.553543
H	-1.462333	-1.271461	0.486051
H	-0.159923	-1.298279	1.525327
N	-0.124787	-1.103927	-2.227639
O	-0.958512	-2.004089	-2.213936
O	0.947035	-1.137054	-2.837774
Br	-3.583997	0.0	0.0
