14

C	0.0	0.0	0.0
C	-0.510253	0.221586	-1.42765
Cl	1.795031	0.0	0.0
H	-1.60396	0.153432	-1.391933
H	-0.164782	1.182954	-1.801388
C	-0.360106	1.21079	0.776166
N	-0.602414	2.162801	1.422228
N	-0.490961	-1.226869	0.539514
H	-1.511618	-1.210204	0.429934
H	-0.277802	-1.267841	1.530097
N	0.005184	-0.807252	-2.365181
O	-0.503044	-1.924896	-2.320997
O	0.899199	-0.460433	-3.141685
Br	-3.676986	0.0	0.0
