14

C	0.0	0.0	0.0
C	-0.470779	-0.171221	-1.455735
Cl	1.801551	0.0	0.0
H	-0.174547	0.672101	-2.075857
H	-1.564032	-0.283254	-1.418407
C	-0.376916	1.367992	0.400679
N	-0.57715	2.481979	0.713022
N	-0.483971	-0.929841	0.971943
H	-0.336834	-1.865209	0.609211
H	-1.497345	-0.777529	1.031334
N	0.108988	-1.376227	-2.096553
O	0.035315	-2.445525	-1.490406
O	0.613112	-1.237669	-3.210256
Br	-3.63241	0.0	0.0
