14

C	0.0	0.0	0.0
C	-0.509056	0.142064	-1.437422
Br	1.961605	0.0	0.0
H	-0.160234	-0.722219	-2.011522
H	-1.61054	0.117943	-1.370581
C	-0.395308	1.146724	0.817011
N	-0.632995	2.090748	1.475578
C	-0.463235	-1.320363	0.603011
H	-0.084839	-2.142458	-0.010484
H	-0.072884	-1.430916	1.61579
H	-1.556726	-1.319304	0.613208
C	-0.051677	1.359929	-2.097023
N	0.329219	2.326194	-2.644415
Cl	-3.592517	0.0	0.0
