14

C	0.0	0.0	0.0
C	-0.245995	0.294134	-1.513318
Br	1.965359	0.0	0.0
H	0.302553	-0.484642	-2.050583
H	0.264899	1.235854	-1.736993
C	-0.406289	1.115424	0.849703
N	-0.611535	2.043492	1.541243
C	-0.527121	-1.337361	0.472789
H	-1.621204	-1.276603	0.436415
H	-0.196688	-1.540717	1.493303
H	-0.161665	-2.126149	-0.189538
C	-1.558796	0.38678	-2.161116
N	-2.348135	0.566439	-3.014531
Cl	-3.584711	0.0	0.0
