14

C	0.0	0.0	0.0
C	-0.252069	0.4655	-1.467403
Br	1.965288	0.0	0.0
H	0.241884	1.434936	-1.58056
H	0.309517	-0.237302	-2.091165
C	-0.405223	1.006935	0.977537
N	-0.6189	1.84961	1.768798
C	-0.523566	-1.386139	0.309843
H	-0.150349	-2.09132	-0.437041
H	-0.197502	-1.705478	1.301426
H	-1.617324	-1.325066	0.272289
C	-1.5676	0.599486	-2.10477
N	-2.341307	0.843855	-2.956728
Cl	-3.563134	0.0	0.0
