16
Coordinates from ORCA-job run
  C   -0.64401425157144     -0.13180080184184     -0.65964224056530
  C   0.87791239244694     -0.07535334444996     -0.36629397023325
  Br  -0.92606862779922     -1.33407580541266     -2.19070198943199
  H   1.37853266053041      0.18465347225628     -1.30536625344304
  C   -1.08960517932177      1.19546601292392     -1.07607331558729
  N   -1.43179797393169      2.28063498493422     -1.37289603589939
  C   -1.47505658641578     -0.63546476004810      0.51567687648562
  H   -2.52791835463593     -0.68045611968815      0.23624697245745
  H   -1.14303708065627     -1.63395774238891      0.80461262353126
  H   -1.37121642920206      0.04318617770170      1.36553389624406
  C   1.34929939823352     -1.40018527352674      0.04167937452735
  N   1.73115339494046     -2.44483013276860      0.41854610711759
  C   1.24073337525652      0.96560151206875      0.70112105752861
  H   0.81943838763120      0.70522464534306      1.67266581896714
  H   0.88453409683263      1.95438808405738      0.40711557944388
  H   2.32611077766251      1.00896909083966      0.80677549885732
