16
Coordinates from ORCA-job run
  C   -0.70148258648084      0.03206849341942     -0.40779150807277
  C   0.78706253119816     -0.23803808690029     -0.06810060995570
  Br  -0.83005006292377      0.38355465003490     -2.34067861105938
  H   1.09989901453339     -1.07551038993054     -0.70332364357114
  C   -1.16408952357635      1.23016676007604      0.28731126284376
  N   -1.53045406599582      2.17777729096780      0.87930671522058
  C   -1.59800641278570     -1.16044601370452     -0.08613508548028
  H   -1.23492236369511     -2.04513605838882     -0.61351738014927
  H   -2.62219130083079     -0.95842898812963     -0.40060207524881
  H   -1.58823703479538     -1.35125671388605      0.98936824550085
  C   0.86968100869743     -0.67927833467249      1.32842495740497
  N   0.94007128975389     -1.01708767478962      2.45133312409693
  C   1.71738890773209      0.95713439209907     -0.28959529068701
  H   1.69428306283533      1.26923469936822     -1.33335812299668
  H   2.74027553137255      0.67703084221645     -0.03224430653852
  H   1.42177200496093      1.79721513222007      0.34160232869246
