16
Coordinates from ORCA-job run
  C   -0.67151192038216     -0.14204805195912     -0.62972787407935
  C   0.86131313620104     -0.07685092090537     -0.40362982055040
  Br  -1.01541331359727     -1.36400988181526     -2.13216053754364
  H   1.31952405514997      0.17492055981725     -1.36636692498361
  C   -1.14060981485612      1.17842642802392     -1.04190762075248
  N   -1.50350673130037      2.25844779803982     -1.33243525519518
  C   -1.44849603051954     -0.63356369758775      0.58697821640398
  H   -2.51237864244731     -0.68586452677909      0.35452648608542
  H   -1.31029272324346      0.05648236871779      1.42258547729310
  H   -1.10012020179927     -1.62706403365808      0.87378457738844
  C   1.35683962243581     -1.39521259902680     -0.00292704224716
  N   1.76346106844836     -2.43291506385964      0.36733849029029
  C   1.26589327313241      0.97672027479196      0.63603412830346
  H   0.89234811560837      0.72282625909613      1.62861418979282
  H   2.35467428163486      1.02841410795948      0.69033302964083
  H   0.88927582553468      1.96029097914475      0.34996048015350
