16
Coordinates from ORCA-job run
  C   -0.71164653345502      0.02897258830390     -0.39205885598090
  C   0.78314781694737     -0.24376043898088     -0.08348063271270
  Br  -0.88412461016098      0.34393189240230     -2.32807207251243
  H   1.07690137397234     -1.09174726707972     -0.71383357407191
  C   -1.14997423985062      1.24365018794618      0.29004724063562
  N   -1.49423118020102      2.20683562296612      0.86991695760138
  C   -1.60701431888150     -1.15151301878339     -0.02623687685033
  H   -1.57347156608663     -1.32112814900508      1.05229832248146
  H   -2.63700274582477     -0.94976872694231     -0.32113574400982
  H   -1.26105695505989     -2.04867407069968     -0.54400193328662
  C   0.89882070073430     -0.66601217886465      1.31656149273529
  N   1.00152716836178     -0.99095798680481      2.44082623345107
  C   1.71324069428574      0.94367444444104     -0.34409816549463
  H   1.65973954874339      1.24708586434217     -1.38911937366194
  H   2.74185877031564      0.65969344024799     -0.11606868794110
  H   1.44228607615986      1.79071779651083      0.28845566961755
