16
Coordinates from ORCA-job run
  C   -0.66399736423354     -0.12211844731778     -0.64232049839015
  C   0.86567580725196     -0.09594077123514     -0.38906607434665
  Br  -1.01105139421506     -1.32695859213474     -2.15765780943392
  H   1.34669125531829      0.15042311700592     -1.34199195015035
  C   -1.09230864535008      1.21210128692735     -1.05507295282200
  N   -1.42055751028766      2.30271019242676     -1.34742038551262
  C   -1.47435327564158     -0.60096043991485      0.55757403526610
  H   -1.15448473284602     -1.60371233318447      0.84538421513803
  H   -2.53468864434429     -0.62722372371128      0.30556450987378
  H   -1.33549206943082      0.08150935297116      1.39923532587058
  C   1.32180026574477     -1.42818500280170      0.01258338452080
  N   1.69673592593918     -2.47662155590140      0.38606845410297
  C   1.27766687059218      0.94126202616502      0.66417627784480
  H   0.93336932324810      1.93596168100424      0.37594164946788
  H   0.87786041963536      0.69257261596712      1.64780354630870
  H   2.36613376861919      0.96318059373383      0.74019827226204
