16
Coordinates from ORCA-job run
  C   -0.69276130886127      0.02271499118414     -0.42319375848027
  C   0.79306041056710     -0.21998336145754     -0.05241562455503
  Br  -0.78423171638102      0.39576558278046     -2.35420102852463
  H   1.13802545044736     -1.04280032203989     -0.69027105144999
  C   -1.19727591135787      1.20185506561134      0.27506495088977
  N   -1.59829184840202      2.13404657464862      0.86915593405838
  C   -1.57052867025135     -1.19246097854481     -0.13674201979727
  H   -1.17621307457288     -2.06276635798596     -0.66555754118552
  H   -2.59125373617670     -1.00864044218758     -0.47282065839423
  H   -1.58171494132400     -1.39602904488104      0.93637169551050
  C   0.85389360665139     -0.67764248644931      1.34000383033485
  N   0.90917904872388     -1.03350142737835      2.45809358075721
  C   1.70237224355986      0.99713470824435     -0.23863439150862
  H   1.70166289193787      1.31697386887899     -1.28027950897578
  H   1.37048567736617      1.82545840746323      0.38997597861904
  H   2.72359187807346      0.73787522211334      0.04544961270158
