18

C	-0.319061	0.025912	-1.504355
C	0.0	0.0	0.0
F	-1.68904	0.259126	-1.672692
H	1.09212	0.0	0.0
N	0.33739	1.127399	-2.173391
H	1.332478	1.073788	-1.95969
H	-0.017075	2.009896	-1.824212
N	0.022198	-1.213294	-2.107979
H	0.795544	-1.656772	-1.62685
H	0.271545	-1.03651	-3.072226
N	-0.494677	-1.266219	0.61311
O	-1.594688	-1.245185	1.170464
O	0.216072	-2.265562	0.514378
C	-0.54011	1.190017	0.76153
H	-0.027264	2.092213	0.425103
H	-1.615261	1.296734	0.626819
H	-0.325055	1.07355	1.824783
Br	3.48616	0.0	0.0
