18

C	-0.383604	-0.035007	-1.49624
C	0.0	0.0	0.0
F	-1.67821	-0.615764	-1.571957
H	1.090621	0.0	0.0
N	-0.390198	1.282436	-2.02276
H	-0.51528	1.207371	-3.024463
H	-1.139461	1.827247	-1.620218
N	0.467774	-0.831618	-2.327802
H	1.416954	-0.486431	-2.190549
H	0.46264	-1.772748	-1.95319
N	-0.429029	-1.295829	0.614965
O	-1.197299	-1.268402	1.576419
O	0.005539	-2.333076	0.115298
C	-0.541802	1.171302	0.786388
H	-0.086844	2.08154	0.39478
H	-0.260314	1.077574	1.83444
H	-1.631434	1.23309	0.730036
Br	3.495011	0.0	0.0
