18

C	-0.354955	0.003412	-1.4879
C	0.0	0.0	0.0
F	-0.069976	-1.332042	-1.943976
H	1.096343	0.0	0.0
N	-1.718771	0.300283	-1.772873
H	-2.282918	-0.426322	-1.349421
H	-1.858648	0.277606	-2.776731
N	0.518529	0.924811	-2.117795
H	1.482275	0.711415	-1.860654
H	0.42469	0.864284	-3.124694
N	-0.505382	-1.234945	0.658914
O	-1.686927	-1.539934	0.456979
O	0.246255	-1.84362	1.410975
C	-0.531202	1.204393	0.75094
H	-0.141661	1.199204	1.771685
H	-0.176323	2.101156	0.243912
H	-1.621861	1.210676	0.762145
Br	3.554025	0.0	0.0
