18

C	-0.388606	-0.053098	-1.490526
C	0.0	0.0	0.0
F	-0.179624	-1.396753	-1.8716
H	1.095991	0.0	0.0
N	-1.745867	0.226654	-1.868507
H	-2.363518	-0.331686	-1.291399
H	-1.928087	1.206595	-1.697681
N	0.469266	0.844942	-2.166611
H	1.441112	0.672921	-1.913096
H	0.339222	0.735586	-3.164264
N	-0.525923	-1.210096	0.683156
O	-1.756939	-1.348314	0.68294
O	0.257489	-1.985621	1.215908
C	-0.509383	1.236249	0.71197
H	-0.128328	1.255512	1.735401
H	-1.600293	1.264418	0.735734
H	-0.125491	2.113796	0.190306
Br	3.546252	0.0	0.0
