18

C	-0.429628	0.00067	-1.482591
C	0.0	0.0	0.0
F	-0.201345	1.327622	-1.906088
H	1.091957	0.0	0.0
N	0.354545	-0.816001	-2.356176
H	0.275762	-1.770861	-2.025475
H	1.329798	-0.551628	-2.226078
N	-1.797129	-0.359011	-1.622732
H	-2.038582	-0.309958	-2.604729
H	-2.386955	0.268834	-1.092016
N	-0.439154	-1.302496	0.587574
O	-1.309632	-1.290553	1.460827
O	0.079213	-2.32763	0.147358
C	-0.512893	1.161762	0.822544
H	-0.112946	2.080492	0.396186
H	-1.603332	1.213374	0.85448
H	-0.150245	1.069653	1.84696
Br	3.498466	0.0	0.0
