16
Coordinates from ORCA-job run
  C   0.38243478818943     -0.49314398064228     -0.08189535948401
  C   -0.66290870839474      0.51598282293840      0.42391041574789
  Cl  -0.49568000977014     -1.92494816728221     -0.72346692346957
  H   -0.08939363627443      1.35650523685087      0.83638831712132
  N   1.13582089960129     -0.94457635148341      1.07161148921922
  H   1.67421541374948     -1.76983124573992      0.83443974912766
  H   1.78706060824727     -0.21610545285436      1.34805839037402
  C   1.21451152841148      0.09658990143854     -1.20914214472632
  H   0.59037148115395      0.40496786477117     -2.04560009582269
  H   1.75013904501170      0.97497194022632     -0.83375426428743
  H   1.94643124770473     -0.63973980129969     -1.54715996158173
  C   -1.44649762023953     -0.06202527660681      1.53361508355170
  N   -2.16689955543811     -0.44612934352929      2.37797293469226
  N   -1.47455915711130      1.03303827379644     -0.66502294048003
  H   -2.03974850941804      1.80527474697141     -0.33308698853422
  H   -2.10629781542302      0.30716883244483     -0.98486770144806
