16
Coordinates from ORCA-job run
  C   0.31753086232604     -0.42618939480217     -0.41758331830979
  C   -0.93174232473296      0.44918326267078     -0.17577273233609
  Cl  -0.02823487788152     -1.49022753200549     -1.81336578658470
  H   -1.11000530169778      1.04672050386731     -1.07583156686189
  N   0.48518708452228     -1.27613894575330      0.75273767946241
  H   1.05708133211889     -2.07909056768175      0.52061852843952
  H   0.95880651022322     -0.75128167691111      1.48196950558957
  C   1.53460506440224      0.41771661546412     -0.76841587112327
  H   2.38083036521367     -0.23618855287429     -0.98600811157229
  H   1.79990352265089      1.06511646433548      0.07146038678253
  H   1.34485295163284      1.03894538487754     -1.64648549547359
  C   -0.60819644309930      1.37529887403548      0.93422281226471
  N   -0.37322435501735      2.07424371399977      1.84982218324580
  N   -2.08933937162134     -0.37851294632752      0.08423934994376
  H   -1.85774507235374     -1.02162002893228      0.83295827952407
  H   -2.88030994668608      0.19002482603744      0.35843415700925
