16
Coordinates from ORCA-job run
  C   0.33993932586449     -0.44231140412654     -0.45986967505720
  C   -1.03310446593345      0.06461916807702      0.03621594759550
  Cl  0.10021732126938     -0.65718501895963     -2.29043504175095
  H   -1.79586453241257     -0.57803586757946     -0.41517735711381
  N   0.66243268173393     -1.64698207929260      0.20210609137900
  H   -0.11863261273926     -2.28686844301742      0.26066745834088
  H   1.45862686052655     -2.10320287568720     -0.22380019297733
  C   1.46742674722363      0.56184979341917     -0.30450385020153
  H   1.60470105896780      0.79652506280220      0.75410844050034
  H   2.39669574407947      0.12519017992812     -0.67594405558499
  H   1.27097321200917      1.47592230179779     -0.86298862213972
  C   -1.27151290339516      1.43435116320547     -0.46184299628618
  N   -1.48880617036127      2.54694531028586     -0.77034656971586
  N   -1.15291139083444     -0.06528824772980      1.48167041791475
  H   -2.03284884250725      0.33678208146329      1.78420946410477
  H   -0.40633203349104      0.43668887541372      1.94693054099234
