16
Coordinates from ORCA-job run
  C   0.45838430695076     -0.40210013949051     -0.08117388839521
  C   -0.66617683897385      0.54665959052116      0.36986133858795
  Cl  -0.38108757880159     -1.89833237906402     -0.78868347429716
  H   -0.15053589573103      1.44794481951170      0.71867889748860
  N   1.27150907427894     -0.71923789600690      1.03475440544795
  H   0.76347457079764     -1.23049467007130      1.74728997117957
  H   2.07883315017959     -1.26223978934164      0.75581164641158
  C   1.28109334797449      0.21097597303203     -1.19498231543134
  H   1.79176932784561      1.09664414709063     -0.80864730667637
  H   2.02902618055110     -0.50473184937943     -1.54275074217478
  H   0.64111473954744      0.49369204137275     -2.02709486686768
  C   -1.37003819304758     -0.02883823414806      1.53537240414183
  N   -1.95456107564474     -0.47885281353109      2.44973461177074
  N   -1.53570683914161      0.91842269974646     -0.72945001269858
  H   -2.11683650973390      0.13128973559434     -0.99243730937195
  H   -2.14126176705129      1.67919876416389     -0.44728335911516
