16
Coordinates from ORCA-job run
  C   0.38754887736889     -0.53269027585588     -0.03844258004872
  C   -0.68259808114517      0.48232962140995      0.41515644304898
  Cl  -0.43344669830469     -2.06461347780911     -0.45926929799674
  H   -0.12466298651979      1.35453985324709      0.78755654726999
  N   1.23746398084691     -0.79651365462255      1.10926262883191
  H   1.90254185550686     -0.03688188807893      1.21536669840197
  H   1.76202793654344     -1.65125936580236      0.96651224761259
  C   1.10841714736015     -0.02549165924603     -1.27654027550072
  H   0.40673544089535      0.12709065256311     -2.09562528851019
  H   1.86953307098699     -0.74579836706738     -1.58215600483274
  H   1.60429719645973      0.92464720711816     -1.04573513249426
  C   -1.42917457201587     -0.04408309142743      1.56382135069346
  N   -2.05917264930485     -0.39697513198072      2.48914063813603
  N   -1.57024646382632      0.85908225546228     -0.67982741856391
  H   -1.43949894657375      1.82908030407849     -0.92906524466917
  H   -2.54076510827789      0.71653701801131     -0.44015531137846
