12

C	-0.161798	-0.102805	-1.509814
C	0.0	0.0	0.0
Cl	-1.816493	-0.767484	-1.99773
H	1.095318	0.0	0.0
H	-0.183689	0.899264	-1.953816
H	-0.345702	-0.918398	0.479001
N	0.880122	-0.959611	-1.983425
H	1.064356	-0.794855	-2.963768
H	1.727812	-0.741979	-1.42283
C	-0.626047	1.164669	0.58014
N	-1.130854	2.117559	1.048928
F	2.64373	0.0	0.0
