12

C	-0.150278	0.195253	-1.520071
C	0.0	0.0	0.0
Cl	-0.308029	-1.585016	-2.266693
H	1.094389	0.0	0.0
H	-1.090792	0.609609	-1.87642
H	-0.424777	-0.93631	0.356796
N	0.96264	0.893095	-1.952896
H	1.06443	0.954102	-2.952971
H	1.816493	0.60714	-1.431334
C	-0.544762	1.131837	0.724528
N	-0.996382	2.038856	1.320609
F	2.665454	0.0	0.0
