12

C	-0.46902	-0.026315	-1.45325
C	0.0	0.0	0.0
Cl	-0.065014	1.559375	-2.192784
H	1.093198	0.0	0.0
H	0.129772	-0.763954	-1.99224
H	-0.368288	0.899285	0.504303
N	-1.876029	-0.287272	-1.718411
H	-2.085412	-1.213162	-1.360129
H	-2.423897	0.371493	-1.171433
C	-0.511481	-1.176581	0.677151
N	-0.941442	-2.149411	1.180475
F	2.565505	0.0	0.0
