12

C	-0.174561	0.172088	-1.515277
C	0.0	0.0	0.0
Cl	-0.145045	-1.530797	-2.329089
H	1.094415	0.0	0.0
H	-1.14991	0.532014	-1.850222
H	-0.326516	0.929125	0.478361
N	0.881531	1.004601	-1.919875
H	0.993652	1.040343	-2.920792
H	1.747738	0.716932	-1.42625
C	-0.659635	-1.125404	0.617268
N	-1.204445	-2.006522	1.171998
F	2.645424	0.0	0.0
