12

C	-0.435854	0.005278	-1.447573
C	0.0	0.0	0.0
Cl	-0.048412	1.578944	-2.234206
H	1.092741	0.0	0.0
H	0.210436	-0.709265	-1.968762
H	-0.281678	-0.975686	0.422635
N	-1.857271	-0.225719	-1.616289
H	-2.065206	-0.445196	-2.583341
H	-2.12542	-1.013015	-1.038361
C	-0.612542	1.040896	0.800421
N	-1.08709	1.871431	1.483717
F	2.569106	0.0	0.0
