12

C	-0.200575	0.185803	-1.522533
C	0.0	0.0	0.0
Cl	-0.376792	-1.439074	-2.326737
H	1.09376	0.0	0.0
H	-1.127515	0.705275	-1.779018
H	-0.306173	0.937854	0.479914
N	0.931897	0.871862	-2.080706
H	0.782209	1.870119	-1.998547
H	1.759541	0.615499	-1.510041
C	-0.66982	-1.103139	0.646907
N	-1.226863	-1.972896	1.208303
F	2.647117	0.0	0.0
