12

C	-0.388585	0.054214	-1.449571
C	0.0	0.0	0.0
Cl	-2.18037	0.806421	-1.610795
H	1.09123	0.0	0.0
H	0.192699	0.819071	-1.961027
H	-0.316725	0.915841	0.503712
N	-0.295759	-1.17134	-2.110353
H	-0.806776	-1.90525	-1.638922
H	-0.558275	-1.116317	-3.082777
C	-0.574626	-1.146381	0.669526
N	-1.021012	-2.106194	1.182505
F	2.545176	0.0	0.0
