16

C	0.0	0.0	0.0
C	-0.471098	-0.060852	-1.482654
Cl	1.786115	0.0	0.0
H	-1.510603	-0.411085	-1.369669
C	-0.456017	1.237537	0.637609
N	-0.579484	2.282695	1.16276
C	-0.442438	-1.148658	0.80045
N	-0.578054	-2.072595	1.514415
N	0.324495	-1.098336	-2.208769
O	0.912204	-0.786127	-3.246277
O	0.308795	-2.233199	-1.732134
C	-0.418505	1.282741	-2.166395
H	-0.652795	1.170267	-3.224789
H	0.559341	1.761924	-2.077572
H	-1.183792	1.903757	-1.70062
F	-2.432802	0.0	0.0
