16

C	0.0	0.0	0.0
C	-0.382754	-0.27905	-1.497156
Cl	1.796076	0.0	0.0
H	0.506054	-0.041993	-2.093924
C	-0.414209	1.297736	0.540182
N	-0.503411	2.352716	1.053436
C	-0.44646	-1.065159	0.900785
N	-0.548889	-1.962837	1.654696
N	-1.378652	0.695782	-2.064425
O	-2.308274	0.263322	-2.73015
O	-1.078109	1.881227	-1.958922
C	-0.821858	-1.702846	-1.729359
H	-1.759788	-1.832082	-1.196048
H	-0.062607	-2.39301	-1.355045
H	-0.9666	-1.87886	-2.794649
F	-2.268769	0.0	0.0
