16

C	0.0	0.0	0.0
C	-0.206577	-0.048818	-1.578073
Cl	1.795608	0.0	0.0
H	0.440398	-0.868565	-1.893291
C	-0.500785	1.159647	0.728537
N	-0.616909	2.116387	1.404026
C	-0.480712	-1.258674	0.563711
N	-0.587196	-2.348828	0.99438
N	0.45111	1.158016	-2.191338
O	0.124468	2.263477	-1.769517
O	1.219628	0.955597	-3.132701
C	-1.543296	-0.18392	-2.278571
H	-2.193305	0.646706	-2.031645
H	-1.323348	-0.236416	-3.353851
H	-2.04402	-1.088178	-1.948997
F	-2.305758	0.0	0.0
