16

C	0.0	0.0	0.0
C	-0.380691	-0.322336	-1.485996
Cl	1.793607	0.0	0.0
H	0.503734	-0.094212	-2.090256
C	-0.414834	1.307065	0.518564
N	-0.49958	2.349711	1.056669
C	-0.446288	-1.039729	0.930089
N	-0.548609	-1.92249	1.701131
N	-1.386918	0.625833	-2.078315
O	-2.280593	0.167545	-2.777537
O	-1.12006	1.818328	-1.964524
C	-0.796508	-1.760997	-1.676015
H	-0.942995	-1.969524	-2.735714
H	-1.727526	-1.904432	-1.13256
H	-0.019293	-2.425355	-1.289342
F	-2.268031	0.0	0.0
