13
Coordinates from ORCA-job run
  C   -1.17332315696251     -0.63481022100140      0.19200682781045
  C   0.01988440476115      0.14772931824848     -0.31890452317574
  Cl  -2.71807669451479      0.10726627903756     -0.33159906082359
  H   -0.07038531743853      0.21279886523181     -1.41527255209685
  H   -1.16920614355003     -1.65396684871213     -0.19416922495220
  H   -1.17091892325243     -0.63758280094025      1.28223131262286
  C   1.29938885380710     -0.60217476387087      0.02629932268866
  H   2.17260386414457     -0.05425643524490     -0.33812706663113
  H   1.39302643739151     -0.70192319567190      1.10996856605045
  H   1.31584561112811     -1.59459470434423     -0.43053964466525
  N   0.04498879069128      1.45324643471335      0.33315141235176
  H   0.84272658605678      1.98225677302289      0.00073422931437
  H   -0.78655431226221      1.97701129953158      0.08522040150622
