13
Coordinates from ORCA-job run
  C   -1.27081537774488     -0.57211596664837     -0.01641240397945
  C   0.01942819897620      0.15948728534116     -0.35330434924480
  Cl  -1.47740802213354     -0.88447917968500      1.72655250897422
  H   0.04194416474362      0.17164046531755     -1.45875194907955
  H   -1.29116819519351     -1.53799535403508     -0.52343417753482
  H   -2.13508442235527      0.01189163362898     -0.33956790455422
  C   1.25614470775546     -0.57962662161705      0.13148053115013
  H   1.26037898929964     -1.61378360043443     -0.22100116935389
  H   2.16036291934850     -0.09305997991019     -0.24456564994819
  H   1.29015378761550     -0.57639043271497      1.22099681582440
  N   -0.00029955241610      1.49614836515093      0.22689438186091
  H   0.88079089591353      1.96198797754815      0.04741591122121
  H   -0.73242809380915      2.05629540805832     -0.19430254533593
