13
Coordinates from ORCA-job run
  C   -1.22824424378921     -0.39079605497215      0.22465684480554
  C   0.04890440165035      0.13103342605787     -0.42991064036938
  Cl  -1.57680128627471     -2.09229082400538     -0.20635547255718
  H   -0.04174270921815     -0.02157118728472     -1.51089686363066
  H   -2.08843423071544      0.19663827142854     -0.10003766302442
  H   -1.14671314417253     -0.33825838583027      1.31289966966200
  C   1.28872413837208     -0.59153267529563      0.06991968818532
  H   1.23954110075909     -1.66194669484356     -0.13037401672811
  H   1.39719914043809     -0.45295638553257      1.15133026667305
  H   2.17249497299461     -0.17711475224550     -0.41629748540888
  N   0.21496486225393      1.56485169287129     -0.20545847570641
  H   0.30707452674577      1.75460141824978      0.78656717258023
  H   -0.58796752904388      2.08034215140230     -0.54704302448108
