14

C	0.0	0.0	0.0
C	-0.435174	-0.026808	-1.475233
Br	1.962563	0.0	0.0
H	-1.538199	-0.079863	-1.522143
C	-0.450427	1.347825	0.761822
N	-1.582797	1.492159	0.911119
N	-0.228279	-1.215032	0.818677
O	-0.091511	-2.312218	0.243857
O	-0.230006	-1.059197	2.043202
C	-0.159484	-1.148541	-2.416445
N	-0.685008	-1.56303	-3.403003
C	-0.307571	1.204762	-2.318526
N	-0.866482	1.660868	-3.296448
F	-1.967072	0.0	0.0
