14

C	0.0	0.0	0.0
C	-0.3363	-0.445289	-1.450224
Br	1.969405	0.0	0.0
H	0.341778	-1.275825	-1.673077
C	-0.455565	1.313747	0.408504
N	-0.567147	2.437165	0.74082
N	-0.388672	-1.074562	0.994393
O	-0.52686	-0.727111	2.154548
O	-0.416506	-2.216642	0.556867
C	-0.001389	0.641811	-2.375563
N	0.273342	1.477768	-3.154187
C	-1.700151	-0.930499	-1.733911
N	-2.485896	-1.50374	-2.403128
F	-2.256883	0.0	0.0
