14

C	0.0	0.0	0.0
C	-0.435811	-0.241959	-1.490049
Br	1.930517	0.0	0.0
H	-0.482029	0.766459	-1.921149
C	-0.476662	1.262236	0.538524
N	-0.576475	2.364719	0.939559
N	-0.396463	-1.171894	0.879321
O	-0.429946	-2.258689	0.32256
O	-0.533235	-0.945089	2.069878
C	-1.751745	-0.872611	-1.725622
N	-2.529613	-1.489385	-2.364434
C	0.536892	-1.013003	-2.286948
N	1.231047	-1.626794	-3.010246
F	-2.294956	0.0	0.0
