14

C	0.0	0.0	0.0
C	-0.367481	-0.334751	-1.470346
Br	1.961373	0.0	0.0
H	0.286286	-1.16335	-1.762805
C	-0.450746	1.279274	0.512139
N	-0.552291	2.375537	0.927386
N	-0.397013	-1.144043	0.915958
O	-0.426709	-2.251475	0.398063
O	-0.541911	-0.878867	2.096664
C	-0.022996	0.808187	-2.321606
N	0.27371	1.692673	-3.035486
C	-1.751807	-0.772692	-1.750202
N	-2.534095	-1.298997	-2.463309
F	-2.288642	0.0	0.0
