16

C	-0.47812	-0.002375	-1.442442
C	0.0	0.0	0.0
Br	0.396895	1.332873	-2.501739
H	1.092427	0.0	0.0
H	-0.296723	-0.971786	-1.899304
N	-1.981872	0.192693	-1.450642
O	-2.46936	1.281139	-1.72464
O	-2.607245	-0.803757	-1.088779
N	-0.366321	-1.330747	0.607161
O	-0.089659	-2.333999	-0.043536
O	-0.870044	-1.336653	1.729193
C	-0.5204	1.149933	0.830413
H	-0.269054	2.085789	0.328653
H	-1.600073	1.096062	0.983284
H	-0.0296	1.140291	1.802273
Br	3.4061	0.0	0.0
