12
Coordinates from ORCA-job run
  C   -0.52245451887212      0.62360730083442     -0.06396330422259
  C   0.97327451420196      0.58923431335451      0.27897577611053
  H   -0.99422935340304      1.37568732479021      0.57600574290729
  H   1.11496104985833      0.29311111604406      1.32326340121674
  H   -0.64204395101274      0.96395623094375     -1.09668009510522
  H   1.42156385010111      1.58003813990136      0.16136655722257
  C   -1.19791821703478     -0.72948435194647      0.12651837626859
  H   -0.76248887666109     -1.48387499365533     -0.53239305030220
  H   -1.09073542296173     -1.07851220008474      1.15715996460092
  H   -2.26520484953642     -0.66616465542809     -0.09549779172886
  C   1.70435477188741     -0.35307961475557     -0.56934441614462
  N   2.26192100343310     -1.11551860999811     -1.26541116082314
