12
Coordinates from ORCA-job run
  C   -0.29372190965438      0.17873915229828      0.73975842994583
  C   0.89368759038210      0.75562450761442     -0.04317817204825
  H   -0.78792018187051      1.00776860523061      1.25583926682421
  H   0.54038194117016      1.46581034586568     -0.79754251426821
  H   0.08536152063814     -0.49655616600968      1.51244285946533
  H   1.56916409780052      1.30158683899767      0.62173805130461
  C   -1.28676546463319     -0.55132473891271     -0.15713812274306
  H   -1.68023748627229      0.11560683583532     -0.92915604806324
  H   -0.81707810347465     -1.40303747040835     -0.65413718497158
  H   -2.13239640670396     -0.92632443545158      0.42309430578504
  C   1.65865307655241     -0.29190137314306     -0.72112848801418
  N   2.25087132606564     -1.15499210191660     -1.25159238321650
