15

C	-0.01885	-0.000462	-0.008455
C	-0.478183	0.240696	-1.462659
F	1.367723	-0.003822	0.025908
H	-1.581519	0.226568	-1.428002
N	-0.445811	1.128101	0.769884
H	-1.466634	1.091415	0.804172
H	-0.095896	1.011156	1.715325
N	-0.440192	-1.323098	0.360377
H	-1.460028	-1.299079	0.422158
H	-0.072766	-1.526966	1.284133
C	-0.000453	-0.819748	-2.353074
N	0.378655	-1.629862	-3.11284
C	-0.01776	1.539643	-1.959074
N	0.346319	2.558258	-2.414227
Cl	-3.487534	-0.030842	0.119145
