15

C	0.0	0.0	0.0
C	-0.581412	0.189534	-1.425775
Cl	1.78664	0.0	0.0
H	-1.626811	0.460809	-1.238726
C	-0.39603	1.134991	0.842857
N	-0.598345	2.078174	1.512487
C	-0.422705	-1.265202	0.607101
N	-0.664653	-2.303649	1.100099
N	-0.444542	-1.074201	-2.147301
H	-0.741656	-0.89417	-3.100617
H	-1.130677	-1.721202	-1.763316
N	0.096619	1.287498	-2.062223
H	0.935038	0.958809	-2.528275
H	-0.518435	1.730268	-2.731054
Cl	-3.519112	0.0	0.0
