15

C	0.0	0.0	0.0
C	-0.580175	0.065021	-1.437493
Cl	1.770678	0.0	0.0
H	-1.630287	0.332332	-1.274764
C	-0.405128	1.202225	0.741003
N	-0.607294	2.187205	1.347508
C	-0.426591	-1.210183	0.711288
N	-0.645962	-2.219783	1.270415
N	-0.41545	-1.249123	-2.057274
H	-0.729835	-1.154777	-3.017663
H	-1.076135	-1.88348	-1.613752
N	0.082654	1.118442	-2.15895
H	-0.542273	1.50644	-2.851478
H	0.91773	0.761902	-2.608237
Cl	-3.508613	0.0	0.0
