14

C	0.0	0.0	0.0
C	-0.53464	-0.12577	-1.438896
Br	1.94933	0.0	0.0
H	-0.022399	0.63003	-2.045579
H	-0.328513	-0.846933	0.605708
C	-0.41998	1.25332	0.619887
N	-0.704004	2.286373	1.102187
C	-2.050673	0.085632	-1.497549
H	-2.407823	-0.091462	-2.513494
H	-2.311934	1.105125	-1.218148
H	-2.609972	-0.560417	-0.821694
C	-0.153195	-1.442071	-1.963299
N	0.145585	-2.510841	-2.347991
Cl	-5.033778	0.0	0.0
