14

C	0.0	0.0	0.0
C	-0.491426	-0.180864	-1.447175
Br	1.949169	0.0	0.0
H	-1.581332	-0.026491	-1.37136
H	-0.364785	-0.820237	0.617327
C	-0.394681	1.284422	0.574785
N	-0.570453	2.339847	1.060038
C	-0.21814	-1.589982	-1.971817
H	-0.741431	-2.311258	-1.340468
H	-0.601299	-1.687034	-2.989361
H	0.850426	-1.816486	-1.980655
C	0.086179	0.825098	-2.335672
N	0.539225	1.599467	-3.094686
Cl	-3.315052	0.0	0.0
