14

C	0.0	0.0	0.0
C	-0.400965	-0.191279	-1.509557
Br	1.952251	0.0	0.0
H	0.529263	-0.426541	-2.035019
H	-0.350084	-0.824337	0.616879
C	-0.408606	1.277079	0.573939
N	-0.564321	2.345557	1.039025
C	-0.958249	1.063429	-2.180422
H	-0.215824	1.864635	-2.115895
H	-1.8851	1.363691	-1.698311
H	-1.145438	0.850754	-3.236734
C	-1.207614	-1.397508	-1.720333
N	-1.613736	-2.448091	-2.056248
Cl	-3.087561	0.0	0.0
