14

C	0.0	0.0	0.0
C	-0.402887	-0.028664	-1.520067
Br	1.95238	0.0	0.0
H	0.526608	-0.203702	-2.070027
H	-0.351481	-0.881374	0.531054
C	-0.398913	1.210356	0.710072
N	-0.578825	2.201398	1.31529
C	-0.967106	1.290275	-2.048146
H	-1.146141	1.19628	-3.122696
H	-0.234008	2.086181	-1.887536
H	-1.899593	1.521152	-1.540286
C	-1.207877	-1.206941	-1.856664
N	-1.61801	-2.220792	-2.287669
Cl	-3.112993	0.0	0.0
