15

C	0.0	0.0	0.0
C	-0.554625	-0.176331	-1.414991
Cl	1.783568	0.0	0.0
H	-1.601998	-0.489881	-1.284622
H	-0.34699	0.965096	0.369932
C	-0.407829	-1.032762	0.95717
N	-0.629539	-1.836764	1.783761
N	0.15565	-1.305632	-2.096031
O	0.632481	-1.114397	-3.215068
O	0.199279	-2.371656	-1.487375
C	-0.4949	1.104605	-2.211757
H	-1.179179	1.810606	-1.736849
H	0.514545	1.518986	-2.246733
H	-0.836295	0.934473	-3.231627
Br	-3.559221	0.0	0.0
