15

C	0.0	0.0	0.0
C	-0.396493	-0.530051	-1.40772
Cl	1.785669	0.0	0.0
H	0.519864	-0.526111	-2.004371
H	-0.354037	1.020119	0.12767
C	-0.427549	-0.844788	1.110762
N	-0.586556	-1.524424	2.056362
N	-1.198979	0.497629	-2.177962
O	-1.856535	0.08648	-3.124913
O	-0.980752	1.678193	-1.926163
C	-0.980453	-1.923955	-1.458017
H	-1.150386	-2.208773	-2.496027
H	-1.919364	-1.956461	-0.908106
H	-0.254841	-2.616452	-1.019968
Br	-3.383639	0.0	0.0
