15

C	0.0	0.0	0.0
C	-0.545233	-0.176088	-1.419063
Cl	1.783941	0.0	0.0
H	-1.595005	-0.480562	-1.293346
H	-0.348519	0.96499	0.368534
C	-0.416336	-1.036191	0.949599
N	-0.612196	-1.847722	1.775655
N	0.163093	-1.31407	-2.08443
O	0.11413	-2.39942	-1.510119
O	0.737496	-1.110132	-3.15443
C	-0.463356	1.09942	-2.221979
H	0.549753	1.50539	-2.243837
H	-0.78841	0.924564	-3.24675
H	-1.15007	1.813324	-1.762688
Br	-3.541443	0.0	0.0
