15

C	0.0	0.0	0.0
C	-0.413453	-0.058455	-1.495378
Cl	1.783956	0.0	0.0
H	0.499417	0.116389	-2.072489
H	-0.345731	0.927917	0.449097
C	-0.431087	-1.150976	0.787859
N	-0.616173	-2.079933	1.482782
N	-1.202572	1.173306	-1.889777
O	-1.862395	1.09688	-2.917457
O	-0.977927	2.205765	-1.266656
C	-1.028334	-1.354494	-1.975945
H	-1.959975	-1.545337	-1.447302
H	-0.313559	-2.163312	-1.796726
H	-1.219278	-1.283078	-3.045923
Br	-3.44373	0.0	0.0
