15

C	0.0	0.0	0.0
C	-0.542746	-0.228792	-1.413803
Cl	1.783665	0.0	0.0
H	-1.584797	-0.551703	-1.27783
H	-0.34992	0.976087	0.336262
C	-0.407433	-1.008273	0.983389
N	-0.587374	-1.799571	1.832161
N	0.187593	-1.37101	-2.048105
O	0.160418	-2.440313	-1.44288
O	0.75546	-1.186447	-3.125056
C	-0.493899	1.023998	-2.253535
H	-1.205435	1.727531	-1.817397
H	0.506144	1.460162	-2.284022
H	-0.808353	0.808509	-3.273565
Br	-3.530292	0.0	0.0
