19

C	-0.424748	0.002141	-1.464769
C	0.0	0.0	0.0
Cl	0.365676	-1.294934	-2.370782
H	1.095636	0.0	0.0
N	-1.974157	-0.324916	-1.496675
O	-2.70868	0.66354	-1.43064
O	-2.363533	-1.485554	-1.501188
N	-0.171328	1.229407	-2.115106
H	-0.734892	1.963222	-1.710402
H	-0.355481	1.161631	-3.107433
C	-0.460909	-1.241361	0.75802
H	-0.229848	-2.157953	0.214597
H	-1.535338	-1.225189	0.96939
H	0.076546	-1.275682	1.708021
C	-0.432683	1.274442	0.725273
H	-1.518495	1.416681	0.720032
H	-0.102618	1.202165	1.764091
H	0.057474	2.153335	0.302467
Br	3.618493	0.0	0.0
