19

C	-0.495316	-0.008164	-1.438043
C	0.0	0.0	0.0
Cl	0.382741	1.283245	-2.395993
H	1.092082	0.0	0.0
N	-0.089022	-1.28918	-2.179281
O	0.929308	-1.855582	-1.817331
O	-0.806533	-1.624593	-3.122349
N	-1.902211	0.085809	-1.554069
H	-2.20847	0.983215	-1.203031
H	-2.173908	-0.015422	-2.524247
C	-0.491911	-1.237084	0.751912
H	-0.057022	-2.149286	0.343969
H	-1.582564	-1.312879	0.728741
H	-0.163734	-1.164153	1.791791
C	-0.466781	1.267619	0.71423
H	-0.191946	2.169621	0.164667
H	0.030231	1.316225	1.685318
H	-1.548784	1.26306	0.893106
Br	3.624848	0.0	0.0
