19

C	-0.345483	0.008524	-1.493005
C	0.0	0.0	0.0
Cl	0.300577	-1.443651	-2.291192
H	1.097344	0.0	0.0
N	-1.873026	-0.038143	-1.62503
O	-2.439878	1.054527	-1.626057
O	-2.438939	-1.1226	-1.618754
N	0.093072	1.144829	-2.244805
H	1.100301	1.201594	-2.12686
H	-0.330332	1.977085	-1.855595
C	-0.494537	-1.227586	0.755408
H	-0.214918	-2.15325	0.253806
H	-1.581978	-1.21913	0.887234
H	-0.028696	-1.233593	1.744278
C	-0.447339	1.275581	0.711074
H	-0.015665	2.170907	0.260355
H	-0.077642	1.234276	1.738549
H	-1.536255	1.384111	0.741932
Br	3.577374	0.0	0.0
