14

C	-0.423187	-0.025588	-1.470881
C	0.0	0.0	0.0
Cl	0.1472	1.420186	-2.346766
H	1.095555	0.0	0.0
H	0.065659	-0.881746	-1.941515
C	-1.872586	-0.143117	-1.635795
N	-3.035052	-0.25942	-1.749284
C	-0.452755	-1.275724	0.715255
H	-0.044437	-2.146704	0.195435
H	-0.044815	-1.27717	1.72724
H	-1.54198	-1.359144	0.7673
C	-0.514356	1.188337	0.674157
N	-0.943761	2.121482	1.244887
Br	3.413764	0.0	0.0
