14

C	-0.520085	0.013944	-1.445556
C	0.0	0.0	0.0
Cl	0.077717	-1.399933	-2.36279
H	1.095776	0.0	0.0
H	-1.611804	-0.06901	-1.441689
C	-0.169234	1.237588	-2.164877
N	0.041115	2.226897	-2.761603
C	-0.463395	-1.240079	0.767175
H	-0.110752	-1.171162	1.797282
H	-0.021234	-2.131316	0.322843
H	-1.554298	-1.333579	0.770613
C	-0.496768	1.206453	0.658499
N	-0.942244	2.145028	1.207835
Br	3.436742	0.0	0.0
