14

C	-0.40773	-0.052319	-1.475958
C	0.0	0.0	0.0
Cl	0.045292	1.439337	-2.342558
H	1.095573	0.0	0.0
H	0.162223	-0.862122	-1.939196
C	-1.838297	-0.301155	-1.657893
N	-2.984624	-0.526869	-1.783945
C	-0.434076	-1.276721	0.726707
H	-1.520989	-1.377721	0.779725
H	-0.025498	-1.262272	1.738266
H	-0.011189	-2.144924	0.214795
C	-0.53585	1.183629	0.660492
N	-0.985341	2.105928	1.232728
Br	3.423878	0.0	0.0
