14

C	-0.374853	0.002716	-1.483808
C	0.0	0.0	0.0
Cl	-2.148253	0.201458	-1.750469
H	1.097609	0.0	0.0
H	0.105033	0.853812	-1.971932
C	0.048209	-1.2278	-2.14999
N	0.352109	-2.214019	-2.710933
C	-0.500887	-1.220428	0.765969
H	-0.148371	-1.1631	1.79692
H	-0.082472	-2.125233	0.320658
H	-1.591669	-1.282629	0.764159
C	-0.457205	1.242072	0.615854
N	-0.844966	2.225535	1.128172
Br	3.409233	0.0	0.0
