12

C	0.0	0.0	0.0
C	-0.4644	-0.169235	-1.429871
F	1.386579	0.0	0.0
H	-0.155898	-1.164071	-1.757201
H	0.008649	0.58863	-2.056759
H	-1.550138	-0.079034	-1.473624
C	-0.326875	1.370303	0.506128
N	-0.504576	2.463053	0.897903
N	-0.494864	-1.053069	0.823193
H	-0.335426	-0.826565	1.798787
H	-1.509861	-1.076569	0.683291
Br	-3.77162	0.0	0.0
