12

C	0.0	0.0	0.0
C	-0.431867	-0.31044	-1.416498
F	1.411807	0.0	0.0
H	-1.519797	-0.258521	-1.485483
H	0.047157	0.394528	-2.098589
H	-0.07828	-1.316781	-1.66478
C	-0.334735	1.391397	0.394197
N	-0.459991	2.522343	0.679201
N	-0.524466	-0.909199	0.922899
H	-0.432989	-1.868262	0.625859
H	-0.207186	-0.764535	1.869136
Br	-3.972626	0.0	0.0
