12

C	0.0	0.0	0.0
C	-0.431212	-0.314771	-1.421074
F	1.400234	0.0	0.0
H	-1.520522	-0.287217	-1.461536
H	-0.000428	0.401604	-2.123806
H	-0.071269	-1.318186	-1.668832
C	-0.357472	1.393741	0.366461
N	-0.52594	2.514916	0.6684
N	-0.487855	-0.884594	1.011918
H	-1.466731	-0.632305	1.169578
H	-0.516586	-1.823221	0.621575
Br	-3.750748	0.0	0.0
