15

C	0.0	0.0	0.0
C	-0.391162	0.001108	-1.501553
Cl	1.76714	0.0	0.0
H	0.249357	0.750082	-1.975979
N	-0.386852	1.393671	0.579429
O	-0.537262	1.44429	1.791533
O	-0.439401	2.33896	-0.197685
N	-0.500112	-1.077913	0.715584
H	-0.206039	-1.005356	1.682296
H	-1.541633	-0.912263	0.621163
C	-1.763367	0.339799	-1.939071
N	-2.518926	0.656024	-2.788281
C	-0.014062	-1.297887	-2.073422
N	0.296604	-2.30285	-2.595027
F	-2.605116	0.0	0.0
