15

C	0.0	0.0	0.0
C	-0.39814	0.114016	-1.521053
Cl	1.76982	0.0	0.0
H	0.349755	0.750928	-2.001701
N	-0.405295	1.340616	0.645661
O	-0.340653	2.317898	-0.095026
O	-0.660669	1.352054	1.83495
N	-0.487811	-1.05115	0.776074
H	-1.529406	-0.916005	0.652205
H	-0.15761	-1.932117	0.400917
C	-1.700452	0.687033	-1.903655
N	-2.460563	1.242594	-2.612785
C	-0.265743	-1.22868	-2.090835
N	-0.162881	-2.305859	-2.547297
F	-2.574197	0.0	0.0
