15

C	0.0	0.0	0.0
C	-0.396946	0.277741	-1.481379
Cl	1.809084	0.0	0.0
H	-0.184196	-0.688128	-1.957825
N	-0.372139	1.229685	0.867469
O	-0.516671	2.302854	0.299558
O	-0.443894	1.02622	2.071927
N	-0.506468	-1.205228	0.464273
H	-1.54938	-1.007529	0.389622
H	-0.232875	-1.324405	1.433355
C	0.469965	1.26764	-2.139651
N	1.164715	2.006608	-2.731404
C	-1.785609	0.642873	-1.844987
N	-2.585984	1.026325	-2.623709
F	-2.615366	0.0	0.0
