17

C	-0.432936	-0.085943	-1.480349
C	0.0	0.0	0.0
Cl	-2.106818	-0.671765	-1.613947
H	1.091437	0.0	0.0
N	-0.389886	1.372103	-1.982035
O	0.742243	1.779621	-2.203762
O	-1.426823	2.006228	-2.092967
N	0.419541	-0.832328	-2.344709
H	0.402837	-1.794083	-2.020958
H	1.370244	-0.492236	-2.182956
N	-0.365173	-1.326739	0.667969
O	0.013602	-2.359663	0.124281
O	-1.006485	-1.280632	1.714443
N	-0.510258	1.129467	0.671559
H	0.07901	1.355447	1.462088
H	-1.463628	0.989963	0.980142
Br	3.392989	0.0	0.0
