17

C	-0.29422	0.029829	-1.520586
C	0.0	0.0	0.0
Cl	0.162061	-1.51924	-2.215533
H	1.090626	0.0	0.0
N	-1.779943	0.294593	-1.809262
O	-2.495401	-0.57761	-2.269505
O	-2.140674	1.439334	-1.526399
N	0.432109	1.074099	-2.182751
H	1.424607	0.891927	-2.020461
H	0.202361	1.950196	-1.726639
N	-0.600364	-1.230351	0.608197
O	-1.831701	-1.283599	0.556254
O	0.130307	-2.063229	1.126774
N	-0.421833	1.121201	0.770795
H	0.346867	1.756553	0.922323
H	-1.247547	1.582588	0.42283
Br	3.421968	0.0	0.0
