16

C	0.0	0.0	0.0
C	-0.535215	-0.000325	-1.502498
Br	1.916293	0.0	0.0
H	-1.636522	-0.146177	-1.440867
N	-0.381312	1.18022	0.767526
H	0.010778	1.186175	1.679069
H	-1.414694	1.168447	0.825229
N	-0.491503	-1.471475	0.618722
O	-1.665689	-1.664149	0.953403
O	0.358583	-2.330493	0.774311
C	0.016797	-1.032147	-2.307615
N	0.374002	-1.925252	-2.979466
N	-0.393555	1.358217	-2.063591
O	0.667454	1.620588	-2.621893
O	-1.343342	2.126765	-1.910746
F	-1.839956	0.0	0.0
