16

C	-0.2362	0.123031	-1.512167
C	0.0	0.0	0.0
F	-1.399108	0.888491	-1.786381
H	1.09151	0.0	0.0
H	-0.504325	-0.870746	-1.902723
N	0.90735	0.690676	-2.133242
H	1.726648	0.587349	-1.512363
H	1.089618	0.26145	-3.028326
C	-0.614364	-1.230283	0.617502
H	-1.698732	-1.265841	0.475961
H	-0.405374	-1.27252	1.686832
H	-0.158829	-2.107322	0.150462
N	-0.447228	1.238176	0.676319
O	0.029977	2.301817	0.287813
O	-1.258671	1.145383	1.607709
F	2.650566	0.0	0.0
