16

C	-0.242245	-0.181306	-1.498832
C	0.0	0.0	0.0
F	-0.185168	1.08623	-2.09035
H	1.092529	0.0	0.0
H	-1.230925	-0.589922	-1.746
N	0.811738	-0.978547	-2.056677
H	1.667753	-0.770999	-1.516655
H	0.592329	-1.961024	-1.976806
C	-0.53595	-1.1641	0.809876
H	-0.319415	-1.013999	1.870273
H	-0.021862	-2.076078	0.499575
H	-1.617009	-1.288728	0.68123
N	-0.643442	1.240531	0.491794
O	-1.860183	1.35085	0.29332
O	0.03248	2.072249	1.09146
F	2.661814	0.0	0.0
