16

C	-0.455896	-0.05407	-1.435017
C	0.0	0.0	0.0
F	-0.243529	1.192476	-2.009639
H	1.092517	0.0	0.0
H	-1.531528	-0.259885	-1.53551
N	0.325603	-1.029759	-2.155766
H	1.248771	-1.059293	-1.709453
H	-0.118149	-1.935683	-2.08951
C	-0.470404	-1.223625	0.780731
H	-0.003268	-2.120034	0.364689
H	-0.133777	-1.141906	1.816487
H	-1.561213	-1.325632	0.765401
N	-0.56789	1.201049	0.66532
O	0.188653	2.026864	1.17118
O	-1.807736	1.29461	0.681382
F	2.652444	0.0	0.0
