16

C	-0.425113	-0.037067	-1.466764
C	0.0	0.0	0.0
F	-0.189257	-1.335697	-1.908757
H	1.090367	0.0	0.0
H	0.221818	0.623486	-2.042611
N	-1.800149	0.280448	-1.777942
H	-1.893695	1.28666	-1.727602
H	-2.408121	-0.1211	-1.0691
C	-0.508398	-1.145811	0.842307
H	-1.600444	-1.163793	0.949426
H	-0.176296	-2.073954	0.378615
H	-0.071915	-1.083184	1.837699
N	-0.392264	1.296106	0.56
O	-0.357062	2.284787	-0.189879
O	-0.690253	1.37508	1.758013
F	2.541057	0.0	0.0
