16

C	-0.443381	-0.056482	-1.459247
C	0.0	0.0	0.0
F	-0.19262	-1.355314	-1.89179
H	1.090361	0.0	0.0
H	0.183739	0.607525	-2.051649
N	-1.82783	0.236911	-1.753257
H	-1.929157	1.24264	-1.719582
H	-2.417251	-0.155162	-1.02343
C	-0.499156	-1.133562	0.864491
H	-0.039743	-1.064431	1.848697
H	-0.185729	-2.069581	0.402732
H	-1.588823	-1.140308	0.995059
N	-0.37656	1.30463	0.553322
O	-0.586537	1.405661	1.766195
O	-0.39883	2.279379	-0.215372
F	2.542403	0.0	0.0
