15

C	-0.552344	-0.068599	-1.509434
C	0.064007	0.010637	-0.10894
Cl	-2.387989	-0.3675	-1.308498
H	1.154521	0.093128	-0.163233
N	-0.284407	1.090783	-2.277748
H	-0.739931	1.054314	-3.180317
H	-0.577535	1.921868	-1.777296
C	-0.064316	-1.255643	-2.217426
N	0.313308	-2.148278	-2.880327
N	-0.12327	-1.203198	0.645271
H	-0.930217	-1.137095	1.252764
H	0.7871	-1.20943	1.174426
C	-0.423615	1.245171	0.529043
N	-0.838078	2.234324	1.011643
F	2.236699	-0.500975	1.254209
