15

C	-0.555283	0.026945	-1.500176
C	0.058054	0.023279	-0.097346
Cl	-2.406359	-0.187484	-1.315426
H	1.158973	0.044726	-0.138964
N	-0.22809	1.199394	-2.2244
H	-0.479737	2.024771	-1.692862
H	-0.684344	1.219899	-3.127121
C	-0.125939	-1.155881	-2.251937
N	0.207354	-2.041275	-2.947529
N	-0.193079	-1.209963	0.607428
H	-0.980321	-1.124435	1.237501
H	0.722363	-1.305562	1.108495
C	-0.371893	1.25241	0.587245
N	-0.737543	2.239742	1.111524
F	2.241501	-0.670382	1.136036
