15

C	-0.597297	0.089833	-1.484523
C	0.008236	0.117807	-0.05345
Cl	0.520202	-0.958285	-2.506674
H	1.098471	0.230843	-0.107649
N	-1.911826	-0.423306	-1.399967
H	-1.830957	-1.242276	-0.793899
H	-2.273994	-0.67357	-2.310923
C	-0.586486	1.405242	-2.131232
N	-0.596126	2.456474	-2.656096
N	-0.23107	-1.175076	0.573322
H	0.799621	-1.477834	0.70276
H	-0.652688	-1.03249	1.483378
C	-0.594033	1.233609	0.681205
N	-1.065036	2.105468	1.313507
F	2.26175	-1.220566	0.616878
