15

C	-0.603514	0.04671	-1.482146
C	0.005627	0.11356	-0.053846
Cl	0.525901	-1.009731	-2.484102
H	1.092384	0.240903	-0.114166
N	-1.910501	-0.481512	-1.382556
H	-1.817669	-1.285339	-0.758155
H	-2.272154	-0.756461	-2.286544
C	-0.610891	1.346933	-2.158726
N	-0.639138	2.383793	-2.710834
N	-0.215856	-1.167158	0.602344
H	0.820095	-1.454729	0.736206
H	-0.635513	-1.008567	1.510658
C	-0.609301	1.238503	0.65705
N	-1.09894	2.11196	1.272767
F	2.275419	-1.186503	0.653816
