16

C	-0.536889	0.013833	-1.438709
C	0.0	0.0	0.0
F	-0.186061	-1.228784	-1.971774
H	1.088088	0.0	0.0
H	-0.39949	0.850395	0.554862
N	-1.964071	0.125335	-1.597358
H	-2.23931	1.09281	-1.491028
H	-2.418871	-0.414305	-0.868929
C	0.178357	1.086294	-2.227436
H	-0.042273	2.075652	-1.816554
H	-0.165184	1.041666	-3.26253
H	1.254936	0.91943	-2.172601
N	-0.513011	-1.218321	0.678007
O	-1.731149	-1.249445	0.915718
O	0.261999	-2.127481	0.940446
Cl	3.360036	0.0	0.0
