16

C	-0.377356	0.01802	-1.480376
C	0.0	0.0	0.0
F	-1.758975	0.242118	-1.573278
H	1.090427	0.0	0.0
H	-0.399913	-0.870493	0.516008
N	0.272699	1.031072	-2.266364
H	0.17678	1.91468	-1.776788
H	1.268003	0.819559	-2.265959
C	-0.072852	-1.347409	-2.061053
H	-0.697723	-2.106596	-1.586938
H	-0.281639	-1.321568	-3.131433
H	0.97893	-1.59335	-1.896665
N	-0.507221	1.173198	0.746167
O	-0.325581	2.296606	0.274352
O	-1.08486	0.960419	1.812397
Cl	3.331095	0.0	0.0
