16

C	-0.452639	0.010464	-1.456504
C	0.0	0.0	0.0
F	-0.013264	1.284891	-1.923266
H	1.088929	0.0	0.0
H	-0.401917	0.868264	0.517349
N	0.182874	-1.047779	-2.143445
H	0.03954	-0.962265	-3.141966
H	1.177933	-1.060115	-1.933914
C	-1.950921	0.00837	-1.671521
H	-2.158231	0.076889	-2.74303
H	-2.403224	-0.899445	-1.275663
H	-2.394793	0.874848	-1.179382
N	-0.524127	-1.198105	0.695557
O	-1.623709	-1.083015	1.25303
O	0.135253	-2.232087	0.658211
Cl	3.443181	0.0	0.0
