16

C	0.0	0.0	0.0
C	-0.396846	-0.508532	-1.401457
F	1.36147	0.0	0.0
H	0.565475	-0.529408	-1.927445
H	-0.391817	0.983048	0.22649
N	-0.336943	-0.867274	1.1856
O	-0.237592	-2.085321	1.067998
O	-0.518469	-0.266085	2.239653
N	-1.092832	0.604985	-2.161525
O	-1.786745	0.29473	-3.120048
O	-0.772837	1.753952	-1.869748
C	-1.051575	-1.857866	-1.606308
H	-0.355	-2.634188	-1.29069
H	-1.977809	-1.92395	-1.043268
H	-1.259747	-1.974044	-2.669698
Cl	-3.134015	0.0	0.0
