16

C	0.0	0.0	0.0
C	-0.392275	-0.368252	-1.44733
F	1.364373	0.0	0.0
H	0.572586	-0.343614	-1.967313
H	-0.397642	0.953062	0.322651
N	-0.328852	-0.986261	1.090706
O	-0.218584	-2.1846	0.845399
O	-0.507677	-0.499254	2.203202
N	-1.086065	0.814481	-2.099068
O	-1.790668	0.593148	-3.074527
O	-0.756914	1.930871	-1.706589
C	-1.058848	-1.684499	-1.792235
H	-1.213722	-1.710027	-2.869645
H	-2.014722	-1.76042	-1.283306
H	-0.404462	-2.504465	-1.504501
Cl	-3.131826	0.0	0.0
