17

C	0.0	0.0	0.0
C	-0.565684	-0.160407	-1.4197
Br	1.96926	0.0	0.0
H	-1.655979	-0.255717	-1.278069
C	-0.363396	1.342323	0.464574
N	-0.565594	2.407012	0.919282
C	-0.483969	-1.039774	1.00242
H	-1.577964	-1.03752	0.973198
H	-0.138865	-0.762494	2.000019
H	-0.104795	-2.02774	0.748914
N	-0.093103	-1.49854	-1.997496
O	-0.567167	-2.524317	-1.517547
O	0.725996	-1.46245	-2.916551
N	-0.246093	0.937103	-2.251946
H	0.701817	0.868709	-2.599032
H	-0.891037	0.99178	-3.027978
Br	-3.814743	0.0	0.0
