17

C	0.0	0.0	0.0
C	-0.616965	0.116125	-1.422196
Br	1.954849	0.0	0.0
H	-1.641064	-0.262601	-1.305992
C	-0.364203	1.211932	0.737885
N	-0.570438	2.198845	1.342511
C	-0.466655	-1.243664	0.749558
H	-1.554404	-1.191857	0.828525
H	-0.015903	-1.271713	1.741406
H	-0.182112	-2.13482	0.194341
N	0.113825	-0.841905	-2.332582
O	-0.13768	-2.038728	-2.189587
O	0.92245	-0.380672	-3.129066
N	-0.669667	1.402002	-2.022069
H	-1.486643	1.884102	-1.664881
H	0.166676	1.946986	-1.858739
Br	-3.767808	0.0	0.0
