18

C	0.0	0.0	0.0
C	-0.563543	-0.10927	-1.427516
Br	1.959878	0.0	0.0
H	-1.662455	-0.019535	-1.307317
C	-0.465367	1.278255	0.684093
H	-0.121894	1.265334	1.720842
H	-0.074851	2.171288	0.1976
H	-1.55917	1.295054	0.6628
C	-0.469689	-1.222964	0.779399
H	-0.086484	-2.148865	0.347333
H	-0.11817	-1.147899	1.810661
H	-1.56453	-1.228596	0.770517
C	-0.222797	-1.366029	-2.083768
N	-0.005006	-2.38689	-2.622608
N	-0.119116	1.029476	-2.307603
O	0.793425	0.824167	-3.105336
O	-0.700991	2.098072	-2.143047
Br	-3.866383	0.0	0.0
