15

C	-0.409912	0.000605	-1.46068
C	0.0	0.0	0.0
Cl	-2.18058	-0.289789	-1.696489
H	1.090913	0.0	0.0
C	-0.063715	1.282333	-2.092186
N	0.237293	2.239067	-2.705593
C	0.304757	-1.028008	-2.234106
N	0.847363	-1.75552	-2.981193
N	-0.399208	-1.216637	0.679344
O	-0.189587	-2.252298	0.030931
O	-0.836158	-1.177782	1.831048
N	-0.412959	1.191826	0.718042
O	0.111871	1.348483	1.824544
O	-1.171564	2.001068	0.16091
H	2.310424	0.0	0.0
