15

C	-0.483132	-0.036475	-1.445065
C	0.0	0.0	0.0
Cl	-0.09454	1.549549	-2.208175
H	1.090135	0.0	0.0
C	0.23145	-1.069113	-2.210252
N	0.759299	-1.860204	-2.900975
C	-1.930419	-0.245148	-1.572693
N	-3.090341	-0.341322	-1.73859
N	-0.438842	-1.137828	0.729202
O	-0.745802	-2.155909	0.068017
O	-0.289175	-1.096294	1.964001
N	-0.461888	1.233822	0.698806
O	0.375859	2.089111	0.962604
O	-1.667426	1.302393	0.944501
H	2.364139	0.0	0.0
