14

C	0.0	0.0	0.0
C	-0.349284	0.105697	-1.492019
Cl	1.845344	0.0	0.0
H	-1.44275	0.246585	-1.487788
H	-0.058019	-0.809626	-2.0022
N	-0.356433	1.184637	0.735735
H	-0.13606	1.031477	1.711995
H	0.160264	1.97551	0.380049
C	-0.791664	-1.14892	0.520655
N	-0.710554	-2.235466	1.020984
N	0.269989	1.207355	-2.242734
O	0.736247	0.939703	-3.354502
O	0.232616	2.349373	-1.774224
H	-2.316678	0.0	0.0
