14

C	0.0	0.0	0.0
C	-0.533248	0.009116	-1.424643
Cl	1.791722	0.0	0.0
H	-0.311803	0.965589	-1.897245
H	-1.642019	-0.113371	-1.249521
N	-0.534615	1.117939	0.727451
H	-1.567502	0.920682	0.683148
H	-0.364215	1.956903	0.178679
C	-0.375157	-1.225696	0.73815
N	-0.543226	-2.183881	1.395821
N	-0.02366	-1.036784	-2.321531
O	0.036938	-2.189475	-1.890717
O	0.262704	-0.702968	-3.476246
H	-2.876179	0.0	0.0
