13

C	-0.581014	0.138549	-1.384393
C	0.0	0.0	0.0
F	-0.42509	-1.033208	-2.141365
H	1.094896	0.0	0.0
H	-0.076456	0.949675	-1.911286
H	-1.6569	0.336384	-1.321832
N	-0.528276	-1.219243	0.634505
H	0.173336	-1.506962	1.312494
H	-0.526325	-1.946578	-0.074209
N	-0.422527	1.195589	0.731383
H	-1.199887	0.921589	1.320785
H	0.346566	1.478025	1.328226
H	3.029208	0.0	0.0
