13

C	-0.502589	0.002579	-1.410613
C	0.0	0.0	0.0
F	-1.919636	0.00248	-1.421197
H	1.09538	0.0	0.0
H	-0.177673	0.90391	-1.931021
H	-0.177531	-0.896936	-1.934154
N	-0.406091	-1.248246	0.653571
H	0.189401	-1.380066	1.46323
H	-1.368061	-1.177467	0.967506
N	-0.406367	1.245878	0.65841
H	-1.368099	1.176658	0.970305
H	0.1865	1.372506	1.46873
H	3.004065	0.0	0.0
