13

C	-0.425328	0.036265	-1.439414
C	0.0	0.0	0.0
F	-1.821332	-0.176679	-1.563288
H	1.096488	0.0	0.0
H	-0.208312	1.009374	-1.879632
H	0.065719	-0.760125	-2.004793
N	-0.409382	-1.252737	0.658175
H	-1.125193	-1.719256	0.115549
H	0.405144	-1.854207	0.706985
N	-0.475925	1.191737	0.694874
H	-1.406341	0.992419	1.046752
H	0.122092	1.304991	1.50614
H	2.988069	0.0	0.0
