13

C	-0.57344	0.223955	-1.377931
C	0.0	0.0	0.0
F	-0.444578	1.559404	-1.792701
H	1.095743	0.0	0.0
H	-0.046126	-0.40318	-2.096959
H	-1.645139	-0.007554	-1.384087
N	-0.416652	-1.348299	0.387858
H	0.328518	-1.74623	0.945005
H	-1.232677	-1.246121	0.980815
N	-0.525117	1.014076	0.93045
H	0.204858	1.162572	1.619398
H	-0.58895	1.887792	0.418918
H	3.026118	0.0	0.0
