18

C	0.0	0.0	0.0
C	-0.509238	0.093965	-1.444142
F	1.390427	0.0	0.0
H	-1.61408	0.154173	-1.312615
C	-0.412724	1.226736	0.798688
H	0.014679	2.139362	0.375015
H	-0.049638	1.115065	1.826085
H	-1.507417	1.26555	0.794915
N	-0.50043	-1.232084	0.543566
H	-1.530625	-1.125716	0.45648
H	-0.303407	-1.229087	1.541021
C	-0.132626	-1.124965	-2.288275
H	-0.546813	-2.019475	-1.825737
H	-0.530015	-1.022895	-3.301566
H	0.953606	-1.23151	-2.343488
C	-0.034638	1.315128	-2.087912
N	0.337414	2.280329	-2.646548
H	-3.103147	0.0	0.0
