18

C	0.0	0.0	0.0
C	-0.495504	0.30703	-1.41676
F	1.417391	0.0	0.0
H	-1.60017	0.366006	-1.28354
C	-0.397929	1.100642	0.969225
H	0.035833	2.061463	0.680607
H	-0.033725	0.837174	1.967556
H	-1.49259	1.146033	0.974394
N	-0.497043	-1.294699	0.356704
H	-1.525709	-1.185734	0.263436
H	-0.315362	-1.439756	1.345556
C	-0.135234	-0.78644	-2.424714
H	-0.503295	-0.521619	-3.419252
H	-0.58952	-1.724091	-2.111028
H	0.947943	-0.920492	-2.469901
C	0.009897	1.596537	-1.877498
N	0.422258	2.606813	-2.314962
H	-3.092944	0.0	0.0
