14

C	0.0	0.0	0.0
C	-0.50337	0.036476	-1.44607
F	1.384644	0.0	0.0
H	-1.603653	0.046644	-1.399869
H	-0.314359	-0.96129	0.426249
N	-0.458525	1.163369	0.683308
H	-0.250911	1.058409	1.66974
H	-1.476407	1.186391	0.590677
C	-0.000801	-1.096543	-2.209175
N	0.364543	-2.023651	-2.828685
N	-0.048537	1.312972	-2.097401
O	1.094376	1.337558	-2.551784
O	-0.847812	2.242262	-2.10067
Br	-3.621585	0.0	0.0
