17

C	-0.531809	0.006219	-1.427906
C	0.0	0.0	0.0
Br	0.30963	1.468496	-2.402853
H	1.090289	0.0	0.0
N	-0.136993	-1.267628	-2.197501
O	-0.841495	-1.546054	-3.160123
O	0.862537	-1.846044	-1.811882
C	-1.976587	0.171531	-1.521096
N	-3.13272	0.384673	-1.55334
N	-0.463604	-1.256229	0.674775
O	-1.263433	-1.980523	0.074342
O	-0.034884	-1.461555	1.803124
C	-0.494211	1.173194	0.83194
H	-0.164164	2.109847	0.383931
H	-0.040935	1.093519	1.819553
H	-1.584215	1.175081	0.925732
Cl	3.245593	0.0	0.0
