17

C	-0.491454	-0.004462	-1.440988
C	0.0	0.0	0.0
Br	0.113827	1.633875	-2.300293
H	1.091896	0.0	0.0
N	0.101277	-1.19807	-2.244897
O	0.24422	-1.062565	-3.448671
O	0.3016	-2.208879	-1.587105
C	-1.935652	-0.082825	-1.620285
N	-3.094565	-0.136371	-1.816756
N	-0.411889	-1.254353	0.725368
O	0.462209	-1.837039	1.353722
O	-1.59522	-1.595586	0.659831
C	-0.591664	1.136534	0.812391
H	-1.68622	1.129671	0.783783
H	-0.271834	1.017605	1.850915
H	-0.221819	2.097741	0.458014
Cl	2.694576	0.0	0.0
