17

C	-0.469599	0.006374	-1.464022
C	0.0	0.0	0.0
Br	0.721473	-0.94168	-2.645544
H	1.094233	0.0	0.0
N	-1.920838	-0.560696	-1.590337
O	-2.661644	-0.248376	-0.666357
O	-2.225403	-1.183155	-2.590703
C	-0.59221	1.370342	-1.968427
N	-0.727917	2.461192	-2.387103
N	-0.384837	-1.305272	0.627609
O	-0.437879	-1.343376	1.853234
O	-0.569619	-2.267646	-0.116152
C	-0.448159	1.172393	0.852436
H	-0.084375	2.097461	0.403688
H	-1.530805	1.213738	0.968176
H	0.024011	1.073477	1.828058
Cl	3.196869	0.0	0.0
