17

C	-0.473416	-0.008682	-1.440978
C	0.0	0.0	0.0
Br	0.329009	1.509746	-2.382075
H	1.088973	0.0	0.0
N	0.062099	-1.272116	-2.164452
O	1.173475	-1.631458	-1.814888
O	-0.617963	-1.703361	-3.073975
C	-1.917753	0.055649	-1.620489
N	-3.103306	0.157419	-1.621597
N	-0.407251	-1.309274	0.635196
O	-1.628814	-1.521541	0.737924
O	0.463076	-2.08512	0.954388
C	-0.61763	1.11096	0.81987
H	-1.70822	1.042581	0.831898
H	-0.318238	2.08174	0.423216
H	-0.249987	1.040146	1.846319
Cl	2.689843	0.0	0.0
