17

C	-0.489291	-0.000346	-1.43218
C	0.0	0.0	0.0
Br	0.18062	1.610339	-2.308318
H	1.09002	0.0	0.0
N	0.135517	-1.185664	-2.235525
O	-0.098217	-1.193695	-3.439872
O	0.460472	-2.152906	-1.56071
C	-1.93257	-0.054824	-1.676211
N	-3.036121	-0.141053	-2.062961
N	-0.412363	-1.284553	0.665007
O	0.404977	-1.794761	1.43184
O	-1.602923	-1.609758	0.598524
C	-0.592525	1.131271	0.820819
H	-0.272002	1.00664	1.858485
H	-0.219574	2.094998	0.474143
H	-1.687988	1.125709	0.786654
Cl	2.866215	0.0	0.0
