17

C	-0.441311	0.002477	-1.458793
C	0.0	0.0	0.0
Br	-2.347814	-0.306993	-1.699633
H	1.09207	0.0	0.0
N	-0.080525	1.416102	-2.022933
O	-0.971071	2.157797	-2.402734
O	1.114985	1.659069	-1.963689
C	0.284536	-0.931948	-2.310359
N	0.920695	-1.61588	-3.025893
N	-0.40939	-1.318947	0.565485
O	-1.168417	-1.334675	1.538778
O	0.142074	-2.306865	0.079755
C	-0.563727	1.144929	0.803253
H	-0.175483	2.090519	0.418297
H	-1.655194	1.167212	0.804307
H	-0.223114	1.048627	1.835035
Cl	2.682777	0.0	0.0
