17

C	-0.429213	-0.001458	-1.457453
C	0.0	0.0	0.0
Br	-2.345865	-0.379965	-1.653939
H	1.093192	0.0	0.0
N	-0.121237	1.4215	-2.025201
O	1.071701	1.677813	-2.054715
O	-1.049417	2.188051	-2.257423
C	0.288366	-0.921719	-2.333907
N	0.825706	-1.615313	-3.117473
N	-0.334164	-1.301164	0.622458
O	-1.124912	-1.325304	1.573029
O	-0.014016	-2.316348	-0.026914
C	-0.551527	1.155071	0.796204
H	-0.151593	2.093519	0.406116
H	-1.643898	1.18913	0.79486
H	-0.209128	1.061454	1.827069
Cl	2.845294	0.0	0.0
