15

C	-0.289462	0.040292	-1.477809
C	0.0	0.0	0.0
Br	-2.342148	0.800587	-1.72201
H	1.095434	0.0	0.0
H	-0.332886	0.923932	0.475173
C	0.577861	1.078952	-2.146916
H	0.320195	2.076074	-1.789918
H	1.598465	0.832692	-1.823835
H	0.467999	1.055102	-3.233772
N	-0.206716	-1.200558	-2.08259
H	-0.73482	-1.923364	-1.613557
H	-0.392603	-1.180381	-3.073906
C	-0.57514	-1.147532	0.664673
N	-1.024686	-2.110493	1.169002
F	2.585396	0.0	0.0
