15

C	-0.325814	-0.051071	-1.49904
C	0.0	0.0	0.0
Br	0.04603	1.767186	-2.221988
H	1.092404	0.0	0.0
H	-0.421104	0.887585	0.474059
C	0.67693	-0.985064	-2.168058
H	0.440071	-2.009754	-1.85608
H	1.672178	-0.730416	-1.790382
H	0.621013	-0.923019	-3.256375
N	-1.728361	-0.302185	-1.759339
H	-1.859435	-0.494419	-2.748775
H	-1.998136	-1.132711	-1.238877
C	-0.50847	-1.198805	0.643055
N	-0.942921	-2.181527	1.124877
F	2.619274	0.0	0.0
