15

C	-0.354558	-0.088632	-1.479977
C	0.0	0.0	0.0
Br	0.146156	1.727582	-2.305429
H	1.094233	0.0	0.0
H	-0.312494	-0.956818	0.440403
C	0.579909	-1.089648	-2.12904
H	0.517357	-1.058105	-3.21981
H	1.590634	-0.862123	-1.773837
H	0.293093	-2.088779	-1.782474
N	-1.728464	-0.365136	-1.718475
H	-1.925409	-0.352131	-2.712791
H	-2.307525	0.335325	-1.266173
C	-0.671398	1.066139	0.708868
N	-1.254645	1.898511	1.301365
F	2.607602	0.0	0.0
