13

C	-0.497335	0.040357	-1.443176
C	0.0	0.0	0.0
Br	-0.058415	-1.674042	-2.29643
H	1.09275	0.0	0.0
H	0.100011	0.770711	-1.994315
H	-0.353723	-0.90196	0.509159
C	-1.984187	0.292898	-1.61449
H	-2.26584	0.287558	-2.669956
H	-2.242745	1.265311	-1.184591
H	-2.563236	-0.47855	-1.099236
C	-0.472206	1.172946	0.722488
N	-0.862358	2.128941	1.285233
H	2.791326	0.0	0.0
