13

C	-0.518796	0.067703	-1.428623
C	0.0	0.0	0.0
Br	-0.07601	-1.575092	-2.408087
H	1.092531	0.0	0.0
H	0.056181	0.843617	-1.941451
H	-0.27984	0.941092	0.494267
C	-2.014502	0.305746	-1.546416
H	-2.274299	1.236656	-1.031521
H	-2.327446	0.383949	-2.590357
H	-2.566728	-0.512891	-1.078527
C	-0.571514	-1.095213	0.762241
N	-1.046201	-1.971656	1.385625
H	2.788866	0.0	0.0
