15
Coordinates from ORCA-job run
  C   0.57848379633030     -0.05716208915727      0.88395292684261
  C   -0.50113740893064      0.36131706026505     -0.10257175172794
  F   1.07069717885119      1.11213868668418      1.49008585403355
  H   -0.00367666175909      0.91842512491209     -0.91200447094853
  H   0.11256784114928     -0.64408968297093      1.68333565480004
  C   1.73284426715536     -0.79119677114615      0.25105779087600
  H   2.20345613191369     -0.16194064648594     -0.50803304013476
  H   1.37671301224745     -1.70556095657831     -0.22090877400596
  H   2.48031041432004     -1.03705362663036      1.00730213430574
  N   -1.49563121586116      1.15218047612143      0.61708234697027
  H   -2.11936650824614      1.60212248301727     -0.04292350089790
  H   -1.02897775480231      1.88007731355120      1.14566267319856
  N   -1.07800875438791     -0.83483050435635     -0.68875941444096
  H   -1.77189525654713     -1.18811541949368     -0.03773205464022
  H   -1.55937908143293     -0.60731144773223     -1.54954637423048
