15
Coordinates from ORCA-job run
  C   0.71509743897038      0.12802525601506      0.83310569803333
  C   -0.48225326836284      0.51093524423110     -0.02673068893627
  F   1.48154546585619      1.27439573891667      1.02708923236442
  H   -0.08865011766011      1.09744321292209     -0.87107585122045
  H   0.35338018443648     -0.18977932192292      1.81725802597598
  C   1.60595908614793     -0.93073009851111      0.22218878950429
  H   2.50493733477173     -1.04431163242792      0.82973843391165
  H   1.09388700667012     -1.89266086144384      0.18131235249670
  H   1.91456694569744     -0.63651713178644     -0.78503877119795
  N   -1.35150703609570      1.38394961944577      0.72947297543355
  H   -1.99858941814994      1.86699300295765      0.11943088400810
  H   -1.88687759993201      0.82598103391326      1.38573878120690
  N   -1.17494285957567     -0.71746219598800     -0.43788707845753
  H   -0.63467871030935     -1.21721823673255     -1.13593139701481
  H   -2.05287445246465     -0.45904362958881     -0.87367138610790
