15

C	-0.046073	-0.050099	-0.065011
C	-0.221521	-0.335346	-1.56142
Cl	1.773071	0.104725	0.226787
H	0.307276	0.424126	-2.145656
H	-0.447282	0.950388	0.087778
N	-0.675227	-0.907927	0.856432
H	-1.649724	-0.544925	0.886102
H	-0.648644	-1.860871	0.520646
N	-1.596584	-0.506815	-1.866224
H	-1.828412	-0.02614	-2.723529
H	-2.203028	-0.15903	-1.075556
N	0.546193	-1.602174	-1.958998
O	1.329337	-1.510758	-2.906503
O	0.314751	-2.642955	-1.348786
F	-2.834875	0.449093	0.246383
