15

C	-0.045961	-0.049307	-0.065117
C	-0.223183	-0.302272	-1.567122
Cl	1.773798	0.095382	0.228373
H	0.306836	0.468301	-2.135492
H	-0.444838	0.948582	0.109233
N	-0.676212	-0.925188	0.838393
H	-0.651917	-1.870826	0.482387
H	-1.649922	-0.560829	0.876558
N	-1.598869	-0.464181	-1.874361
H	-1.830328	0.035269	-2.720968
H	-2.203925	-0.132073	-1.075919
N	0.541406	-1.562023	-1.992185
O	1.324111	-1.452172	-2.938094
O	0.308072	-2.61506	-1.404116
F	-2.833469	0.44895	0.259206
