15

C	-0.034026	-0.02763	-0.065774
C	-0.353748	0.33036	-1.540392
Cl	1.776271	-0.257083	0.104331
H	0.529006	0.701278	-2.071076
H	-0.259689	0.877672	0.494404
N	-0.756796	-1.088021	0.524736
H	-1.726718	-0.695704	0.634716
H	-0.743277	-1.912266	-0.06273
N	-1.442162	1.220457	-1.566501
H	-2.147119	0.95186	-0.832448
H	-1.86534	1.247828	-2.48427
N	-0.616135	-1.005145	-2.285787
O	0.32758	-1.79179	-2.365655
O	-1.729678	-1.201667	-2.766265
F	-2.869544	0.411531	0.485474
