16

C	0.0	0.0	0.0
C	-0.571296	-0.11709	-1.413695
Cl	1.790344	0.0	0.0
H	-1.628599	-0.377523	-1.273132
H	-0.289066	-0.902774	0.538133
C	-0.516049	1.230531	0.711928
H	-0.160436	1.241419	1.744075
H	-0.166894	2.139455	0.217455
H	-1.608979	1.195688	0.704886
N	0.073376	-1.329031	-2.055268
O	-0.154491	-2.406033	-1.506786
O	0.802216	-1.171089	-3.028576
N	-0.468651	1.007595	-2.277051
H	0.406582	1.501505	-2.167922
H	-1.252564	1.622503	-2.108755
Br	-3.873632	0.0	0.0
