14

C	0.0	0.0	0.0
C	-0.576799	0.559457	-1.312497
Br	1.941585	0.0	0.0
H	0.244791	1.001071	-1.885948
H	-0.297562	0.640645	0.827197
H	-0.313673	-1.024597	0.19474
N	-1.495842	1.64721	-0.975187
H	-2.345007	1.241967	-0.569587
H	-1.797704	2.085171	-1.839965
C	-1.205435	-0.56837	-2.135073
H	-2.07984	-0.95831	-1.607144
H	-0.484943	-1.371674	-2.329994
H	-1.546099	-0.181073	-3.100767
Cl	-4.268759	0.0	0.0
