14

C	0.0	0.0	0.0
C	-0.562746	-0.076613	-1.405672
Br	1.952965	0.0	0.0
H	-0.166188	-0.990598	-1.879702
H	-0.305842	0.933023	0.470679
H	-0.3028	-0.855828	0.602543
N	-0.18932	1.138625	-2.131514
H	0.787447	1.096945	-2.399573
H	-0.741728	1.195152	-2.978474
C	-2.079482	-0.171217	-1.320252
H	-2.418747	-1.051006	-0.773448
H	-2.519341	-0.224041	-2.320148
H	-2.517185	0.691418	-0.819128
Cl	-5.306595	0.0	0.0
