14

C	0.0	0.0	0.0
C	-0.425637	0.598091	-1.390585
Br	1.94716	0.0	0.0
H	0.473396	1.053419	-1.815173
H	-0.324841	0.625239	0.830593
H	-0.338574	-1.022962	0.156042
N	-1.427096	1.647355	-1.368061
H	-1.081963	2.402415	-0.788535
H	-2.291257	1.274565	-0.963306
C	-0.876859	-0.520445	-2.319053
H	-0.114259	-1.304282	-2.380699
H	-1.811867	-0.943229	-1.945588
H	-1.051337	-0.114406	-3.317543
Cl	-3.795894	0.0	0.0
