14

C	0.0	0.0	0.0
C	-0.547642	0.960637	-1.054783
Br	1.950321	0.0	0.0
H	-0.110058	0.66985	-2.017741
H	-0.311589	0.295655	1.002702
H	-0.303893	-1.028713	-0.192483
N	-0.206079	2.362287	-0.833051
H	-0.718684	2.699029	-0.024788
H	0.784201	2.453948	-0.636198
C	-2.060467	0.81544	-1.122984
H	-2.553916	1.062618	-0.181038
H	-2.456403	1.485121	-1.887247
H	-2.3794	-0.199754	-1.359169
Cl	-5.244559	0.0	0.0
