14

C	0.0	0.0	0.0
C	-0.560553	-0.290317	-1.405129
Br	1.946845	0.0	0.0
H	0.271843	-0.264308	-2.115425
H	-0.300089	0.99586	0.316314
H	-0.308427	-0.736918	0.739509
N	-1.462154	0.803514	-1.764282
H	-1.740695	0.682127	-2.732767
H	-2.321063	0.701522	-1.215157
C	-1.194867	-1.681742	-1.443607
H	-1.541059	-1.906947	-2.457136
H	-0.479134	-2.457249	-1.146792
H	-2.065041	-1.703467	-0.784383
Cl	-4.188275	0.0	0.0
