14

C	0.0	0.0	0.0
C	-0.591623	-0.289358	-1.361109
Br	1.955159	0.0	0.0
H	-1.667797	-0.332306	-1.14495
H	-0.294433	-0.78114	0.696561
H	-0.315551	0.971709	0.375783
N	-0.171705	-1.61648	-1.814478
H	0.745226	-1.553008	-2.2461
H	-0.824213	-1.935666	-2.521113
C	-0.342656	0.828561	-2.368935
H	-0.727034	1.782527	-1.996476
H	-0.862707	0.603388	-3.304601
H	0.725817	0.938298	-2.58463
Cl	-3.783333	0.0	0.0
