14

C	0.0	0.0	0.0
C	-0.508694	-0.224097	-1.425335
Br	1.951614	0.0	0.0
H	-1.59632	-0.171811	-1.311609
H	-0.325802	-0.801154	0.660889
H	-0.331801	0.956559	0.400082
N	-0.18311	-1.536909	-1.980713
H	0.806713	-1.722549	-1.849145
H	-0.699258	-2.242	-1.466385
C	-0.059233	0.859914	-2.393954
H	-0.551292	0.695858	-3.353671
H	-0.329598	1.852907	-2.024368
H	1.022221	0.834352	-2.556532
Cl	-3.587518	0.0	0.0
