15

C	0.0	0.0	0.0
C	-0.26643	-0.060888	-1.540764
F	1.380094	0.0	0.0
H	0.595805	0.479615	-1.948721
H	-0.295533	0.997528	0.357523
N	-0.60278	-1.075221	0.693458
H	-0.465963	-0.921761	1.688634
H	-1.626128	-0.870399	0.498343
C	-1.520167	0.572612	-2.149362
H	-2.411935	0.154992	-1.677282
H	-1.485456	0.450929	-3.237963
H	-1.515991	1.641861	-1.918699
C	-0.095362	-1.441122	-2.012611
N	0.036678	-2.515256	-2.469446
F	-2.921415	0.0	0.0
