15

C	0.0	0.0	0.0
C	-0.510112	0.080627	-1.437164
F	1.406503	0.0	0.0
H	-1.605234	0.182145	-1.265449
H	-0.27545	0.933131	0.508189
N	-0.53388	-1.168296	0.619832
H	-1.561556	-0.965756	0.511199
H	-0.322444	-1.112786	1.61159
C	-0.182707	-1.177324	-2.241634
H	0.89679	-1.345923	-2.276655
H	-0.559539	-1.08959	-3.264174
H	-0.651566	-2.032325	-1.757564
C	0.019538	1.269922	-2.094225
N	0.439802	2.216906	-2.649678
F	-2.815287	0.0	0.0
