15

C	0.0	0.0	0.0
C	-0.262344	-0.166187	-1.55643
F	1.390423	0.0	0.0
H	0.659023	0.197002	-2.026448
H	-0.335206	1.001218	0.279892
N	-0.588479	-0.922447	0.886817
H	-0.442934	-1.864765	0.53683
H	-1.611238	-0.687331	0.757054
C	-1.44195	0.60034	-2.161463
H	-2.351384	0.313439	-1.619746
H	-1.277097	1.670784	-1.998056
H	-1.489857	0.419546	-3.241179
C	-0.32887	-1.590258	-1.883197
N	-0.36073	-2.735498	-2.144942
F	-2.893822	0.0	0.0
