15

C	0.0	0.0	0.0
C	-0.182379	-0.144239	-1.566906
F	1.390742	0.0	0.0
H	0.597543	0.517375	-1.962696
H	-0.356643	0.989868	0.285882
N	-0.556069	-0.944123	0.880428
H	-1.58741	-0.712762	0.788025
H	-0.402209	-1.880484	0.528903
C	-1.494624	0.221595	-2.262358
H	-1.280484	0.254015	-3.332339
H	-1.837417	1.19772	-1.915836
H	-2.28758	-0.469002	-2.023733
C	0.223615	-1.507094	-1.94829
N	0.518259	-2.601123	-2.264881
F	-2.817578	0.0	0.0
