17
Coordinates from ORCA-job run
  C   0.65176217887118     -0.18806096392736     -0.24435798189509
  C   -0.86484045417023     -0.00030080276067     -0.20704924235008
  F   0.85307237785812     -1.27657769744383     -1.15871903975355
  H   -1.18535957179121      0.24289248137863     -1.22995768241936
  C   1.39463192893957      0.99042949158192     -0.82211153477183
  H   1.03381897597293      1.19783052923948     -1.83071635143725
  H   1.24229552598486      1.86787329487911     -0.19774536761921
  H   2.46082685983368      0.75726072898209     -0.88235979246118
  N   1.10705753819397     -0.52355365638448      1.05137886699346
  H   2.10108102724654     -0.70890364479105      1.06020569054551
  H   0.58957524644012     -1.32246521405327      1.39758727374903
  N   -1.17427835624892      1.13059465263650      0.63246230708043
  H   -0.88878109844263      0.91584219451137      1.58082683497495
  H   -2.16759502022810      1.32611639875549      0.62198242719315
  N   -1.44459444091347     -1.26050444790888      0.27801932290332
  H   -1.25888832824456     -1.98939553291150     -0.40273536385842
  H   -2.44978438930185     -1.15807781178356      0.35428963312612
