17
Coordinates from ORCA-job run
  C   0.59731947073938     -0.27747303431555     -0.00736289814120
  C   -0.85314512717307      0.20489814623400      0.12293217256685
  F   0.56522588136179     -1.63306164505520     -0.33228531504191
  H   -0.80155805143005      1.28749445564522      0.32911864791409
  C   1.35130783945835      0.42144707429919     -1.12075666535748
  H   1.42470747744523      1.49249360817448     -0.91541190657832
  H   0.83588809266839      0.28440387570292     -2.06897238839230
  H   2.36026005951572      0.00636978378194     -1.18453143744549
  N   1.23424429566994     -0.21441211348550      1.29603313270156
  H   2.14428216587249     -0.65779596212760      1.23401824428617
  H   1.38083918422389      0.75530298615519      1.55378125619956
  N   -1.50694142177267     -0.55248047213025      1.18126533632604
  H   -0.83641991451450     -0.73710838009393      1.91905814908202
  H   -2.27831868483297     -0.02145007751182      1.56537527382025
  N   -1.51174253384550      0.05855191419685     -1.16357154759090
  H   -2.41478169853518      0.51688758223310     -1.12943218594150
  H   -1.69116703485124     -0.93406774170305     -1.27925786840745
