17
Coordinates from ORCA-job run
  C   0.68284157793257     -0.20516364701461     -0.04275930423421
  C   -0.76334518986898      0.22601971440444      0.23036645016022
  F   0.54333485327188     -1.55823861784820     -0.49550679982607
  H   -0.73942986468909      1.28357310165475      0.51436595687757
  C   1.34040752010107      0.54993106882152     -1.17399253829942
  H   1.38812206998762      1.61613270306091     -0.94000644289684
  H   0.77402604431145      0.42125651591446     -2.09280326844609
  H   2.35346011685476      0.16571638426709     -1.31332593085194
  N   1.47315322838139     -0.20397406439483      1.12764145665901
  H   2.22579225964139      0.46364239078493      1.11891592803039
  H   0.91444433468969     -0.16980027656150      1.96741332404933
  N   -1.22365678087220     -0.51792459134147      1.40226025732825
  H   -1.24710158231220     -1.50586648680326      1.17458608061934
  H   -2.15965549832999     -0.22875354759249      1.65800785396363
  N   -1.53445965165825      0.11632628453240     -0.99783665101441
  H   -2.49311613480086      0.40069720965166     -0.83704024425972
  H   -1.53481730264025     -0.85157414153579     -1.29828612785902
