17
Coordinates from ORCA-job run
  C   0.70225043142535     -0.33879269921336     -0.03738416619860
  C   -0.81529286181548     -0.41078208352558      0.18026672995998
  F   1.07095080779404     -1.57305304861876     -0.60845684998366
  H   -0.98569956729884     -1.34732989587253      0.73827549900187
  C   1.11483757942507      0.74392407343702     -1.00338209211249
  H   2.20102451696439      0.73569173346998     -1.12575877717818
  H   0.65986499857954      0.54369252587136     -1.97242689007795
  H   0.79569419792671      1.71938359214672     -0.63795052769658
  N   1.34582620736909     -0.17852947117299      1.23165960468022
  H   2.34420656950226     -0.06390897329261      1.10487223611560
  H   1.19765149854006     -1.01226265546576      1.79067202729568
  N   -1.50453878958774     -0.53676611274270     -1.09001267882859
  H   -1.77828800288663      0.39221275141170     -1.38902408969391
  H   -2.34019104404635     -1.09653634788191     -0.99106332132695
  N   -1.23116722020830      0.79101425024281      0.89269449432357
  H   -0.60319660689248      0.95960255146205      1.66973891191321
  H   -2.17293271479071      0.67343980974455      1.24627988980678
