17
Coordinates from ORCA-job run
  C   0.56577043512218     -0.20764965678865      0.00994012901642
  C   -0.87824987613201      0.28043936409984      0.19977277608554
  F   0.49005833944530     -1.57807174328241     -0.28812127992228
  H   -0.82570442033550      1.33544164982454      0.49942710020815
  C   1.29163853550964      0.45120739636154     -1.14581580586211
  H   1.35277644979906      1.52964381599977     -0.97949019167048
  H   2.30564799222885      0.04841669657592     -1.21555744536819
  H   0.76681188698871      0.28306343013094     -2.08416432513217
  N   1.24922211868915     -0.13096024122629      1.28452782537047
  H   1.38929875342900      0.84293746241552      1.53005795883425
  H   2.16535781144820     -0.55651231088475      1.19158642192065
  N   -1.59539756291850     -0.43098300401252      1.25210969787228
  H   -1.06921435801841     -0.34315048067344      2.11571547093295
  H   -1.57503864195250     -1.41946447770245      1.01839630273434
  N   -1.56463453899860      0.21083662357984     -1.07501839444228
  H   -1.52931310014957     -0.74883387690891     -1.40433501447767
  H   -2.54002982415499      0.43163935249151     -0.91003122609988
