17
Coordinates from ORCA-job run
  C   0.66968839294496     -0.19488504612119     -0.29743598753285
  C   -0.85409342309213     -0.04544039213755     -0.27172307706994
  F   0.92576627395077     -1.16578937190159     -1.30283781208160
  H   -1.16220143851765      0.14569494894413     -1.30539632814901
  C   1.40222372109620      1.05579905238346     -0.72265849175919
  H   2.46081559395576      0.82180520743164     -0.86329690528528
  H   1.29214344337624      1.84179596295562      0.02070261986458
  H   1.00371371011926      1.41221552416647     -1.67390780520146
  N   1.09598939251905     -0.65863372156764      0.97472602991693
  H   0.66192640462377     -1.56090530411049      1.13599505902618
  H   2.10312532468589     -0.75401547345615      1.00510944674322
  N   -1.18093305955924      1.10930319590135      0.53454085933372
  H   -0.79333800917526      0.97698065118890      1.46248109345155
  H   -2.18385925901997      1.22824814682580      0.60317720104842
  N   -1.43228681900176     -1.32049635100110      0.18706221556841
  H   -1.97176397552262     -1.16590412685069      1.02800456814941
  H   -2.03791627338325     -1.72577290265095     -0.51254268602308
