17
Coordinates from ORCA-job run
  C   0.66825725417648     -0.20982892692729     -0.32956884661641
  C   -0.86757149675797     -0.15542456377264     -0.21412439160393
  F   0.91275107701314     -0.90200308697369     -1.55202961293442
  H   -1.23442299373230     -0.12226498918626     -1.24903798968426
  C   1.32136183679052      1.14500437013903     -0.48833685188513
  H   1.21904482924467      1.72408855341584      0.42818987795359
  H   2.38225219802023      1.00687801414431     -0.70881408662950
  H   0.88031810151577      1.68606708185359     -1.32853258961695
  N   1.22204268298375     -0.92112892125696      0.76114356151594
  H   0.85111132038623     -1.86394401461760      0.75115155057591
  H   2.23084833132831     -0.95653457771969      0.68587257270023
  N   -1.28349781145890      0.99579998520020      0.58947447114769
  H   -2.29355586234410      0.96926900285394      0.67738596971621
  H   -1.05232182300555      1.86387856699867      0.11921051787161
  N   -1.34591866637556     -1.39036144676367      0.37470384391372
  H   -1.31122697890206     -1.28933535245492      1.38355973457056
  H   -2.30047199888265     -1.57715969493286      0.09875226900513
