17
Coordinates from ORCA-job run
  C   0.72903475167022     -0.22617464175471     -0.02111349492518
  C   -0.74842520201540      0.07302961906441      0.28915776568100
  F   0.78669961442744     -1.59871338189231     -0.29432460320729
  H   -0.77624481335187      1.10697015196385      0.67013320811686
  C   1.24546755975051      0.49513100585119     -1.24611451265138
  H   0.74701673672299      0.10946678226463     -2.13494641875867
  H   2.31556566782490      0.30520717859678     -1.34132866551416
  H   1.07967067329861      1.57400887670310     -1.17361484543221
  N   1.57601300632285      0.01284969663132      1.10722798021306
  H   1.06456592565772     -0.19907633309075      1.95623041178236
  H   1.90311173615642      0.96849294508197      1.12801618685979
  N   -1.13924384706921     -0.78988368943065      1.38316564348018
  H   -2.04517956426605     -0.52561952907666      1.74883021516609
  H   -1.19243124261249     -1.73897617024054      1.03159588861229
  N   -1.58365230648303     -0.12433690128723     -0.89523348535367
  H   -2.55745727185967     -0.04245398621865     -0.62566251748849
  H   -1.40451142417394      0.59907837683425     -1.58301875658058
