17
Coordinates from ORCA-job run
  C   0.70271208303319     -0.10939268291098      0.02653244824794
  C   -0.79194554873335      0.13500783070694      0.27059210035121
  F   0.85475547888042     -1.51519188300478     -0.12562671994773
  H   -0.88166837462637      1.18308976159263      0.58937374246868
  C   1.22594636606092      0.50745353454736     -1.25009946566366
  H   0.76238750317657      0.02621782295837     -2.11064552789576
  H   1.03035453443090      1.58159536808989     -1.26418351357979
  H   2.30547358936940      0.35366517780927     -1.31635174810874
  N   1.41445233520505      0.35757139342526      1.16081358009428
  H   1.00136438890822     -0.05156775147441      1.99127239609942
  H   2.39047931479401      0.09637210235441      1.09992925601576
  N   -1.18441093582041     -0.69090190463200      1.39317484603620
  H   -1.20243425209897     -1.65592221696138      1.08386485681725
  H   -2.10437670527095     -0.43356677209196      1.72689802172128
  N   -1.56179159705947     -0.17216514360789     -0.93582833068888
  H   -1.41599695308292      0.54371087707496     -1.63953407127417
  H   -2.54730122716623     -0.15597551387570     -0.69918187069330
