17
Coordinates from ORCA-job run
  C   0.66314416794219     -0.47136163468231     -0.07917108279766
  C   -0.80885069746527     -0.33520217707612      0.32297397208778
  F   0.74286452363297     -1.65997173332102     -0.83383838079894
  H   -1.00560935122558     -1.19906428195086      0.97376493694657
  C   1.15252752346058      0.63555597386527     -0.99262051537517
  H   1.15859019299042      1.58684480995594     -0.45733512563020
  H   2.17476571541290      0.40783107374566     -1.30600149701193
  H   0.52216381787292      0.72416339504746     -1.87720282055991
  N   1.42677375373212     -0.66234928729203      1.11441264675530
  H   2.40877688687755     -0.47984216532161      0.94856692016637
  H   1.08229457642673     -0.01274979266187      1.81166618286758
  N   -1.63194804730551     -0.30969448770126     -0.88034818110495
  H   -2.60622252395691     -0.41738046173448     -0.62240708155121
  H   -1.38268214203787     -1.09977092437023     -1.46520845015282
  N   -0.97525067554597      0.86296227307326      1.12881703012537
  H   -1.79821831445581      0.78281871967782      1.71258590815209
  H   -1.12111940635547      1.64621070074637      0.50034553788173
