17
Coordinates from ORCA-job run
  C   0.54913426818001     -0.29400041991818      0.01245293656339
  C   -0.89140596665906      0.20412508582675      0.23568687069665
  F   0.50573598763451     -1.65113017735839     -0.28722951146266
  H   -0.80480356092133      1.28449601558697      0.46054804317204
  C   1.23407893439380      0.38002916913150     -1.16378132293452
  H   0.71987370369153      0.15482344961184     -2.09876499972194
  H   1.26542282432266      1.46394123704372     -1.02557357612741
  H   2.25816045415380      0.00896399128063     -1.24520004105619
  N   1.27107605145471     -0.19082214153477      1.26710718305161
  H   2.18201700693104     -0.62454610372034      1.16288516517853
  H   1.41656981143650      0.78620238457775      1.49576078845599
  N   -1.48240348888712     -0.58066640124756      1.29600110471949
  H   -0.83539624048873     -0.65313935945378      2.06998801818716
  H   -2.34328671633513     -0.14183182674591      1.59388993947407
  N   -1.77590102164875      0.08792829037111     -0.90630980455092
  H   -1.80463097398339     -0.88645891624892     -1.18384639644367
  H   -1.46424107327505      0.65408572279756     -1.68461439720163
