17
Coordinates from ORCA-job run
  C   0.53784802920586     -0.27823409684515     -0.38185333148892
  C   -0.94845578130970      0.01237887298090     -0.12142136159102
  F   0.57846010420731     -1.13977442415745     -1.48771201650757
  H   -1.34790041284650      0.49142157841328     -1.02754639063745
  C   1.32821707793949      0.95316577533162     -0.78441799841216
  H   2.34200084593504      0.65726995012990     -1.06614675350171
  H   1.39352980162362      1.65536002025282      0.04890166230746
  H   0.86886068542330      1.44947577870303     -1.64339139664485
  N   1.05287779317146     -1.00029080389119      0.74565293162311
  H   0.80501377220221     -0.48249439729925      1.58178138717138
  H   2.05963439656069     -1.09228776739709      0.68883776451548
  N   -1.04727186462818      0.84709748386333      1.07419372724802
  H   -0.88418465678843      1.82071138011162      0.84733663581470
  H   -1.99746761082527      0.76004913568798      1.41494423192570
  N   -1.73025490073952     -1.18413462695328      0.11885379629141
  H   -1.81755679375576     -1.69123513033350     -0.75327970792926
  H   -1.19435048537560     -1.77847872859759      0.74426681981567
