17
Coordinates from ORCA-job run
  C   0.62823472919965     -0.11907578331367      0.01918754137880
  C   -0.82656071032514      0.27178887190329      0.31405462105150
  F   0.56968591827246     -1.54012008455061     -0.23518783511309
  H   -0.83384989084752      1.34482299600535      0.52842040472376
  C   1.19699167715823      0.49187688109770     -1.24013451629092
  H   0.64343892029125      0.15894006978802     -2.11728538027804
  H   2.23754663713544      0.18178658052814     -1.36044643358732
  H   1.16570305990997      1.58078281974364     -1.17457623769359
  N   1.43116798445709      0.17355467607441      1.13908242648762
  H   0.98701969556229     -0.16262576964296      1.98395872670818
  H   2.36550082277543     -0.20067669411201      1.04110941795352
  N   -1.21882514962992     -0.43212883075350      1.52463839533383
  H   -1.20696231838366     -1.42696911818009      1.32510081143204
  H   -2.17726669331994     -0.18094892461872      1.73561296033334
  N   -1.75438645846430      0.03267310325618     -0.78479942462911
  H   -1.58059987968636     -0.88794083102894     -1.17358308128816
  H   -1.62683834410497      0.71426003780378     -1.52315239652237
