17
Coordinates from ORCA-job run
  C   0.58225596074372     -0.18596623333220     -0.29251804217776
  C   -0.93846801399752      0.00916024063425     -0.26492504405916
  F   0.79886579603172     -1.24275473814660     -1.22399815184834
  H   -1.23847855464241      0.22759346601446     -1.29548470737813
  C   1.32919082505696      1.01664635743398     -0.81696401222972
  H   1.23268264929131      1.85443365533249     -0.12994424431145
  H   2.38364737726945      0.76125637917900     -0.95283606515188
  H   0.92094170211739      1.30800012753959     -1.78550742371914
  N   1.05188604926142     -0.56662903808189      0.99827051095343
  H   0.73614534793447     -1.50342676564457      1.21636626304231
  H   2.06373814988819     -0.56085864316913      1.02772411725004
  N   -1.22843308034612      1.15960892059897      0.55787566427584
  H   -2.23313931330844      1.25111328145980      0.64833606530760
  H   -0.83225402693247      1.00667089719384      1.47912635371511
  N   -1.69191571381975     -1.17544714159774      0.14171549308071
  H   -1.50918996239047     -1.38820934226071      1.11589683904302
  H   -1.42647519215745     -1.97319142315355     -0.42513361579247
