17
Coordinates from ORCA-job run
  C   0.62524621224418     -0.21617772516423     -0.29799729686310
  C   -0.91011056687840     -0.16488239568878     -0.29618899512696
  F   0.98807898100674     -1.06008653467003     -1.37636042782676
  H   -1.21335672269378     -0.01870490493072     -1.33695847756193
  C   1.27941496308988      1.11789348444070     -0.58723339098029
  H   0.86664496348382      1.54803817466642     -1.50225491689717
  H   1.14443347997169      1.81667729542338      0.23715770028049
  H   2.34900389275319      0.96267367480875     -0.74656726848067
  N   1.06853883665659     -0.75546750792106      0.94168921868712
  H   2.07933716548910     -0.73586031529555      1.00132865307272
  H   0.75823231380759     -1.71969524882521      0.98941388522389
  N   -1.46261973788571      0.92613903210952      0.50070266437540
  H   -1.32795420655605      1.81610236555959      0.03604711755165
  H   -0.96279978757905      0.96292925278954      1.38413708652233
  N   -1.40829970341096     -1.46003447897122      0.15006271600677
  H   -1.54770576752690     -1.41025411224701      1.15397784413668
  H   -2.32608431597191     -1.60929005608410     -0.24995611212019
