17
Coordinates from ORCA-job run
  C   0.58155913160331     -0.15928166400220     -0.31942761649522
  C   -0.94059767775928     -0.04751880381763     -0.12268339192498
  F   0.69491383166051     -0.95454992684711     -1.50947801175327
  H   -1.32333481987182      0.26174124197623     -1.10822946061157
  C   1.24529988412026      1.16080535920500     -0.64058551993208
  H   1.28827535093660      1.79003600163546      0.24847060433324
  H   0.70523105987488      1.67477954277682     -1.43839637021823
  H   2.26494287839171      0.98107185685330     -0.98973368285828
  N   1.22538560204637     -0.79777020043019      0.76340652061727
  H   0.82536178529212     -1.71106132045134      0.93051937690126
  H   2.21463810015362     -0.90514508395377      0.57880695730630
  N   -1.25988650251777      0.87471182910708      0.95079287218980
  H   -2.26963125238319      0.90626123197367      1.03272727676809
  H   -0.93777171716421      1.80847533653093      0.73165535100761
  N   -1.60609443572659     -1.29288520903628      0.20470946049157
  H   -1.35089556938458     -1.57389500313370      1.14436704672555
  H   -1.35639564927194     -2.01577518838627     -0.45792141254707
