17
Coordinates from ORCA-job run
  C   0.67968671057058     -0.34477208130399     -0.03383858915706
  C   -0.82592063707336     -0.52498153177333      0.23450087701837
  F   1.11906501372105     -1.52894859545170     -0.66041128691943
  H   -0.91007965038813     -1.47773618641975      0.77282035695665
  C   1.00897226767551      0.79216296727578     -0.97466823020443
  H   0.63067246465082      1.74169024635285     -0.59365728741663
  H   0.58837951715702      0.58533339515321     -1.95842344538717
  H   2.09250993377183      0.87548740691448     -1.08798031532377
  N   1.34898127707775     -0.17922876875969      1.21894882531590
  H   2.34073133728204     -0.03806382161343      1.06811882590744
  H   1.23831821665470     -1.02198356418817      1.77323997162769
  N   -1.54148882025197     -0.67952538869488     -1.01394356027642
  H   -1.62473992056595      0.22103266930256     -1.47396041192811
  H   -2.48381528874297     -0.98442493445008     -0.80101039219341
  N   -1.40974890443965      0.50980278664448      1.08658979555156
  H   -1.45542942456221      1.37938987448898      0.56552458000518
  H   -0.79709409253707      0.67476552652269      1.87815028642364
