17
Coordinates from ORCA-job run
  C   0.69493796268476     -0.15127818664808      0.00131551777197
  C   -0.77398233046212      0.17418587860002      0.29954688782506
  F   0.75885917855227     -1.55937085483000     -0.18633021849297
  H   -0.79123047280451      1.21800378915255      0.64342260179517
  C   1.21435465628759      0.46437455535741     -1.27754052949572
  H   0.70133578317032      0.02774664167920     -2.13382722828973
  H   1.07738695620060      1.54753369526722     -1.26432123610769
  H   2.28160254939275      0.25438851088905     -1.37872220870503
  N   1.46824018821869      0.24656019944415      1.12181101098366
  H   1.05721568948246     -0.15685989203899      1.95617824975219
  H   2.42391148877248     -0.07234361717380      1.02352256492518
  N   -1.17928390133193     -0.65340614007620      1.41659866130985
  H   -2.07208554851178     -0.35032963495594      1.78425641983388
  H   -1.26607690780116     -1.60751088450258      1.08556991108155
  N   -1.59865047017588     -0.05975402590630     -0.88682705568747
  H   -2.57330738851596      0.02134519085805     -0.62020997268186
  H   -1.42422743315859      0.65571477488423     -1.58444337581804
