17
Coordinates from ORCA-job run
  C   0.62737065071682     -0.32791241609086     -0.03710953651373
  C   -0.87135027944528     -0.35724434200265      0.29730288809929
  F   0.87534387510487     -1.55877944934639     -0.71224033085777
  H   -1.00470788854034     -1.23143688129746      0.96067556785174
  C   1.03937891385194      0.77564238811981     -0.97942024584865
  H   0.82479407996751      1.74719841749151     -0.53873060635090
  H   2.10754459659023      0.69333403600691     -1.19599608688967
  H   0.50109290607315      0.68200866387507     -1.92237300654660
  N   1.36662857912832     -0.27158312346970      1.17854613937435
  H   2.36153381963308     -0.21947909199169      0.99738637967454
  H   1.18481843180997     -1.10080007186231      1.73263801611514
  N   -1.76149863368487     -0.55973279474788     -0.82571808365887
  H   -1.72272048892881      0.25566212615716     -1.42613717082387
  H   -1.46923443689019     -1.37272595941950     -1.35347827597833
  N   -1.22810593650711      0.90824317626431      0.90644880078400
  H   -2.19410115845105      0.86258228715282      1.20683677147440
  H   -0.63478703042823      1.07502303516084      1.70936878009493
