17
Coordinates from ORCA-job run
  C   0.62825163453114     -0.48339574499006     -0.06663170389598
  C   -0.83410122121358     -0.39106112213922      0.39913313616084
  F   0.70354965946852     -1.66708647078949     -0.82588000055998
  H   -0.97022672508034     -1.26128153117405      1.04906932724158
  C   1.06495404548254      0.62667375567475     -1.00626722998179
  H   2.08037164305272      0.41503309246315     -1.35023291039910
  H   1.07315784399842      1.58954252986824     -0.49162445206328
  H   0.42682862110387      0.68621121661194     -1.89024896152766
  N   1.44962129554619     -0.64941763410642      1.09010080447069
  H   1.09573636969209     -0.05238173192871      1.82733509352420
  H   2.41680359896332     -0.42023762840219      0.90032888380496
  N   -1.83217320701287     -0.49356682063735     -0.65588404252684
  H   -1.68384976482593     -1.35324492518441     -1.17260127315625
  H   -1.72997228166528      0.27487437452642     -1.31015171307561
  N   -0.99181968005177      0.79865992906060      1.21743301363068
  H   -1.90072869082265      0.75794858005070      1.66372451528310
  H   -0.99840314116639      1.62173013109608      0.62339751307046
