17
Coordinates from ORCA-job run
  C   0.69614334959414     -0.39146362061942     -0.11859533036107
  C   -0.75844535965763     -0.39775154782473      0.38774045164131
  F   0.83171410953724     -1.57036718796538     -0.86082447464718
  H   -0.82281174583925     -1.25461126211740      1.06943512595564
  C   1.02920695695742      0.77002204846007     -1.02843361993867
  H   2.02041633256948      0.59507218191261     -1.44590616327751
  H   0.31384673994834      0.85459821463665     -1.84867709455022
  H   1.05601412613001      1.70702173043796     -0.46894010348514
  N   1.67182064181776     -0.47314356523346      0.94271522177776
  H   1.54099546140808     -1.35745406708296      1.42444973487724
  H   1.45775654538746      0.26219808880696      1.60837454604859
  N   -1.78961878269150     -0.59747972629268     -0.62459528103178
  H   -1.58797400307789     -1.44312211405574     -1.14671064360370
  H   -1.78099930483640      0.17326563582422     -1.28401419727472
  N   -0.96722584073194      0.80439759109724      1.17503479130622
  H   -1.06093183050314      1.60155469458100      0.55364993728383
  H   -1.85090739601219      0.71626290543507      1.66329709927941
