17
Coordinates from ORCA-job run
  C   0.54713635972087     -0.10184542545157     -0.01532639634800
  C   -0.94305451545182      0.19824477194835      0.25980186517745
  F   0.58558736359899     -1.49420483745997     -0.36352319628515
  H   -1.01619036148409      1.26869705192346      0.47428139376214
  C   1.11819067683328      0.64550532898202     -1.19906722939901
  H   1.03686345792850      1.72241845593385     -1.04147047082460
  H   2.17266202319740      0.38941620900183     -1.32911677582626
  H   0.59529102307604      0.36900115149023     -2.11306154748478
  N   1.32780806474394      0.14003183547129      1.14354835609402
  H   1.03184204610060     -0.46134219300286      1.90042825521471
  H   2.30874809156790     -0.03145008370134      0.96200474175318
  N   -1.45372018296029     -0.51366539075968      1.42078680410345
  H   -1.08874573105414     -0.12499298974416      2.27957749903078
  H   -1.20754309349550     -1.49484667762662      1.36575123553651
  N   -1.79762899717788     -0.09131473203879     -0.87978858147030
  H   -1.64986074625674      0.58632000286018     -1.61584323911479
  H   -1.56738547888706     -1.00697247782620     -1.24798271391935
