17
Coordinates from ORCA-job run
  C   0.66493722898607     -0.39370630545023     -0.10930204724997
  C   -0.83210847295512     -0.42032960792655      0.24444365959538
  F   0.84634379468118     -1.55011112649384     -0.90571770534136
  H   -0.96740919527681     -1.33369361099040      0.85238908304163
  C   1.08504710369933      0.78799314074046     -0.95197122478595
  H   0.96704249495982      1.72575320477564     -0.40509791150513
  H   2.13467180999013      0.66837762293022     -1.22583573858879
  H   0.47568177457866      0.83069186451090     -1.85246734330796
  N   1.50840025524215     -0.52945113880169      1.03205760288972
  H   1.08117428451936     -1.03925507367102      1.79270586056906
  H   1.90515891413864      0.34005322168008      1.34989216390378
  N   -1.61737182957676     -0.41636088643327     -0.97417891955545
  H   -1.36218803552925     -1.21561922708078     -1.53990320301368
  H   -2.59604409162330     -0.49245790376026     -0.72430351896447
  N   -1.30360439020843      0.69492144401479      1.04170491339448
  H   -0.75239459827813      0.79962213491053      1.88377816565441
  H   -1.23833704734754      1.54357224704543      0.49180616326429
