17
Coordinates from ORCA-job run
  C   0.61308250509859     -0.25551566055977     -0.32891293543013
  C   -0.91353780456827     -0.11285147343511     -0.19899122618219
  F   0.76738546989917     -1.19240700535720     -1.39250664937416
  H   -1.29433928994507      0.16566473313354     -1.19314487316490
  C   1.30327934416109      1.00692041652942     -0.79289810091565
  H   2.35829834136936      0.78806917049265     -0.96846857438371
  H   1.22515251853452      1.80068039070013     -0.04803649505941
  H   0.86533966120980      1.35152106520931     -1.73120909652338
  N   1.20602364336677     -0.78928375239883      0.83590735435622
  H   0.54487990989781     -1.28170998889844      1.41952191535275
  H   1.82043226848398     -0.17104014388912      1.33677557066182
  N   -1.36352460475848      0.89686305478511      0.73672080211900
  H   -1.16449182796425      1.82706052252470      0.39308270896020
  H   -0.89401576805955      0.76520416695121      1.62526227995080
  N   -1.42195997707551     -1.38547511342496      0.28748760227226
  H   -2.42313159858597     -1.30257278677089      0.41163460372953
  H   -1.22887279106399     -2.11112759559176     -0.39222488636905
