17
Coordinates from ORCA-job run
  C   0.47433314762487     -0.22010498225661     -0.31431431451346
  C   -1.04960918433537      0.00064124993726     -0.22267726642242
  F   0.67685993971116     -1.20460997927170     -1.28969898152001
  H   -1.38248704350999      0.39521796229556     -1.19022600015045
  C   1.25744935793626      0.99604287229003     -0.76910975746015
  H   0.85458288555254      1.38168086451445     -1.70862065227595
  H   1.22651097799332      1.79194321947073     -0.02205708956569
  H   2.30127361339598      0.71606353718624     -0.92699758672601
  N   0.94067650561555     -0.80839346558983      0.93364224223832
  H   1.70425271435251     -1.43921465103907      0.71991456426833
  H   1.29898166133687     -0.09072894231989      1.55106167388166
  N   -1.42361623463910      0.95222911012295      0.81244923827236
  H   -0.87214488431710      1.79925571028244      0.76568750434458
  H   -1.29979840427839      0.52459367953205      1.72192250864484
  N   -1.75001978446915     -1.24155907296052      0.02924665769360
  H   -1.74377086135238     -1.80002122731100     -0.81453770641782
  H   -1.21347440661757     -1.75203588488308      0.72531496570826
