17
Coordinates from ORCA-job run
  C   0.54920563193502     -0.42281248248135      0.00473488185205
  C   -0.95546918807105     -0.44888455839673      0.32456799069730
  F   0.83088099446149     -1.65586729202322     -0.60480261510868
  H   -1.07668357399674     -1.33459782149127      0.95819273381173
  C   0.98047700229416      0.65758866334946     -0.96491026823703
  H   2.02992713552361      0.50289168671064     -1.22343594782737
  H   0.39179839355815      0.62316498584616     -1.88209663858302
  H   0.88001696224473      1.64898334463628     -0.51692417728781
  N   1.28725374422762     -0.41617690219666      1.26152175796321
  H   2.04158912825461     -1.08820404287920      1.18665652273646
  H   1.70632436073210      0.49251621236199      1.41757106052219
  N   -1.81471187736512     -0.59789000534797     -0.83635288346878
  H   -1.96919555771953      0.29467743316769     -1.28882804210453
  H   -1.38740041118788     -1.22921914366600     -1.50255348060524
  N   -1.39371890200688      0.69309855618652      1.10195485000361
  H   -0.86850037799410      0.72284047519075      1.96664517354463
  H   -1.23279346489019      1.55789089103293      0.59705908209130
