15
Coordinates from ORCA-job run
  C   0.74891623768602      0.20188184157122      0.73055991884637
  C   -0.46784994358056     -0.26687303025864     -0.07732262936985
  Cl  0.20643636869261      0.28612595615635      2.50808163711118
  H   -0.96999866543292     -1.04053578085263      0.51306452222397
  H   0.98389224021603      1.24687124217748      0.51821666645008
  N   1.88853821137998     -0.59479114842257      0.51196411180764
  H   2.64161807645932     -0.37862344388966      1.14985758553817
  H   1.67621620656461     -1.58246303627304      0.51885880273806
  N   -0.01285500580522     -0.91502107690772     -1.30853474242478
  H   0.60731494328955     -0.29914223843273     -1.82170042383832
  H   -0.81650466065290     -1.10793630420203     -1.89576164731823
  C   -1.43706157978881      0.89402527925402     -0.28937876412725
  H   -2.33890134986696      0.54592883620462     -0.79998074609911
  H   -0.97063045139593      1.66192973282041     -0.91439756712925
  H   -1.73913062776483      1.34862317105492      0.65647327559132
