15
Coordinates from ORCA-job run
  C   0.76571515059427      0.11902986202442      0.61002623272014
  C   -0.52115523796926     -0.20474866002977     -0.15582203448118
  Cl  0.34578945799432      0.67305365545626      2.31396573592742
  H   -1.00364345521897     -1.04036218945677      0.36950177836562
  H   1.25989925021286      0.98166859605409      0.15735688821622
  N   1.65366281089179     -0.99330494375651      0.60293551840801
  H   2.54996344255761     -0.75597461990812      1.00761876283556
  H   1.25906301837470     -1.76371476249053      1.13023250496832
  N   -0.22802792772584     -0.64073322262910     -1.51675617722481
  H   0.04517002578183      0.16202323284089     -2.07415523440407
  H   0.56066357221555     -1.27681086679677     -1.49737902582635
  C   -1.49038279179628      0.96452954393579     -0.21443860402569
  H   -2.32850088625033      0.69463229053587     -0.85849209586385
  H   -1.87047959063154      1.23514403081156      0.76887920017367
  H   -0.99873683903070      1.84456805340869     -0.64347344978900
