15
Coordinates from ORCA-job run
  C   0.78576051262260      0.17544913920159      0.82462282931268
  C   -0.36410328203394     -0.20388052683797     -0.11904944782778
  Cl  0.15385668051046      0.44068300258322      2.47678444662228
  H   -0.76687597953035     -1.15697540830905      0.24403280084321
  H   1.20141817354313      1.13619712395781      0.50135075649443
  N   1.86020869477032     -0.78672166551990      0.89674545640912
  H   1.51991140194199     -1.62312268116449      1.36003264105125
  H   2.07692365732335     -1.03602440362994     -0.06395585270546
  N   0.25957745696431     -0.46035303283945     -1.42407834740485
  H   0.36062574805988      0.41527048736691     -1.92711850520716
  H   -0.34020365097182     -1.05458388253582     -1.98290973935196
  C   -1.47666919769247      0.83752716299796     -0.17709036578280
  H   -1.99355497587738      0.94645983436169      0.77638658019099
  H   -2.21088988499393      0.55697253046077     -0.93647388345837
  H   -1.06298535463615      1.81410231990666     -0.45127936918556
