15
Coordinates from ORCA-job run
  C   0.47590732656350     -0.26885774783172      0.93801011844145
  C   -0.72551363246511     -0.24986138147963     -0.01588511491522
  Cl  0.70073425544422     -1.92170719877617      1.59333556483884
  H   -1.59357511908029     -0.58478696137386      0.56207544764377
  H   0.25801271888312      0.34835244045182      1.81940201509576
  N   1.68738051149703      0.10233737609926      0.23005655756614
  H   1.68300182571524      1.10454226791186      0.07541479314374
  H   2.49993800741048     -0.11566482744762      0.79392120147063
  N   -0.59236385122416     -1.12431376675473     -1.16835443408932
  H   0.32590901909789     -0.96826515395495     -1.57203647668932
  H   -0.61782932020028     -2.09077490645616     -0.86574873135205
  C   -0.97366469081138      1.17664700512550     -0.49636821865623
  H   -1.02189463008613      1.88736034573372      0.33434466139529
  H   -0.18724052834820      1.49284393077630     -1.18720384443053
  H   -1.91680189239592      1.21214857797639     -1.04196353946296
