15
Coordinates from ORCA-job run
  C   0.66466968721640      0.12134207000014      0.83433766519846
  C   -0.49038717168388     -0.19391271630286     -0.11159908372132
  Cl  0.04872100764701      0.28402655741080      2.50811801175340
  H   -1.06964304044625     -1.00242605998506      0.35520850969094
  H   1.07918779099496      1.10529837811305      0.57945765313273
  N   1.63068780447294     -0.95849345666504      0.80550468163727
  H   2.32092977609468     -0.81924442796200      1.53407300606750
  H   2.10677961119805     -0.89935670094651     -0.08865897733981
  N   0.11533224624310     -0.59828009186456     -1.38475850689726
  H   -0.53272641251875     -0.43468844653452     -2.14507100014263
  H   0.31224715951734     -1.59137906863483     -1.36139885427227
  C   -1.37886874139988      1.01744724627724     -0.33322225089323
  H   -1.75345461776229      1.41622924224400      0.60968664538005
  H   -2.23962957368281      0.75241609648511     -0.95308946955497
  H   -0.81384552589061      1.80002137836503     -0.84758803003887
