15
Coordinates from ORCA-job run
  C   0.68343738014664      0.12067698960398      0.90179632093491
  C   -0.41247560361407     -0.16598625916254     -0.13125309506022
  Cl  -0.04558993809307      0.09843639674875      2.54422042669721
  H   -0.92508765365650     -1.08995618898394      0.18006603087222
  H   1.05772031580167      1.13369318932292      0.73628940221783
  N   1.80905898285661     -0.77610990137653      0.89602195351522
  H   2.30544512391141     -0.66275519330291      0.02062330805510
  H   1.50125443242707     -1.73742785909014      0.99084083451091
  N   0.27001968987856     -0.29960928646910     -1.42314578333586
  H   -0.37211023195078     -0.08737216760579     -2.17666613167212
  H   0.58266220089082     -1.25266827516392     -1.55825663642245
  C   -1.42386560667107      0.96476953072955     -0.22132706474340
  H   -2.21243477212895      0.71769800297220     -0.93751492649350
  H   -0.92372825198199      1.87540772078309     -0.56359102402642
  H   -1.89230606781634      1.16220330099437      0.74189638495060
