15
Coordinates from ORCA-job run
  C   0.46444045125681     -0.21552997849975      1.05015260545942
  C   -0.68907295204400     -0.25691075972562      0.02908161838294
  Cl  0.56722772616411     -1.84485399143616      1.82906676550415
  H   -1.57780010077016     -0.59310549976987      0.57411593440788
  H   0.20415039037489      0.47095245317083      1.85939980629434
  N   1.76160080630955      0.14344234421053      0.55782426435549
  H   1.97734408208607     -0.33902354056486     -0.30463278787265
  H   1.84034043021684      1.14265991444602      0.42838655361977
  N   -0.50440279619786     -1.16958807452651     -1.08673158392612
  H   -0.28729872399191     -2.10264047490545     -0.75850196391148
  H   0.24246692613670     -0.85594890198209     -1.69486374633130
  C   -0.94868926632911      1.14190113132524     -0.51246174336128
  H   -1.82224555954905      1.12319755597014     -1.16502524939698
  H   -0.09800917198918      1.49845165154810     -1.10113416473299
  H   -1.12905224167370      1.85699617073945      0.29432369150880
