13

C	-0.548276	0.027633	-1.405302
C	0.0	0.0	0.0
Cl	0.19742	-1.285414	-2.363764
H	1.09124	0.0	0.0
H	-0.28656	-0.9589	0.445562
C	-2.001512	-0.114892	-1.486271
N	-3.16912	-0.264225	-1.4867
N	-0.190431	1.350189	-2.107091
O	-0.774393	1.560749	-3.166261
O	0.665244	2.043932	-1.582439
C	-0.540333	1.080796	0.803473
N	-0.951613	1.953601	1.477921
H	2.605861	0.0	0.0
