13

C	-0.467182	0.064618	-1.427688
C	0.0	0.0	0.0
Cl	-2.260701	0.11502	-1.620251
H	1.092964	0.0	0.0
H	-0.286097	0.928904	0.501618
C	0.075391	1.240426	-2.100459
N	0.478737	2.221673	-2.605401
N	0.034877	-1.18818	-2.161605
O	1.02413	-1.035955	-2.86768
O	-0.555235	-2.232514	-1.922233
C	-0.533062	-1.128967	0.733856
N	-0.909526	-2.020855	1.401047
H	2.581307	0.0	0.0
