13

C	-0.422017	-0.044137	-1.439628
C	0.0	0.0	0.0
Cl	-2.181607	-0.381381	-1.678775
H	1.094668	0.0	0.0
H	-0.315209	-0.924496	0.488359
C	-0.09935	1.173589	-2.171746
N	0.140943	2.169389	-2.747278
N	0.30806	-1.232795	-2.099126
O	0.236874	-2.290613	-1.494893
O	0.867841	-1.027228	-3.166175
C	-0.538158	1.155034	0.680729
N	-0.942897	2.098055	1.255136
H	2.586635	0.0	0.0
