13

C	0.0	0.0	0.0
C	-0.601681	0.148119	-1.382679
F	1.391197	0.0	0.0
H	-1.707085	0.180476	-1.119407
H	-0.319916	0.860814	0.592262
H	-0.390634	-0.737935	-1.990981
C	-0.496885	-1.269029	0.652524
H	-0.149189	-2.14039	0.086672
H	-0.11589	-1.342839	1.675302
H	-1.591033	-1.184003	0.633585
C	-0.142599	1.335027	-2.084864
N	0.218578	2.29675	-2.656097
F	-2.916981	0.0	0.0
