13

C	0.0	0.0	0.0
C	-0.376612	-0.174085	-1.467281
F	1.393943	0.0	0.0
H	-0.018097	-1.164314	-1.777136
H	-0.349379	0.959121	0.378048
H	0.226441	0.547107	-2.03291
C	-0.425754	-1.133585	0.903051
H	-1.51711	-1.110932	0.917425
H	0.000728	-0.986513	1.901426
H	-0.037206	-2.077485	0.502733
C	-1.770175	-0.031143	-1.939182
N	-2.538847	0.050127	-2.832811
F	-2.656562	0.0	0.0
