13

C	0.0	0.0	0.0
C	-0.600824	0.150286	-1.38262
F	1.391163	0.0	0.0
H	-0.386433	-0.732995	-1.993896
H	-0.321598	0.859404	0.593307
H	-1.706416	0.180427	-1.120987
C	-0.497432	-1.26994	0.650359
H	-0.150846	-2.141018	0.083193
H	-1.591502	-1.183628	0.631191
H	-0.115932	-1.345679	1.672978
C	-0.143845	1.340522	-2.080823
N	0.217915	2.304191	-2.64828
F	-2.916161	0.0	0.0
