13

C	0.0	0.0	0.0
C	-0.596054	-0.25625	-1.371573
F	1.391732	0.0	0.0
H	-0.323096	0.543528	-2.068688
H	-0.329309	0.998969	0.29562
H	-1.703629	-0.210187	-1.122258
C	-0.488977	-1.005167	1.016038
H	-0.096217	-0.756785	2.006617
H	-1.582078	-0.924249	0.98475
H	-0.152037	-2.010574	0.748165
C	-0.197911	-1.534717	-1.938635
N	0.117312	-2.563255	-2.412679
F	-2.912859	0.0	0.0
