13

C	0.0	0.0	0.0
C	-0.370874	-0.190594	-1.466855
F	1.394014	0.0	0.0
H	0.254691	0.507814	-2.037573
H	-0.349169	0.964607	0.364657
H	-0.034342	-1.193852	-1.760491
C	-0.434137	-1.121108	0.914227
H	-0.019262	-0.961522	1.915491
H	-0.044888	-2.070918	0.529626
H	-1.526174	-1.09369	0.915812
C	-1.755074	-0.016539	-1.951554
N	-2.520787	0.076487	-2.845792
F	-2.663633	0.0	0.0
