15

C	-0.520866	-0.008553	-1.456119
C	0.0	0.0	0.0
Cl	0.032572	-1.477681	-2.334461
H	1.100164	0.0	0.0
C	-1.989154	-0.00075	-1.452723
N	-3.163541	0.020403	-1.438799
C	-0.042675	1.170514	-2.180502
N	0.317423	2.124729	-2.762721
N	-0.555845	-1.167458	0.688447
H	-0.146027	-2.003518	0.282227
H	-0.190883	-1.124031	1.635728
N	-0.470923	1.229347	0.586678
H	0.251916	1.643867	1.159964
H	-1.313955	1.066638	1.124848
Br	3.497093	0.0	0.0
