15

C	-0.471246	0.002409	-1.472354
C	0.0	0.0	0.0
Cl	-2.274699	-0.136927	-1.550882
H	1.10141	0.0	0.0
C	-0.103456	1.249873	-2.1466
N	0.199985	2.25641	-2.671992
C	0.086659	-1.144299	-2.190609
N	0.500566	-2.07777	-2.772218
N	-0.44277	-1.221662	0.611043
H	0.252076	-1.539888	1.276631
H	-1.342841	-1.091793	1.062491
N	-0.535976	1.194911	0.659173
H	-0.026312	2.00402	0.311868
H	-0.264599	1.111944	1.635623
Br	3.475084	0.0	0.0
