15

C	-0.535316	-0.004471	-1.455544
C	0.0	0.0	0.0
Cl	0.089934	1.385667	-2.386373
H	1.093792	0.0	0.0
C	-0.174498	-1.237314	-2.15794
N	0.120357	-2.213861	-2.738945
C	-1.999198	0.09156	-1.388361
N	-3.163651	0.171611	-1.251123
N	-0.43814	-1.257288	0.585702
H	-1.290114	-1.144274	1.121413
H	0.293225	-1.619224	1.184982
N	-0.428222	1.230931	0.629861
H	-1.306678	1.113952	1.1195
H	0.285649	1.536903	1.277878
Br	3.468055	0.0	0.0
