15

C	-0.463919	0.06394	-1.473087
C	0.0	0.0	0.0
Cl	-2.26856	-0.004079	-1.571043
H	1.105347	0.0	0.0
C	-0.04218	1.312085	-2.112405
N	0.272156	2.339734	-2.587593
C	0.05521	-1.086098	-2.213151
N	0.439857	-2.016167	-2.818117
N	-0.453042	-1.241352	0.563135
H	-1.310225	-1.104566	1.082555
H	0.268737	-1.639682	1.148083
N	-0.529987	1.162855	0.717575
H	-0.11033	2.002208	0.323873
H	-0.141015	1.093185	1.653251
Br	3.46783	0.0	0.0
