15

C	-0.520022	0.004315	-1.455557
C	0.0	0.0	0.0
Cl	0.03532	-1.457384	-2.344035
H	1.10021	0.0	0.0
C	-1.988058	0.009482	-1.453119
N	-3.162282	0.026851	-1.439929
C	-0.043416	1.189841	-2.171209
N	0.315505	2.148426	-2.747226
N	-0.557607	-1.172264	0.678239
H	-0.148933	-2.005902	0.266016
H	-0.193704	-1.137278	1.62671
N	-0.469249	1.225256	0.596288
H	-1.31471	1.0617	1.127126
H	0.250779	1.632735	1.175885
Br	3.505207	0.0	0.0
