15

C	-0.500255	0.005298	-1.464576
C	0.0	0.0	0.0
Cl	0.036229	1.489952	-2.328475
H	1.100249	0.0	0.0
C	0.018724	-1.159493	-2.184694
N	0.411365	-2.102192	-2.76482
C	-1.967387	-0.035368	-1.488592
N	-3.141122	-0.081234	-1.497695
N	-0.468388	-1.234963	0.576865
H	0.251535	-1.649141	1.153386
H	-1.317914	-1.082163	1.10708
N	-0.569773	1.160727	0.685158
H	-0.218895	1.115352	1.637727
H	-0.160227	2.001229	0.287893
Br	3.500055	0.0	0.0
