15

C	-0.52006	0.00014	-1.465021
C	0.0	0.0	0.0
Cl	0.268568	-1.300694	-2.394518
H	1.09894	0.0	0.0
C	-1.969458	-0.231171	-1.456722
N	-3.126767	-0.433582	-1.426558
C	-0.250512	1.280342	-2.126212
N	-0.030139	2.308239	-2.651604
N	-0.456674	-1.20534	0.633121
H	0.248337	-1.54915	1.27189
H	-1.339489	-1.055934	1.110826
N	-0.559573	1.203028	0.630228
H	-0.021062	2.007862	0.319059
H	-0.36837	1.11713	1.624559
Br	3.509815	0.0	0.0
