15

C	0.0	0.0	0.0
C	-0.508849	0.016196	-1.437873
Br	1.948133	0.0	0.0
H	0.006494	0.770367	-2.022162
H	-1.594259	0.165953	-1.409763
N	-0.33519	1.407053	0.607236
O	-0.398214	2.360615	-0.157906
O	-0.464892	1.439504	1.822899
N	-0.520381	-1.057051	0.733394
H	-1.542976	-1.040056	0.623204
H	-0.269133	-0.978065	1.710723
N	-0.248104	-1.297127	-2.089196
O	-1.062416	-2.197324	-1.907607
O	0.766243	-1.385843	-2.787136
Br	-3.673137	0.0	0.0
