15
Coordinates from ORCA-job run
  C   -0.66797185795632     -0.51029459276714      0.32584622020973
  C   0.77781902853900      0.06932569766371      0.35417308434965
  Br  -0.57511223008363     -2.36578910262461      0.88282008179545
  H   1.10473448532724      0.02744228112293      1.39440186814202
  N   -1.30484804769223     -0.49917240689730     -1.07378049974920
  O   -0.62316767451151     -0.96930965705735     -1.97256822414790
  O   -2.43796177931284     -0.05831578951827     -1.15851133121457
  C   -1.52021038727659      0.22536527803160      1.24257133219322
  N   -2.12940065202222      0.83731847314497      2.04169302794132
  N   0.65750898476082      1.55271409012958      0.04717081223379
  O   -0.09659922576726      1.85578830595365     -0.87562637411099
  O   1.35483174347579      2.30919664877285      0.70747376255142
  N   1.76579422433583     -0.48009112243673     -0.49208930088893
  H   1.39885083395267     -0.78363511121227     -1.38251519129727
  H   2.29473255423123     -1.21054299230563     -0.04205926800775
