15
Coordinates from ORCA-job run
  C   -0.59348175057061     -0.55578637506634     -0.03273136375852
  C   0.57213393350980      0.46654699169209      0.18240034860678
  Br  -0.10757821197848     -1.94735590944100     -1.26263837072606
  H   0.12405701867530      1.32712904397497      0.68225896080609
  N   -1.86975579133288      0.20415040935101     -0.50403594529335
  O   -2.21158248952265      1.07332186177844      0.28453623083411
  O   -2.39960559356365     -0.11773229887332     -1.54791215035631
  C   -0.91431797622682     -1.13404710293994      1.26170887209199
  N   -1.11208089777638     -1.56154307388006      2.33968891958539
  N   0.96835723317102      0.94180795832166     -1.20106571589810
  O   0.09984250701578      1.57444526768673     -1.79796729782866
  O   2.06175936881209      0.60524382139060     -1.63333727519503
  N   1.70758090808114      0.01850425179910      0.88247686917506
  H   1.53318026315920     -0.09693104301217      1.87021940055112
  H   2.14149147854716     -0.79875380278175      0.47739851740548
