18

C	-0.467796	-0.038117	-1.44346
C	0.0	0.0	0.0
F	-1.841877	-0.132368	-1.525484
H	1.094312	0.0	0.0
N	-0.120227	1.303152	-2.078915
O	1.04498	1.452518	-2.42864
O	-1.015386	2.142284	-2.166757
C	0.176372	-1.139219	-2.240843
H	-0.072744	-1.039812	-3.299448
H	-0.205489	-2.092314	-1.870813
H	1.256538	-1.091439	-2.087136
C	-0.454144	-1.219781	0.64618
N	-0.805316	-2.205003	1.184322
C	-0.453235	1.239008	0.770581
H	0.048728	2.119572	0.364179
H	-1.534607	1.387297	0.732314
H	-0.136319	1.139474	1.810702
H	2.70059	0.0	0.0
