18

C	-0.489768	0.063433	-1.44034
C	0.0	0.0	0.0
F	-0.143749	1.273495	-1.971974
H	1.095489	0.0	0.0
N	0.229949	-0.988674	-2.283068
O	0.819744	-0.623047	-3.288423
O	0.079813	-2.14709	-1.908394
C	-1.969921	-0.148901	-1.665982
H	-2.519785	0.636291	-1.146554
H	-2.186956	-0.07979	-2.734743
H	-2.281091	-1.120516	-1.28752
C	-0.514311	-1.166196	0.695103
N	-0.947049	-2.07404	1.305982
C	-0.365626	1.271655	0.77148
H	0.080383	2.129914	0.269123
H	-1.443257	1.423773	0.881862
H	0.084221	1.201589	1.763833
H	2.684734	0.0	0.0
