18

C	-0.338073	0.053946	-1.47974
C	0.0	0.0	0.0
F	0.013808	-1.132485	-2.056444
H	1.097125	0.0	0.0
N	-1.852534	0.157917	-1.678372
O	-2.476272	-0.858143	-1.966792
O	-2.349191	1.269039	-1.48825
C	0.354369	1.175232	-2.2057
H	1.41433	1.104	-1.94332
H	-0.041773	2.142251	-1.90626
H	0.214875	1.042434	-3.281271
C	-0.520154	-1.214828	0.602518
N	-0.955196	-2.17256	1.128637
C	-0.390933	1.233523	0.811317
H	0.10583	2.112737	0.397631
H	-0.011387	1.101089	1.827078
H	-1.467663	1.408299	0.847938
H	2.690835	0.0	0.0
