18

C	-0.473202	0.012509	-1.448555
C	0.0	0.0	0.0
F	-0.243168	1.249859	-1.98393
H	1.095463	0.0	0.0
N	0.369699	-0.967703	-2.264719
O	0.940297	-0.553614	-3.263742
O	0.340034	-2.128211	-1.869473
C	-1.919386	-0.354989	-1.699079
H	-2.562937	0.336625	-1.152538
H	-2.131878	-0.267217	-2.767924
H	-2.116746	-1.372176	-1.364826
C	-0.506808	-1.155	0.717005
N	-0.919586	-2.04325	1.369615
C	-0.385498	1.287457	0.733131
H	-0.011612	1.217919	1.756654
H	0.116486	2.128053	0.254603
H	-1.464607	1.467969	0.763218
H	2.677878	0.0	0.0
