18

C	-0.480959	0.037457	-1.444362
C	0.0	0.0	0.0
F	-0.190453	1.262127	-1.978518
H	1.095488	0.0	0.0
N	0.298916	-0.982696	-2.274388
O	0.852285	-0.597241	-3.294029
O	0.230774	-2.14089	-1.875264
C	-1.948782	-0.249962	-1.683353
H	-2.210499	-1.244122	-1.320595
H	-2.158757	-0.177057	-2.75377
H	-2.545646	0.497922	-1.156113
C	-0.515343	-1.156459	0.708191
N	-0.951194	-2.043015	1.34723
C	-0.374695	1.281047	0.752112
H	-1.454309	1.445368	0.827103
H	0.096877	2.130855	0.259063
H	0.041736	1.211603	1.75932
H	2.684029	0.0	0.0
