17

C	-0.404274	-0.061836	-1.457784
C	0.0	0.0	0.0
Cl	-2.139469	-0.537212	-1.666241
H	1.093574	0.0	0.0
H	-0.306419	-0.957022	0.437075
N	-0.271433	1.340291	-2.050598
O	0.815061	1.607907	-2.553249
O	-1.203523	2.127109	-1.924821
C	0.478572	-1.015753	-2.228536
H	0.27267	-0.971579	-3.300479
H	0.279583	-2.026664	-1.867788
H	1.522308	-0.765897	-2.009395
C	-0.556151	1.16282	0.803391
H	-0.264928	1.036867	1.849136
H	-0.128635	2.108688	0.464499
H	-1.645552	1.236445	0.745147
H	2.950395	0.0	0.0
