17

C	-0.573647	0.028678	-1.402315
C	0.0	0.0	0.0
Cl	0.129133	1.349471	-2.36765
H	1.091253	0.0	0.0
H	-0.333473	-0.943223	0.449606
N	-0.17631	-1.300938	-2.055397
O	0.829444	-1.375171	-2.742918
O	-0.92172	-2.24237	-1.777349
C	-2.086081	0.141668	-1.477245
H	-2.542953	-0.621267	-0.849183
H	-2.433062	0.016314	-2.505195
H	-2.38534	1.128549	-1.127013
C	-0.451492	1.175628	0.859842
H	-1.51393	1.148782	1.122675
H	-0.236698	2.123944	0.361887
H	0.134688	1.162671	1.782238
H	2.954202	0.0	0.0
