17

C	-0.350608	-0.065954	-1.458732
C	0.0	0.0	0.0
Cl	-2.155047	-0.090287	-1.760127
H	1.096985	0.0	0.0
H	-0.370279	0.933711	0.423709
N	0.085203	1.249211	-2.122645
O	-0.143756	2.286058	-1.511271
O	0.596962	1.186661	-3.235758
C	0.293497	-1.225788	-2.168799
H	0.110254	-1.188977	-3.240708
H	-0.109667	-2.154985	-1.765941
H	1.367979	-1.175351	-1.956651
C	-0.462235	-1.204276	0.807677
H	-0.216892	-1.032603	1.858652
H	-1.538398	-1.384743	0.730313
H	0.073496	-2.106957	0.506707
H	2.910395	0.0	0.0
