17

C	-0.400832	-0.050659	-1.459205
C	0.0	0.0	0.0
Cl	-2.144383	-0.509557	-1.674909
H	1.093586	0.0	0.0
H	-0.301438	-0.964458	0.424482
N	-0.263638	1.348639	-2.057261
O	0.792609	1.591685	-2.629966
O	-1.165853	2.15759	-1.865193
C	0.473526	-1.014473	-2.222909
H	0.270172	-2.023561	-1.859648
H	1.517468	-0.77039	-2.00165
H	0.273606	-0.972281	-3.294964
C	-0.553749	1.145749	0.828316
H	-1.642212	1.224792	0.769448
H	-0.121576	2.098676	0.516334
H	-0.266646	0.991015	1.871988
H	2.949081	0.0	0.0
