16

C	-0.495271	0.046337	-1.430923
C	0.0	0.0	0.0
Cl	0.174116	-1.362593	-2.317452
H	1.08747	0.0	0.0
H	-1.582218	-0.05322	-1.480971
C	0.031713	1.312348	-2.088252
H	-0.135378	1.275832	-3.165962
H	-0.471383	2.195959	-1.688895
H	1.100708	1.377707	-1.871844
N	-0.554561	-1.127586	0.788179
O	-0.162059	-1.201801	1.951603
O	-1.353007	-1.903356	0.261429
N	-0.51224	1.223183	0.690336
O	-1.691641	1.212463	1.060607
O	0.248174	2.179994	0.79725
F	2.502808	0.0	0.0
