16

C	-0.49067	0.047403	-1.433055
C	0.0	0.0	0.0
Cl	0.186388	-1.357511	-2.319642
H	1.087503	0.0	0.0
H	-1.576943	-0.055502	-1.487394
C	0.034866	1.314768	-2.088521
H	-0.471543	2.19716	-1.691155
H	1.102611	1.382526	-1.868878
H	-0.128435	1.27674	-3.166569
N	-0.551411	-1.132663	0.783104
O	-1.344301	-1.910689	0.252255
O	-0.1614	-1.208786	1.946896
N	-0.516289	1.21848	0.693649
O	-1.692854	1.198699	1.07339
O	0.237937	2.18081	0.794648
F	2.503098	0.0	0.0
