16

C	-0.291652	-0.055578	-1.479321
C	0.0	0.0	0.0
Cl	-2.047977	-0.23328	-1.870729
H	1.091133	0.0	0.0
H	-0.009082	0.923381	-1.86217
C	0.538577	-1.138102	-2.142919
H	1.555871	-1.011503	-1.760354
H	0.507015	-1.023874	-3.228346
H	0.178815	-2.13275	-1.878528
N	-0.557033	-1.17079	0.710334
O	-1.653478	-1.06889	1.257769
O	0.106498	-2.206364	0.647919
N	-0.453703	1.242366	0.660077
O	-0.720903	2.211877	-0.053327
O	-0.42527	1.26032	1.8883
F	2.511849	0.0	0.0
