16

C	-0.538927	-0.094591	-1.417837
C	0.0	0.0	0.0
Cl	0.209205	1.194344	-2.416143
H	1.091515	0.0	0.0
H	-0.150362	-1.030948	-1.813789
C	-2.047119	-0.021708	-1.573155
H	-2.42352	0.956226	-1.271206
H	-2.318086	-0.187618	-2.618258
H	-2.521771	-0.786685	-0.957316
N	-0.389472	-1.184463	0.796622
O	-0.260834	-1.103391	2.01459
O	-0.717485	-2.211871	0.194317
N	-0.553775	1.195608	0.685543
O	0.12467	2.219445	0.653773
O	-1.680976	1.111858	1.18477
F	2.471598	0.0	0.0
