16

C	-0.446334	-0.034333	-1.448472
C	0.0	0.0	0.0
Cl	0.185352	-1.530894	-2.212625
H	1.096585	0.0	0.0
H	-1.533978	-0.08216	-1.538888
C	0.182341	1.155357	-2.158774
H	1.240722	1.172675	-1.886407
H	0.067944	1.057548	-3.239715
H	-0.287432	2.08997	-1.842582
N	-0.593275	-1.059338	0.847467
O	-1.396395	-1.852882	0.355701
O	-0.236822	-1.055781	2.025183
N	-0.513799	1.275486	0.590111
O	-1.716273	1.318322	0.873334
O	0.268925	2.212589	0.7074
F	2.508291	0.0	0.0
