16

C	0.0	0.0	0.0
C	-0.529982	-0.37617	-1.404076
Cl	1.794008	0.0	0.0
H	0.335752	-0.554885	-2.058196
C	-0.437723	1.298554	0.512242
N	-0.562258	2.324191	1.073917
C	-0.33757	-1.076075	1.055251
H	0.118058	-0.775646	2.001032
H	-1.422256	-1.109949	1.120027
H	0.090872	-2.034122	0.751155
N	-1.251295	0.73498	-2.125394
O	-2.162821	0.423666	-2.876284
O	-0.756126	1.851352	-2.014974
C	-1.345456	-1.585455	-1.414552
N	-1.781103	-2.66747	-1.560026
F	-2.447111	0.0	0.0
