16

C	0.0	0.0	0.0
C	-0.45917	0.085687	-1.461565
Cl	1.789663	0.0	0.0
H	-0.090046	-0.812067	-1.963229
C	-0.432762	1.115165	0.842384
N	-0.613265	1.979814	1.617213
C	-0.399023	-1.346124	0.61505
H	0.023456	-1.414891	1.619483
H	-1.485617	-1.372304	0.636922
H	0.021216	-2.149835	0.004391
N	0.257947	1.209617	-2.17119
O	0.892888	0.914956	-3.181385
O	0.144524	2.333323	-1.694993
C	-1.903454	0.251479	-1.766504
N	-2.630356	0.421126	-2.689718
F	-2.578948	0.0	0.0
