16

C	0.0	0.0	0.0
C	-0.471603	0.248815	-1.441966
Cl	1.789583	0.0	0.0
H	-0.174774	-0.621918	-2.031398
C	-0.430129	1.025618	0.951792
N	-0.617938	1.813663	1.802976
C	-0.399962	-1.401066	0.474093
H	0.027633	-2.138662	-0.210486
H	-1.486535	-1.432433	0.485544
H	0.015179	-1.569639	1.469989
N	0.310269	1.384116	-2.058935
O	0.916685	1.141909	-3.100738
O	0.275696	2.464131	-1.480867
C	-1.902367	0.548373	-1.697575
N	-2.625173	0.928102	-2.559612
F	-2.58123	0.0	0.0
