16

C	0.0	0.0	0.0
C	-0.527559	0.065174	-1.455236
Cl	1.791873	0.0	0.0
H	0.341462	0.111256	-2.127458
C	-0.437136	1.086029	0.878311
N	-0.56633	1.89225	1.724887
C	-0.341164	-1.341284	0.682317
H	0.091831	-2.163886	0.108305
H	-1.426485	-1.391613	0.725309
H	0.106535	-1.338262	1.677852
N	-1.266702	1.333743	-1.804716
O	-0.78438	2.366229	-1.355807
O	-2.169631	1.256577	-2.622404
C	-1.326605	-1.094428	-1.836421
N	-1.781339	-2.082498	-2.27867
F	-2.447764	0.0	0.0
