16

C	0.0	0.0	0.0
C	-0.532313	-0.226237	-1.437368
Cl	1.78787	0.0	0.0
H	0.335023	-0.342138	-2.103178
C	-0.441339	1.237442	0.644291
N	-0.569909	2.197768	1.310753
C	-0.341277	-1.180219	0.935048
H	0.112544	-0.981556	1.908387
H	0.086528	-2.101588	0.53282
H	-1.426781	-1.217986	0.993801
N	-1.234467	0.96536	-2.038849
O	-0.702306	2.049317	-1.825726
O	-2.165891	0.759003	-2.800391
C	-1.359551	-1.420076	-1.573695
N	-1.810028	-2.477607	-1.818194
F	-2.449888	0.0	0.0
