16

C	0.0	0.0	0.0
C	-0.470201	0.060284	-1.459268
Cl	1.788395	0.0	0.0
H	-0.137601	-0.863152	-1.939251
C	-0.431373	1.134134	0.817811
N	-0.609892	2.024225	1.563801
C	-0.39817	-1.333196	0.645664
H	0.036208	-2.148436	0.061441
H	-1.484898	-1.366536	0.656984
H	0.012391	-1.372026	1.65715
N	0.277339	1.141332	-2.204148
O	0.90502	0.797278	-3.203554
O	0.19283	2.28293	-1.762479
C	-1.908835	0.273084	-1.757796
N	-2.630594	0.498259	-2.673152
F	-2.58198	0.0	0.0
