16

C	0.0	0.0	0.0
C	-0.527716	-0.330945	-1.417752
Cl	1.795215	0.0	0.0
H	0.340714	-0.508166	-2.06787
C	-0.439682	1.282037	0.549873
N	-0.572854	2.29394	1.133823
C	-0.336855	-1.110234	1.017787
H	0.119453	-0.84259	1.972578
H	-1.421453	-1.145659	1.082125
H	0.09049	-2.057479	0.681243
N	-1.213548	0.819721	-2.109391
O	-0.663353	1.90889	-1.985075
O	-2.15576	0.568842	-2.844001
C	-1.368414	-1.522733	-1.461788
N	-1.80786	-2.600052	-1.630614
F	-2.445164	0.0	0.0
