15

C	-0.498227	-0.005434	-1.448438
C	0.0	0.0	0.0
Br	0.09876	1.742207	-2.278853
H	1.09256	0.0	0.0
N	0.037423	-1.147742	-2.090846
H	1.050029	-1.102716	-2.151581
H	-0.369348	-1.307182	-3.003814
C	-1.955434	-0.021393	-1.57191
N	-3.116903	-0.088366	-1.743698
C	-0.525717	-1.147111	0.706768
N	-0.936731	-2.079403	1.300786
N	-0.421691	1.248107	0.736574
O	-1.627485	1.471963	0.817155
O	0.478007	1.937842	1.201148
Br	2.750416	0.0	0.0
