15

C	-0.555509	0.042391	-1.431505
C	0.0	0.0	0.0
Br	0.11028	-1.657336	-2.307659
H	1.091054	0.0	0.0
N	-1.969876	0.142892	-1.406535
H	-2.357111	0.192362	-2.340433
H	-2.37911	-0.639288	-0.9072
C	-0.00377	1.108697	-2.267027
N	0.314803	1.931241	-3.043473
C	-0.531273	-1.154674	0.709086
N	-0.997902	-2.093912	1.239668
N	-0.415703	1.258738	0.725125
O	-0.167538	2.309346	0.147666
O	-0.926499	1.145454	1.835826
Br	3.280683	0.0	0.0
