15

C	-0.517686	-0.028372	-1.447749
C	0.0	0.0	0.0
Br	0.404194	-1.500902	-2.353513
H	1.091084	0.0	0.0
N	-1.932171	-0.292215	-1.522773
H	-2.415757	0.448698	-1.026504
H	-2.225146	-0.302878	-2.49279
C	-0.103471	1.21177	-2.124745
N	0.118155	2.23848	-2.652656
C	-0.526214	-1.108388	0.785948
N	-0.923985	-1.989527	1.452887
N	-0.429336	1.288776	0.690353
O	-1.569792	1.702731	0.457495
O	0.371726	1.81138	1.450232
Br	3.383506	0.0	0.0
