15

C	-0.331335	-0.049644	-1.50537
C	0.0	0.0	0.0
Br	0.014184	1.823755	-2.25293
H	1.092539	0.0	0.0
N	0.505143	-1.037608	-2.042923
H	0.408639	-1.140541	-3.043878
H	1.480813	-0.890475	-1.768087
C	-1.735906	-0.296999	-1.829593
N	-2.847266	-0.539213	-2.13029
C	-0.518368	-1.188076	0.662816
N	-0.939869	-2.135695	1.215327
N	-0.574701	1.205617	0.677619
O	-1.800423	1.305228	0.636533
O	0.203069	1.980633	1.217009
Br	3.349374	0.0	0.0
