15

C	-0.326677	-0.037347	-1.511412
C	0.0	0.0	0.0
Br	-2.249273	-0.278892	-1.88452
H	1.09322	0.0	0.0
N	0.136529	1.133671	-2.209319
H	-0.369977	1.94736	-1.875809
H	1.131797	1.242105	-2.011583
C	0.323784	-1.22879	-2.072041
N	0.8029	-2.185353	-2.557046
C	-0.543726	-1.099477	0.771031
N	-0.969313	-1.991355	1.407334
N	-0.453978	1.304023	0.602
O	0.413327	2.027303	1.080423
O	-1.657355	1.558336	0.549968
Br	3.313995	0.0	0.0
