19

C	0.0	0.0	0.0
C	-0.314555	0.066942	-1.549396
Cl	1.781867	0.0	0.0
H	0.47109	0.762862	-1.886765
C	-0.634906	1.131511	0.749997
H	-0.321518	1.138249	1.794926
H	-0.351651	2.075993	0.278849
H	-1.727814	0.942096	0.65707
N	-0.388519	-1.326536	0.666151
O	-1.163927	-1.27424	1.610951
O	0.137301	-2.350459	0.239057
C	-1.643297	0.66255	-1.982002
H	-1.667134	1.734013	-1.760747
H	-2.489603	0.202904	-1.431599
H	-1.70366	0.552053	-3.073166
N	-0.164005	-1.246115	-2.175282
H	0.733287	-1.654783	-1.943194
H	-0.1986	-1.101534	-3.177074
F	-3.24214	0.0	0.0
