19

C	0.0	0.0	0.0
C	-0.450317	-0.093093	-1.519698
Cl	1.781939	0.0	0.0
H	0.405396	-0.546272	-2.030106
C	-0.624405	1.079759	0.828848
H	-0.351372	2.055272	0.42649
H	-0.295542	1.011726	1.86599
H	-1.714164	0.899856	0.744183
N	-0.312312	-1.362048	0.645786
O	0.037343	-2.36003	0.018869
O	-0.854795	-1.382242	1.743131
C	-0.680485	1.316332	-2.050599
H	0.147501	2.000038	-1.838829
H	-0.824045	1.249769	-3.130586
H	-1.604099	1.69397	-1.606202
N	-1.618954	-0.877741	-1.821663
H	-2.394313	-0.56486	-1.174151
H	-1.416977	-1.850445	-1.630369
F	-3.180668	0.0	0.0
