19

C	0.0	0.0	0.0
C	-0.304597	0.039356	-1.557784
Cl	1.78189	0.0	0.0
H	0.492686	0.722568	-1.893604
C	-0.617679	1.162223	0.714322
H	-0.293598	1.202648	1.755225
H	-1.713121	0.972981	0.632591
H	-0.330168	2.086125	0.206245
N	-0.393375	-1.298463	0.710182
O	0.046993	-2.349932	0.254616
O	-1.06933	-1.204447	1.725748
C	-1.614374	0.648001	-2.025178
H	-2.469242	0.198963	-1.488909
H	-1.654584	0.527279	-3.116743
H	-1.632547	1.721612	-1.81271
N	-0.161164	-1.279485	-2.172564
H	-0.114234	-1.136096	-3.174592
H	0.693584	-1.729452	-1.873493
F	-3.150141	0.0	0.0
