19

C	0.0	0.0	0.0
C	-0.644745	-0.44277	-1.342711
Cl	1.767688	0.0	0.0
H	-1.449419	-1.10127	-1.015766
C	-0.513648	1.306792	0.542702
H	-0.048001	1.526342	1.502944
H	-0.288055	2.084437	-0.185503
H	-1.599332	1.161089	0.629644
N	-0.309926	-1.109834	1.028343
O	-0.274672	-2.268813	0.62385
O	-0.497586	-0.785687	2.194797
C	0.287296	-1.185087	-2.284986
H	-0.300503	-1.550137	-3.134118
H	1.085931	-0.541806	-2.66731
H	0.726175	-2.051653	-1.786162
N	-1.254407	0.729804	-1.976097
H	-1.530907	0.44029	-2.910153
H	-2.124526	0.788945	-1.416168
F	-2.952415	0.0	0.0
