19

C	0.0	0.0	0.0
C	-0.449643	-0.152228	-1.514145
Cl	1.786111	0.0	0.0
H	0.408363	-0.618412	-2.008188
C	-0.622776	1.109988	0.788374
H	-0.286871	1.085977	1.825042
H	-0.357163	2.069233	0.344359
H	-1.712147	0.921851	0.715077
N	-0.305665	-1.335786	0.702301
O	0.030127	-2.358232	0.10855
O	-0.824969	-1.31224	1.811334
C	-0.686873	1.236403	-2.0966
H	-0.829988	1.129146	-3.173462
H	0.137464	1.931745	-1.910004
H	-1.612991	1.622795	-1.665628
N	-1.613649	-0.952674	-1.789187
H	-1.407793	-1.916318	-1.560793
H	-2.389829	-0.618542	-1.155674
F	-3.16904	0.0	0.0
