17
Coordinates from ORCA-job run
  C   -0.56685528547726      0.19337119724478     -0.48375271683129
  C   0.91351810934212      0.18965409825471     -0.09651645221606
  Br  -0.49713407501550     -0.17407542105911     -2.48489585061874
  H   1.45559283773186      0.95883680369532     -0.64132822567915
  N   -1.03999616826215      1.48703099096396     -0.17421387839546
  H   -2.03468360975025      1.57653844340058     -0.33437295064460
  H   -0.54657556235000      2.22893149564460     -0.65519789092387
  C   -1.47430393970593     -0.85761984225584      0.12469853543497
  H   -1.48869203933765     -0.73985648979560      1.20872321511884
  H   -2.48203538671798     -0.70390702761150     -0.26824985396607
  H   -1.15350670070684     -1.86367934992613     -0.12316792743401
  N   1.66175488834222     -1.08353609093139     -0.34846720969341
  O   2.75822095325774     -0.94151994550198     -0.88602233618449
  O   1.15836000980224     -2.13777074115876      0.02036778721967
  N   1.07480750708253      0.53174105101183      1.36400923415496
  O   0.71861784295570     -0.30553519538511      2.18457261227017
  O   1.54191061880916      1.64239602340965      1.59381390838856
