17
Coordinates from ORCA-job run
  C   -0.61271196679169      0.25351629623961     -0.43054594050720
  C   0.88571130850255     -0.02979010604505     -0.26038350570443
  Br  -0.79981178806315      1.13848955088844     -2.18757662000242
  H   1.32031623838299     -0.46906455234364     -1.15515245689180
  N   -1.05410210512329      1.19395618540005      0.55954940715452
  H   -0.90788223017164      0.80873845699864      1.48655216508907
  H   -2.03561857415623      1.40633851133151      0.42921183910089
  C   -1.38621672076662     -1.06067540280123     -0.53185605319693
  H   -0.96163423994726     -1.72615678795911     -1.28769158866063
  H   -1.39043818873144     -1.56243044107795      0.43751141098633
  H   -2.41766501638039     -0.84422523189831     -0.81408087348630
  N   1.17412268333848     -0.98936738093207      0.86108742939640
  O   0.46829879574285     -0.94489281018980      1.86476498635384
  O   2.13389948220456     -1.73420630879219      0.67934177836122
  N   1.67413100955206      1.21919268494570      0.04868571210130
  O   1.80350040218974      1.52299695598186      1.22724742482316
  O   2.10810091021847      1.81758038025356     -0.92666511491703
