17
Coordinates from ORCA-job run
  C   -0.57338920137311      0.11047181650215     -0.37499713668496
  C   0.76856560227610     -0.05496507897201      0.36476269967539
  Br  -0.29050149642036      0.10795538997992     -2.30919882856214
  H   0.57638909195289     -0.29930674209676      1.41249013038563
  N   -1.04250423097556      1.43708874264059     -0.01298115510496
  H   -1.38765189722816      1.42801783502523      0.94312669873059
  H   -1.80218386433034      1.71251804223630     -0.62336956599547
  C   -1.55787853697168     -1.00413997995243     -0.03919314049317
  H   -2.50972918736265     -0.78229446689678     -0.52526454486168
  H   -1.71876515034266     -1.02297474830938      1.04484587935635
  H   -1.21015785834330     -1.98163866403931     -0.36256913209848
  N   1.52888180910939      1.23537288989285      0.38635946238066
  O   1.96357067549181      1.65571040302399     -0.67366083938097
  O   1.62002460031505      1.76371521394355      1.49194851510670
  N   1.66364129083979     -1.15659962985339     -0.14270214870054
  O   1.11481758016830     -2.23573977252642     -0.32663896216936
  O   2.85687077319449     -0.91419125059811     -0.25295793158360
