17
Coordinates from ORCA-job run
  C   -0.65202604765152      0.18846636028082     -0.28905743265222
  C   0.84450457032424     -0.11420749496282     -0.25103393893777
  Br  -0.83972409346528      1.20219926122814     -2.06913849218602
  H   1.13878643828215     -0.76210803933510     -1.07312756419635
  N   -1.07270240692780      0.89814530720271      0.83833014369232
  H   -2.07412719273988      1.03266536420542      0.86116787802633
  H   -0.57593167844127      1.76691482335602      0.98096176330060
  C   -1.47319734368364     -1.07667250909303     -0.47645592394050
  H   -2.51337435948580     -0.80019897657455     -0.65888942584132
  H   -1.41813103970570     -1.68555391451426      0.42670765718595
  H   -1.12205907521797     -1.65670001126278     -1.32916620555703
  N   1.19074198485081     -0.84172292391666      1.02955151709565
  O   0.97599307262259     -2.04850992760938      1.00521912741792
  O   1.62501425678330     -0.18462961122810      1.96515274521618
  N   1.75107569274301      1.07962681292915     -0.31127555802245
  O   1.37700086390993      2.12977658958900      0.19818241264471
  O   2.83615635780284      0.87350888970543     -0.84612870324599
