12

C	0.0	0.0	0.0
C	-0.530076	0.005515	-1.425239
F	1.380669	0.0	0.0
H	-0.293083	0.973715	-1.875311
H	-0.289681	-0.950487	0.468011
H	-1.62932	-0.084245	-1.266546
N	-0.535234	1.147611	0.664494
H	-0.338961	1.049152	1.656173
H	-1.560909	0.964501	0.541831
C	0.017594	-1.067711	-2.238815
N	0.446341	-1.9373	-2.902309
F	-2.831712	0.0	0.0
