12

C	0.0	0.0	0.0
C	-0.535176	0.094071	-1.419355
F	1.389007	0.0	0.0
H	-1.635435	0.008056	-1.255815
H	-0.285233	-0.977916	0.409781
H	-0.289744	1.08388	-1.814598
N	-0.531188	1.104326	0.735514
H	-1.557197	0.930835	0.607442
H	-0.327922	0.947396	1.718178
C	-0.015113	-0.936995	-2.302752
N	0.388513	-1.760139	-3.036929
F	-2.832179	0.0	0.0
