12

C	0.0	0.0	0.0
C	-0.527687	-0.07661	-1.424261
F	1.38059	0.0	0.0
H	-0.268902	0.854921	-1.937165
H	-0.292629	-0.920974	0.521835
H	-1.628518	-0.140814	-1.264131
N	-0.53498	1.185038	0.595741
H	-0.33099	1.147612	1.59023
H	-1.561351	0.991502	0.486309
C	0.001341	-1.212394	-2.163423
N	0.420285	-2.130936	-2.76413
F	-2.827549	0.0	0.0
