12

C	0.0	0.0	0.0
C	-0.397394	0.014438	-1.474562
F	1.404408	0.0	0.0
H	-1.505031	-0.004953	-1.44318
H	-0.380138	-0.873072	0.515259
H	-0.010776	0.936763	-1.926203
N	-0.336764	1.203068	0.677368
H	0.167948	1.991022	0.279828
H	-0.203836	1.112071	1.670162
C	0.169049	-1.124108	-2.189445
N	0.52764	-2.072779	-2.782162
F	-2.509909	0.0	0.0
