12

C	0.0	0.0	0.0
C	-0.533017	0.177916	-1.412162
F	1.3805	0.0	0.0
H	-0.288893	1.189497	-1.748814
H	-0.291081	-0.999611	0.349223
H	-1.6329	0.0759	-1.259097
N	-0.533742	1.058368	0.800124
H	-0.335542	0.839145	1.77134
H	-1.559129	0.893002	0.65763
C	0.002901	-0.800037	-2.345802
N	0.423764	-1.595798	-3.101297
F	-2.831577	0.0	0.0
