12

C	0.0	0.0	0.0
C	-0.527658	0.245274	-1.404048
F	1.38913	0.0	0.0
H	-1.627633	0.137358	-1.26138
H	-0.285675	-1.01646	0.301323
H	-0.283445	1.272859	-1.68756
N	-0.532821	1.018705	0.848858
H	-0.333418	0.754849	1.809241
H	-1.559033	0.858482	0.698302
C	0.010556	-0.684634	-2.383363
N	0.43053	-1.448217	-3.171621
F	-2.828623	0.0	0.0
