12

C	0.0	0.0	0.0
C	-0.487497	-0.024463	-1.452651
F	1.387488	0.0	0.0
H	-0.129873	-0.919389	-1.973277
H	-0.329222	-0.930963	0.46595
H	-1.590482	-0.050795	-1.303527
N	-0.50574	1.083699	0.775062
H	-1.530731	0.899261	0.713327
H	-0.310316	1.949776	0.280414
C	-0.057629	1.159087	-2.182679
N	0.282939	2.126858	-2.755271
F	-2.793464	0.0	0.0
