17

C	0.0	0.0	0.0
C	-0.412408	0.009617	-1.518282
F	1.357382	0.0	0.0
H	0.429887	-0.53599	-1.962333
N	-0.287067	1.379988	0.818401
O	0.403913	1.380519	1.85269
O	-0.997968	2.28087	0.444999
C	-0.300089	-1.249366	0.80858
H	-1.331431	-1.442277	1.057078
H	0.105828	-2.086966	0.230361
H	0.31079	-1.173306	1.704967
N	-0.131349	1.351984	-2.220644
O	-0.755714	1.577093	-3.251778
O	0.669689	2.090113	-1.687503
C	-1.578439	-0.60517	-2.185444
N	-2.393906	-1.169483	-2.8184
Cl	-3.055469	0.0	0.0
