17

C	0.0	0.0	0.0
C	-0.605809	0.271326	-1.376387
F	1.351152	0.0	0.0
H	-1.709171	0.283304	-1.23536
N	-0.361482	1.20053	0.895207
O	-1.127126	2.05142	0.459911
O	0.175258	1.193815	1.997297
C	-0.522833	-1.243509	0.663878
H	-1.615753	-1.221085	0.662536
H	-0.133512	-1.262365	1.681992
H	-0.165592	-2.121878	0.125698
N	-0.259527	-0.90003	-2.265734
O	-1.024373	-1.856966	-2.230458
O	0.777317	-0.827259	-2.923723
C	-0.087049	1.48533	-1.991924
N	0.339731	2.445519	-2.516595
Cl	-3.687346	0.0	0.0
