17

C	0.0	0.0	0.0
C	-0.196359	-0.024062	-1.589088
Br	2.015132	0.0	0.0
H	0.609978	-0.650343	-1.976026
N	-0.504845	1.127631	0.703167
H	-1.532974	0.983935	0.604529
H	-0.231159	1.991403	0.245883
N	-0.520818	-1.229715	0.506727
H	-1.547164	-1.059063	0.393564
H	-0.341165	-1.22404	1.507297
C	0.044985	1.323106	-2.11123
N	0.216198	2.400235	-2.550843
C	-1.49464	-0.590369	-2.181013
H	-2.37007	-0.115736	-1.745151
H	-1.44209	-0.491393	-3.269584
H	-1.541676	-1.650936	-1.930443
F	-2.886418	0.0	0.0
