17

C	0.0	0.0	0.0
C	-0.370318	-0.07866	-1.55427
Br	1.975444	0.0	0.0
H	0.564602	-0.144562	-2.116695
N	-0.448545	1.175516	0.693095
H	-0.171803	2.012794	0.189883
H	-1.478576	1.061379	0.610379
N	-0.472314	-1.185986	0.64901
H	-0.255917	-1.060804	1.634749
H	-1.501139	-1.047805	0.550161
C	-0.982694	1.177444	-1.990481
N	-1.390427	2.194345	-2.414527
C	-1.241828	-1.268763	-1.974564
H	-1.340251	-1.272802	-3.065345
H	-0.766029	-2.194751	-1.651841
H	-2.213203	-1.150849	-1.496361
F	-2.768229	0.0	0.0
