17

C	0.0	0.0	0.0
C	-0.380707	-0.087177	-1.549221
Br	1.972574	0.0	0.0
H	0.551468	-0.108022	-2.12084
N	-0.444603	1.181757	0.686572
H	-0.172009	2.014767	0.173884
H	-1.475017	1.067863	0.60704
N	-0.469068	-1.179436	0.664308
H	-1.496802	-1.046971	0.559557
H	-0.259782	-1.035027	1.64871
C	-1.050348	1.143266	-1.976947
N	-1.482409	2.151231	-2.397171
C	-1.203058	-1.313296	-1.962379
H	-0.69627	-2.218717	-1.629893
H	-2.180012	-1.228234	-1.488636
H	-1.300983	-1.332123	-3.053219
F	-2.757515	0.0	0.0
