15

C	0.0	0.0	0.0
C	-0.613558	-0.023775	-1.405019
Br	1.949293	0.0	0.0
H	-1.741783	-0.018793	-1.08137
N	-0.435341	1.248218	0.58252
H	-0.119977	1.283473	1.545385
H	-1.464579	1.157122	0.5886
N	-0.432661	-1.230152	0.621962
H	-0.110399	-1.239049	1.582455
H	-1.462479	-1.142336	0.628271
C	-0.319563	-1.236077	-2.152532
N	-0.12411	-2.197967	-2.800598
C	-0.321893	1.163242	-2.193527
N	-0.124901	2.101114	-2.875343
H	-2.875155	0.0	0.0
