15

C	0.0	0.0	0.0
C	-0.632189	-0.039542	-1.386008
Br	1.949222	0.0	0.0
H	-1.77809	-0.02853	-1.021835
N	-0.424539	1.256486	0.579564
H	-0.092672	1.303641	1.540083
H	-1.453702	1.179038	0.599158
N	-0.425521	-1.222201	0.644622
H	-1.453155	-1.139892	0.658636
H	-0.099806	-1.210522	1.604619
C	-0.360997	-1.257412	-2.125267
N	-0.183854	-2.221945	-2.775153
C	-0.360825	1.137013	-2.18865
N	-0.185516	2.068463	-2.884254
H	-2.841031	0.0	0.0
