15

C	0.0	0.0	0.0
C	-0.629114	-0.035651	-1.400371
Br	1.960333	0.0	0.0
H	-1.778759	-0.000533	-1.008708
N	-0.442481	1.235437	0.5768
H	-1.470479	1.171226	0.522601
H	-0.188511	1.204095	1.560348
N	-0.402286	-1.144188	0.788993
H	-1.430741	-1.097617	0.774321
H	-0.101529	-2.007516	0.340676
C	-0.396487	-1.287162	-2.093781
N	-0.234687	-2.325447	-2.626895
C	-0.338267	1.10634	-2.240867
N	-0.145276	2.030147	-2.942544
H	-2.800678	0.0	0.0
