15

C	-0.528562	-0.01527	-1.405294
C	0.0	0.0	0.0
Br	-2.487529	-0.007479	-1.500194
H	1.092205	0.0	0.0
H	-0.186564	0.844273	-1.970094
N	-0.000777	-1.228659	-2.124612
O	-0.594159	-2.29422	-2.032764
O	1.040733	-1.027449	-2.744938
N	-0.419422	-1.101476	0.783139
H	0.275122	-1.265788	1.498705
H	-1.324872	-0.960335	1.21155
N	-0.363902	1.340158	0.585602
O	-0.701745	1.376935	1.770077
O	-0.247788	2.334476	-0.131813
F	2.489869	0.0	0.0
