15

C	-0.423752	-0.016068	-1.465294
C	0.0	0.0	0.0
Br	0.381141	1.402231	-2.484524
H	1.089992	0.0	0.0
H	-0.088685	-0.960664	-1.88936
N	-1.928859	-0.013487	-1.658863
O	-2.465161	-1.09236	-1.385581
O	-2.518688	0.996674	-2.011346
N	-0.463679	-1.097551	0.78774
H	-1.34745	-1.481524	0.485134
H	0.262944	-1.798001	0.82035
N	-0.536157	1.263831	0.616312
O	0.248806	2.149348	0.940082
O	-1.761189	1.318785	0.773415
F	2.545964	0.0	0.0
