15

C	-0.573915	-0.052994	-1.400225
C	0.0	0.0	0.0
Br	-0.010894	-1.686645	-2.294775
H	1.091819	0.0	0.0
H	-1.662692	-0.028493	-1.448344
N	-0.135429	1.082372	-2.29684
O	0.950868	1.597549	-2.089355
O	-0.921759	1.373322	-3.197253
N	-0.392544	-1.101855	0.831987
H	-1.128623	-1.67218	0.439351
H	0.429085	-1.665661	1.00092
N	-0.494569	1.26764	0.630852
O	-1.150117	2.055653	-0.068744
O	-0.200316	1.468454	1.800778
F	2.515249	0.0	0.0
