15

C	-0.375663	-0.02791	-1.477611
C	0.0	0.0	0.0
Br	0.253552	1.500952	-2.45942
H	1.08997	0.0	0.0
H	0.097735	-0.907647	-1.906225
N	-1.8597	-0.22227	-1.701923
O	-2.235312	-1.392862	-1.570695
O	-2.591382	0.732475	-1.9246
N	-0.394176	-1.156247	0.743816
H	-1.213693	-1.630967	0.392727
H	0.404051	-1.775115	0.788262
N	-0.628183	1.208415	0.624695
O	0.064941	2.203956	0.817646
O	-1.829027	1.122148	0.901405
F	2.539779	0.0	0.0
