15

C	-0.335981	0.00164	-1.462897
C	0.0	0.0	0.0
Br	-2.240387	-0.324906	-1.866069
H	1.094261	0.0	0.0
H	-0.084345	0.941304	-1.93747
N	0.453125	-1.053741	-2.186371
O	0.344329	-2.217859	-1.819794
O	1.148341	-0.656408	-3.117539
N	-0.436638	-1.08955	0.789053
H	-1.236283	-1.571872	0.406116
H	0.336229	-1.727221	0.906398
N	-0.459351	1.320717	0.55809
O	-0.893917	1.365565	1.70354
O	-0.313984	2.312531	-0.164594
F	2.488237	0.0	0.0
