14

C	-0.417794	-0.153218	-1.453213
C	0.0	0.0	0.0
Cl	0.164914	1.073864	-2.56765
H	1.107899	0.0	0.0
H	-0.031009	-1.109848	-1.801942
N	-1.920802	-0.250231	-1.592529
O	-2.601937	0.424159	-0.826702
O	-2.337767	-0.987701	-2.479596
C	-0.484845	-1.165492	0.724178
N	-0.871989	-2.158561	1.216723
N	-0.44244	1.254378	0.691942
O	-0.855249	1.136758	1.841841
O	-0.294003	2.303773	0.08263
Br	3.267353	0.0	0.0
