14

C	-0.423115	-0.183076	-1.447471
C	0.0	0.0	0.0
Cl	0.182841	1.001186	-2.592773
H	1.106617	0.0	0.0
H	-0.05426	-1.156075	-1.771301
N	-1.92773	-0.256574	-1.586505
O	-2.59785	0.429973	-0.821261
O	-2.355483	-0.989132	-2.472724
C	-0.494991	-1.140387	0.758004
N	-0.896247	-2.112405	1.281842
N	-0.430451	1.277215	0.661637
O	-0.282505	2.307619	0.020774
O	-0.830022	1.195244	1.81816
Br	3.274212	0.0	0.0
