14

C	-0.343905	0.475037	-1.412353
C	0.0	0.0	0.0
Cl	0.050713	2.163626	-1.632411
H	1.107096	0.0	0.0
H	0.247358	-0.123573	-2.104759
N	-1.789817	0.211043	-1.785254
O	-2.635766	1.055845	-1.528215
O	-1.983485	-0.885954	-2.307119
C	-0.484699	-1.349037	0.244217
N	-0.84782	-2.445938	0.455974
N	-0.569178	0.917275	1.041644
O	0.200553	1.698763	1.585615
O	-1.778551	0.816765	1.250076
Br	3.305957	0.0	0.0
