14
Coordinates from ORCA-job run
  C   0.66497432052825      0.02546214822675      0.00788045094708
  C   -0.66517541358330     -0.02548781461635     -0.00768927261713
  N   1.43663888005555      1.14700937758625     -0.53410046674146
  O   1.15565462638550      1.52180571979064     -1.66478147148591
  O   2.29753986214395      1.57916726524686      0.22347470179738
  N   1.50704376026972     -1.03451529782072      0.56856044477822
  O   1.22293674674183     -1.43791426840491      1.68860277071994
  O   2.42187335702427     -1.39235749734578     -0.16422560489060
  N   -1.43725176581705     -1.13757285511702      0.55277439896227
  O   -2.34628827329788     -0.79419899735373      1.29951175581897
  O   -1.10915567880856     -2.26814566846371      0.21802264368400
  N   -1.50655146534269      1.02484975575983     -0.58748466063913
  O   -2.37525491804388      0.61307029088366     -1.34750601304875
  O   -1.26698403825570      2.17782784162825     -0.25403967728489
