14
Coordinates from ORCA-job run
  C   -0.66021719925656     -0.06693281479538      0.05367292129793
  C   0.65991990255633      0.06756090513177     -0.05285334130693
  N   -1.30498452012356     -1.20502486364588      0.71410749309049
  O   -0.93162594310554     -2.32360893188235      0.38645725112155
  O   -2.16799975859288     -0.89398082193564      1.52666437761042
  N   -1.61676712385361      0.90786217772375     -0.47723753357514
  O   -1.42670484136875      2.08400332188636     -0.19692699568711
  O   -2.51734119902987      0.41712152245038     -1.14800546978299
  N   1.30551410331359      1.21523990169793     -0.69558929204098
  O   2.20508611744759      1.72265658457211     -0.03597615389803
  O   0.89771705639913      1.53445357642469     -1.80455586222691
  N   1.61571017701808     -0.91726082336412      0.46070545198564
  O   2.48087186221558     -1.24679665403512     -0.34222276345462
  O   1.46082136638047     -1.29429308022851      1.61475991686670
