14
Coordinates from ORCA-job run
  C   0.66301545472382     -0.05485211090177      0.02313380729171
  C   -0.66294451697873      0.05511170938616     -0.02229712498674
  N   1.45502834826128     -0.70299667239487     -1.02559682994806
  O   2.26624295386501     -1.52254021691563     -0.61063527304297
  O   1.24101460786675     -0.35668947327378     -2.17977488649990
  N   1.47915434029918      0.45924866654175      1.12593092832056
  O   2.44117133043207      1.13033251512754      0.77067368788362
  O   1.13168899674310      0.16328144023080      2.26151889362814
  N   -1.45830617634239      0.68416018277578      1.03518071983563
  O   -2.42063425986464      0.02095637457301      1.40413734115645
  O   -1.09578073324592      1.78642890455032      1.42436651313251
  N   -1.47583677556425     -0.44107944754156     -1.13593861814542
  O   -2.28634695846786      0.36990434310683     -1.56870894170552
  O   -1.27746661172741     -1.59226621526460     -1.50099021692001
