14
Coordinates from ORCA-job run
  C   0.65764495728839      0.07149555455717      0.07519427182984
  C   -0.65750756826651     -0.07074121780372     -0.07394633417426
  N   1.52047166623312     -0.96182078677130      0.65409230559816
  O   2.53019236027807     -1.20012605793655      0.00175949232888
  O   1.15706661086636     -1.46335337611958      1.70978283313525
  N   1.39031729854047      1.27622600245226     -0.32344802512620
  O   1.19544777666843      1.69749309609321     -1.45588156287980
  O   2.13534740610908      1.72212230529541      0.54132741154474
  N   -1.51744867594758      0.95383562913824     -0.67254021745222
  O   -2.28305047114740      0.53134704853838     -1.53115291997620
  O   -1.39199528312661      2.09825737735198     -0.25717513620467
  N   -1.39326163834992     -1.26752282346339      0.34236374112747
  O   -2.38571496261044     -1.03729287143912      1.02337687707564
  O   -0.95750947653546     -2.34791987989298     -0.03275273682664
