14
Coordinates from ORCA-job run
  C   -0.66380198028506     -0.02150696850823      0.04074472263860
  C   0.66432752652145      0.02014440395475     -0.03970855773874
  N   -1.52152047845847     -0.53045428052231     -1.03283939403226
  O   -2.46302571092341      0.20114107885080     -1.31622743899260
  O   -1.22186893694831     -1.61282038531766     -1.51933988425660
  N   -1.41749989191727      0.43767354443937      1.21034397717721
  O   -2.24745302104703     -0.36496415118343      1.62120912572794
  O   -1.15481750541008      1.55306192141087      1.64002232835075
  N   1.52080872541672      0.54947438635923      1.02504248097624
  O   1.30540373132622      0.15202932202672      2.16241299677374
  O   2.37539457766156      1.33890024140269      0.63974082567090
  N   1.41871097694563     -0.45713320038985     -1.20155069998576
  O   2.33993506065276     -1.21704403165067     -0.92641681595372
  O   1.06640692646529     -0.04950188087225     -2.30043366635571
