14
Coordinates from ORCA-job run
  C   0.66335102347342     -0.05070141629559      0.01807426863504
  C   -0.66310853371664      0.05562314898224     -0.01985422963845
  N   1.44685571069208     -0.72600521305501     -1.02039095762856
  O   1.17528559900808     -0.45971853865460     -2.18381909516545
  O   2.30304493187127     -1.49083563618258     -0.59135567916526
  N   1.48937903877558      0.48900622690404      1.10096044826924
  O   1.19302795488895      0.16455870273470      2.24301904120648
  O   2.40784537944316      1.20625991018375      0.72207736306441
  N   -1.44950873812807      0.70842041157552      1.03063591514118
  O   -2.44490179575997      0.08455047166998      1.37999271540418
  O   -1.04472924753912      1.78951114456899      1.43774658846168
  N   -1.48580139190480     -0.47078815952688     -1.11179447505939
  O   -2.25738349209941      0.34708559865774     -1.59891927608481
  O   -1.33135643900454     -1.64796665156232     -1.40837262744029
