14
Coordinates from ORCA-job run
  C   0.65935429999083      0.06228692969198      0.05837523885529
  C   -0.66045028477443     -0.06374454935958     -0.06163068730492
  N   1.52883487331115     -0.99367597924037      0.58330774095357
  O   1.22435847121478     -1.48061432142743      1.66391747293786
  O   2.48615341597430     -1.25938403242291     -0.13406301189516
  N   1.39187496417182      1.27414411471035     -0.31943797387039
  O   2.19910412825151      1.65838354026899      0.51889219283786
  O   1.13397541852099      1.76296615726981     -1.41147092587990
  N   -1.52689992425707      0.98634616599459     -0.60303598262897
  O   -1.41629008435687      2.10472722511571     -0.11854188904539
  O   -2.28408184361382      0.60715631101908     -1.48880242508815
  N   -1.39407554358020     -1.26761878542725      0.33853382681741
  O   -2.40075086732621     -1.04952684694063      1.00261713675216
  O   -0.94010702352680     -2.34344592925236     -0.02866071344127
