14
Coordinates from ORCA-job run
  C   0.66385069886124     -0.00087270901095      0.04959147222975
  C   -0.66376953520948     -0.00058726985376     -0.04910158551190
  N   1.51244461329816      1.06697302133840     -0.48591818650506
  O   2.45246011420477      0.67156829772184     -1.16547635875746
  O   1.20737716141794      2.21712137315598     -0.19940707070361
  N   1.42570874306076     -1.06841959532759      0.70346792767233
  O   1.16306656670777     -2.21896803276680      0.37929416610838
  O   2.26081278180340     -0.67181978679778      1.50791923095166
  N   -1.51327917623880     -1.07603838871195      0.46991386035572
  O   -1.31253218054952     -1.43766017543065      1.62176429979378
  O   -2.34893896047776     -1.48732892299094     -0.32654487806079
  N   -1.42462230139884      1.07671361753689     -0.68761687878638
  O   -1.05783105599406      1.43425224427053     -1.79920333256358
  O   -2.36374746948558      1.49506632686678     -0.02068266622283
