14
Coordinates from ORCA-job run
  C   0.66345772832600     -0.04964661400534      0.02100827716764
  C   -0.66342606905219      0.05068652746181     -0.01939619151381
  N   1.47889100063403      0.45357184373105      1.12982586769935
  O   1.26787141287156      1.60069885029740      1.50049902857127
  O   2.30030608138205     -0.34954503266942      1.55656740643741
  N   1.45752643982573     -0.67433768628288     -1.04030990323859
  O   2.41014593028995     -0.00306280810214     -1.41936165096730
  O   1.10114562792342     -1.78034286426750     -1.42467993275109
  N   -1.47821424369717     -0.46911246535100     -1.12080743260451
  O   -2.43066737379219     -1.15306994331124     -0.76471261665622
  O   -1.13681338597462     -0.16703788019239     -2.25667170409111
  N   -1.45818696870870      0.69085492269285      1.03235830197938
  O   -2.27980617559177      1.50153646547910      0.62057177593724
  O   -1.23223000443609      0.35080668451969      2.18610877403035
