14
Coordinates from ORCA-job run
  C   -0.66097407556698     -0.04694832937955     -0.05996220502987
  C   0.66151159053536      0.04626430550855      0.06031175308412
  N   -1.42609981722694     -1.23414307414393      0.33011686258380
  O   -1.02673734156594     -2.31485714614350     -0.08270563587335
  O   -2.40316144821559     -0.99637067341979      1.03064628826560
  N   -1.50019330232449      1.02774161867365     -0.59664508653937
  O   -2.29004348204887      0.66627849768606     -1.46116973519034
  O   -1.33701014551973      2.14764693982927     -0.13081703201968
  N   1.42324212967646      1.24191373470864     -0.31047097063113
  O   2.21250352794492      1.62237375787642      0.54640699074229
  O   1.20512630777599      1.72125834990374     -1.41521642682828
  N   1.50411651908550     -1.03535446985526      0.57716239121699
  O   1.15915817250942     -1.55597907485775      1.62968506817111
  O   2.48056136494087     -1.28982443638657     -0.11834226195187
