14
Coordinates from ORCA-job run
  C   0.66225091687972      0.06540954229287      0.00756419474283
  C   -0.66249777265141     -0.06476537787899     -0.00806249984422
  N   1.52302463961390     -0.29392417826503     -1.12238301031036
  O   1.36070062912789     -1.40189897772322     -1.61621787738891
  O   2.32802203819523      0.57434891453493     -1.43849220608130
  N   1.40867756533104      0.58218844988507      1.15787035042512
  O   2.37194579306825     -0.10223057026937      1.48284802747884
  O   1.00834280926588      1.62457092410315      1.65896774731104
  N   -1.52449909651501      0.31326248472432      1.11487132672488
  O   -1.21817234641071     -0.11286061965409      2.22050318505030
  O   -2.47679678336276      1.01902646509884      0.80363895633849
  N   -1.40728691368774     -0.60163856893913     -1.15015314579417
  O   -2.22700606094213     -1.46435440612935     -0.85742421084872
  O   -1.14670541791215     -0.13813408178002     -2.25253083780384
