14
Coordinates from ORCA-job run
  C   -0.65078101541694     -0.10554201828638     -0.08936249293562
  C   0.64956937169759      0.10888979297178      0.10061789742089
  N   -1.53702749725101      0.86266971452147     -0.74310801506423
  O   -1.39066862781188      2.04031692493477     -0.44248310472508
  O   -2.33849813362174      0.36989983930806     -1.52866227744448
  N   -1.34265958222582     -1.32997938858117      0.31980506628128
  O   -0.92242085258133     -2.38555668489297     -0.13402631713689
  O   -2.29360716626707     -1.14095132968829      1.06880738634294
  N   1.33668134929867      1.33818455010804     -0.30215480396695
  O   1.92053034521553      1.90825954600532      0.61170874231901
  O   1.27424802864799      1.64943837139707     -1.48379245766912
  N   1.54251602465489     -0.87045435177389      0.72768862931953
  O   2.64159156575371     -0.97302733877814      0.19501776477465
  O   1.10852618990741     -1.47314762724569      1.70094398248407
