14
Coordinates from ORCA-job run
  C   0.66449226256760      0.02607198389025     -0.03556201633381
  C   -0.66423546968924     -0.02984888267692      0.02797304152720
  N   1.53908175431961     -1.01393830101448      0.51472672724976
  O   1.21212138168225     -2.17670761446382      0.31518607018363
  O   2.52129261437337     -0.58937240558677      1.11236052434792
  N   1.40270639686399      1.13234164906447     -0.64916012036646
  O   1.18438723934114      2.25619133859250     -0.21769896602443
  O   2.18468865065240      0.78601100283385     -1.52669030295678
  N   -1.40333695685400     -1.14128256383880      0.63103975216942
  O   -2.22007030556056     -1.66381009545898     -0.11814704730257
  O   -1.14763065930418     -1.41439157021855      1.79588602576829
  N   -1.53874778709716      1.02449998466674     -0.49459418899344
  O   -2.48675431435400      1.30419362102573      0.23030298050937
  O   -1.24699480694121      1.49904185318478     -1.58462247977810
