14
Coordinates from ORCA-job run
  C   -0.66556409286990      0.01797056334047     -0.00838081653596
  C   0.66498535691429     -0.02506137718915      0.01189236884303
  N   -1.48195768187868      0.44958756971283      1.12846093323137
  O   -2.33715566339668     -0.35965950285224      1.46775872437451
  O   -1.24354496573930      1.55395553348305      1.59842314964099
  N   -1.46391908115725     -0.35705994660693     -1.17935445536920
  O   -2.38541245039444      0.41045523953145     -1.43225484562103
  O   -1.14070377519845     -1.38059173681994     -1.76787230246902
  N   1.47880182797202     -0.46950442583631     -1.12200937842306
  O   2.27282328444442     -1.36213546948568     -0.84936485890629
  O   1.30385786563407      0.09911904310350     -2.19120950385788
  N   1.46522838468780      0.37621940909452      1.17256167840684
  O   1.08589824915422     -0.01179078579974      2.26987823607688
  O   2.44666274182790      1.05849588632415      0.90147107060882
