14
Coordinates from ORCA-job run
  C   -0.66752261635272     -0.03222536612612      0.01369979830893
  C   0.66738014765841      0.03223463911739     -0.01368781354764
  N   -1.54520813107382      1.01555524674087     -0.54424060987367
  O   -0.99262044996473      1.98210204636888     -1.05139461761967
  O   -2.74784868275010      0.80461755258213     -0.43939675836531
  N   -1.43429794537613     -1.13760795778089      0.59392693125190
  O   -1.72822046291597     -2.03470903751279     -0.18296212177448
  O   -1.73781118443744     -1.00292272999055      1.77055146601918
  N   1.54506176781817     -1.01559124457866      0.54417271643760
  O   0.99246761036965     -1.98204326602879      1.05150127649262
  O   2.74770373802328     -0.80478329618000      0.43909177176911
  N   1.43415934016622      1.13764619902146     -0.59385426591513
  O   1.72824171148895      2.03460881900435      0.18313179426286
  O   1.73751515734623      1.00311839536270     -1.77053956744629
