14
Coordinates from ORCA-job run
  C   0.66452612298285      0.03564718726400     -0.01562564215939
  C   -0.66445677180664     -0.03487706572119      0.01502829572357
  N   1.46935486563490      0.57773516549331      1.08243125932499
  O   2.41293110977640     -0.13063115811894      1.41379969713078
  O   1.12992449912902      1.66110055040473      1.53965456167015
  N   1.47179767414746     -0.42148681715907     -1.14976131772700
  O   1.24530656843080     -1.54541959220961     -1.57788311692257
  O   2.30337535298506      0.39147759339228     -1.53632576139768
  N   -1.46840653140142     -0.59649892721068     -1.07378624652986
  O   -1.22321862365480     -0.20415982206200     -2.20687431454053
  O   -2.31555660747986     -1.40417352837223     -0.71053149575211
  N   -1.47277681621210      0.44042522051848      1.14097477592914
  O   -2.40159979561447      1.17286870280596      0.82069964017065
  O   -1.15120104691721      0.05799249097496      2.25819966507985
