14
Coordinates from ORCA-job run
  C   -0.66013559556073     -0.06137649774536     -0.05976950291994
  C   0.66001696795076      0.06121258921140      0.05985565005311
  N   -1.39847258707427     -1.26423358575929      0.33391963397198
  O   -2.37896314802567     -1.04683807062462      1.03625383022539
  O   -0.97575140499255     -2.33672615008679     -0.07726015405138
  N   -1.52333523853303      0.99295650902408     -0.59877689474938
  O   -1.38341384111572      2.11772675770685     -0.13700167379490
  O   -2.30671122266715      0.61168511224455     -1.46065326020195
  N   1.39567919086746      1.27189537778810     -0.31470052607879
  O   1.16630665724943      1.74328982721365     -1.42063776170513
  O   2.17760694088210      1.67144540362007      0.54018185194056
  N   1.52584619560285     -1.00052772951411      0.57952421786090
  O   1.19254303964447     -1.52478248302680      1.63407437586287
  O   2.50778404577203     -1.23572706005174     -0.11500978641334
