14
Coordinates from ORCA-job run
  C   0.66441307788189      0.02730904871047     -0.02838641192917
  C   -0.66541222505882     -0.03488618383627      0.01309850652976
  N   1.41217045880217      1.14343009523795     -0.61146467820652
  O   2.12872407287987      0.82691112225133     -1.55310775074805
  O   1.26751774087672      2.24124806039423     -0.09173294104659
  N   1.53373036317064     -1.01727497688436      0.52416724901577
  O   2.55606270496801     -0.60367781955727      1.05908779998000
  O   1.15678236805942     -2.17523510989025      0.39753459975097
  N   -1.41252019356245     -1.15316553785381      0.59273509106103
  O   -1.25340945661900     -1.36874529227971      1.78627743804098
  O   -2.14104867386437     -1.73329312946122     -0.20290497891395
  N   -1.53483329249496      1.02600480547871     -0.50777403393928
  O   -2.54955161542793      1.22653818459272      0.14977627030188
  O   -1.16462532961116      1.59383673309747     -1.52730615989681
