14
Coordinates from ORCA-job run
  C   0.66545878558505      0.01675763926397     -0.01659196431505
  C   -0.66495720061545     -0.01756520796455      0.01533143157172
  N   1.43169722462531      1.12534734509603     -0.59174635783085
  O   1.14178333086922      2.25486512353692     -0.22041752405879
  O   2.29728666481873      0.77971567868227     -1.38740350079688
  N   1.51326928356151     -1.05054552143032      0.52147957453211
  O   1.23719907453226     -2.19795009623497      0.19702259081274
  O   2.42258365305169     -0.65758902999515      1.24306168046039
  N   -1.43133012455264     -1.13475553385567      0.57318337403205
  O   -2.31627940318293     -1.55554419210056     -0.16277238791364
  O   -1.12560689598004     -1.51484397867430      1.69561722376553
  N   -1.51231193062916      1.05980393969564     -0.50300846359158
  O   -2.40635752102264      1.40974741531542      0.25869977234405
  O   -1.25243494106091      1.48355641866529     -1.62145544901183
