14
Coordinates from ORCA-job run
  C   0.66080158677455     -0.08278241393756      0.00830240063518
  C   -0.65962239037403      0.08611807627510     -0.00938103659399
  N   1.39177947973993     -0.82525578106246     -1.02252708293186
  O   2.21474756798766     -1.62117806034541     -0.58521170948338
  O   1.11616597464486     -0.57573170558287     -2.18870782768721
  N   1.53097586959569      0.44990444930303      1.05959147718838
  O   2.48068041503573      1.10267610009944      0.64289366675620
  O   1.23456088934306      0.18380873271765      2.21667850732635
  N   -1.39356281509593      0.80756745380196      1.03382884061520
  O   -0.93962059035960      1.88768057375223      1.38818037327332
  O   -2.40494183394137      0.23775501349433      1.42707789303506
  N   -1.52781853516051     -0.43264272172790     -1.06946460130370
  O   -2.27571333099048      0.40445744761603     -1.56092888338276
  O   -1.42943228719958     -1.62237716440358     -1.33833201744679
