14
Coordinates from ORCA-job run
  C   -0.66378601338125      0.01485807526601      0.05074763114197
  C   0.66248808398497     -0.02186412452531     -0.06693141840295
  N   -1.48674513560323      1.16162731497198     -0.33985113923345
  O   -2.29865350219290      0.91628566039084     -1.22348963837951
  O   -1.29971449302783      2.21008653313397      0.26175400398414
  N   -1.45093389524348     -1.09217749702224      0.60512692189436
  O   -2.41607273992257     -0.74917413012486      1.27824594253404
  O   -1.07031288145353     -2.22616312787719      0.34398536561318
  N   1.45255864414938      1.09925559899281     -0.58757076234527
  O   0.95451411493012      1.75302104096295     -1.49503475662570
  O   2.53950648684832      1.25731638772190     -0.04337392247722
  N   1.48471678024380     -1.17003758066778      0.31996808953795
  O   1.47627124577024     -1.48584925579040      1.50176426325315
  O   2.11616330489796     -1.66718489543268     -0.60434058049469
