14
Coordinates from ORCA-job run
  C   -0.66380512749987     -0.00652891805223     -0.05667823447295
  C   0.66260562338049     -0.00786165007640      0.06370696089777
  N   -1.37593285745067     -0.50308605322149     -1.23615785984375
  O   -2.14041568428021     -1.43163044879335     -1.00410790351531
  O   -1.15750181610492      0.06445827823523     -2.29754736004363
  N   -1.56326967043920      0.50976593158874      0.98083600011728
  O   -1.24522282252638      0.29862550053680      2.14410174438480
  O   -2.54701848278398      1.10504439494464      0.55637143478865
  N   1.56286738908007     -0.49254051990063     -0.98831564876873
  O   1.19787768197641     -1.47600602223672     -1.61957875803650
  O   2.59553667143264      0.15499260452711     -1.11720189588652
  N   1.37598478100809      0.48375730392674      1.24450125074731
  O   1.23163382466762      1.66439214880981      1.53005770059726
  O   2.06666048953994     -0.36238255028828      1.79901256903432
