14
Coordinates from ORCA-job run
  C   -0.66524370242701     -0.01259565326716      0.00521583201419
  C   0.66574150280440      0.01083128078300     -0.00733001824464
  N   -1.44962404678081     -1.08771120375956      0.61805389024355
  O   -2.31921020547618     -1.55336224041029     -0.10911117772507
  O   -1.17196987722716     -1.39322717754775      1.77009969443442
  N   -1.49561658863413      1.03723053414491     -0.59157404842859
  O   -2.40517758054448      1.43233915803998      0.12854145434705
  O   -1.20836331900860      1.39694771542202     -1.72565578159975
  N   1.44956871026903      1.07704517539421     -0.63618603700069
  O   1.17040250753942      2.22860717791251     -0.33015802008437
  O   2.31809333365532      0.67773058503471     -1.40297367764088
  N   1.49642251606125     -1.02717671122693      0.60913322969369
  O   1.20974532861942     -2.19067589863163      0.35979056299617
  O   2.40423142114954     -0.59698274188802      1.31115409699492
