14
Coordinates from ORCA-job run
  C   -0.66496196756996     -0.03257411030020      0.02454647254812
  C   0.66422650923237      0.02461584562739     -0.04076330562644
  N   -1.40728905262983     -1.17038487619560      0.57139182837574
  O   -1.22366786165109     -1.43931849582589      1.75049134914990
  O   -2.15922320453320     -1.70882170955551     -0.23180110283339
  N   -1.53764689493724      1.05386704353755     -0.43379556725520
  O   -2.53606074330222      1.23419639619554      0.25399014370198
  O   -1.18576159448321      1.66044365112162     -1.43738232772596
  N   1.40656744582194      1.16124830329992     -0.59008996025326
  O   2.10563785623702      0.88130477407582     -1.55620443128464
  O   1.27499898862234      2.23740900751782     -0.02370536281426
  N   1.53828832548741     -1.04699074944050      0.44930363044684
  O   2.57158165851047     -0.66137195802139      0.98404565133760
  O   1.15331053519519     -2.19662312203656      0.27897298223296
