14
Coordinates from ORCA-job run
  C   0.66502320358948      0.03441279292444     -0.01831131401193
  C   -0.66448327482765     -0.04350839679912      0.00313352145203
  N   1.39342056651153      1.13333816112992     -0.66158216690946
  O   2.40594364773002      1.49205073137281     -0.07121313489983
  O   0.92379838323135      1.57392642951560     -1.70286792816758
  N   1.55077000571864     -0.95083350074334      0.60571842763016
  O   1.46431875511170     -1.08726399971921      1.81824889840984
  O   2.30634660611939     -1.51106680728961     -0.17894535478410
  N   -1.39395921793746     -1.12396972516167      0.67613703880656
  O   -2.42883136225235     -0.77478943034678      1.23240856603577
  O   -0.90323516774482     -2.24402218775790      0.61635316464843
  N   -1.55021855090022      0.94030718288465     -0.62325890277958
  O   -2.27155797310827      0.47724556564500     -1.49830299235317
  O   -1.49733562124136      2.08617318434521     -0.19851782307714
