14
Coordinates from ORCA-job run
  C   0.66362748497977      0.04973670493461     -0.00079692384120
  C   -0.66387674106171     -0.04930905166939      0.00197193090011
  N   1.39014950175013      1.15397213301263     -0.63317283944609
  O   1.09189918227673      1.42826087108291     -1.78798753231484
  O   2.23613438674142      1.67609944000578      0.08341212004516
  N   1.54785541905881     -0.93530334588305      0.62785708912009
  O   2.47318308900589     -1.30904077594043     -0.08349340041945
  O   1.28301551283117     -1.26953756519214      1.77505669680674
  N   -1.39099292293784     -1.14316067786779      0.65136074195526
  O   -1.02991752346759     -2.28345714628442      0.39218031803830
  O   -2.30132950680133     -0.77695343513922      1.38554680803358
  N   -1.54706458169702      0.92458267684222     -0.64532878658702
  O   -2.41107751475114      0.42678807153210     -1.35775597794205
  O   -1.34160578592728      2.10732210056619     -0.40685024434859
