14
Coordinates from ORCA-job run
  C   -0.66564823875855     -0.00915607311242      0.01825292263073
  C   0.66523759464535      0.00509742757515     -0.01329376822249
  N   -1.49064749618138     -0.72645555292183     -0.95695543541749
  O   -2.30831608280612     -1.49022150725486     -0.45734003709135
  O   -1.29370911834277     -0.48328749159111     -2.13994015303764
  N   -1.45533208365518      0.69654235342570      1.03149769361670
  O   -2.41146807296218      1.32017566681797      0.58536874113430
  O   -1.09052639745207      0.58903403218975      2.19499787538883
  N   1.45265568205701     -0.68049205948616     -1.04224526846369
  O   1.12404136262452     -1.82577063791992     -1.32280529551103
  O   2.36939448786742     -0.01319003814807     -1.50736351381056
  N   1.49274553362150      0.70967910354747      0.96898025333499
  O   1.25592525450987      1.89672810690667      1.14841510821904
  O   2.35364757483257      0.01231666997165      1.49243087722963
