14
Coordinates from ORCA-job run
  C   0.66504656190190     -0.03379856170918     -0.00755692299446
  C   -0.66492653584029      0.02539219386186      0.00992118868095
  N   1.50290116510928      0.38575184130248      1.11983613585070
  O   1.14961505373721      0.03155274160604      2.23704995459931
  O   2.48132404166596      1.05310763433637      0.80429573639131
  N   1.44104492177138     -0.51491583558825     -1.15276547894418
  O   2.22650970514380     -1.41586681076038     -0.88292609107677
  O   1.24197913906959      0.03023798121339     -2.22997059631150
  N   -1.50319284267851     -0.36662679383168     -1.12687588097406
  O   -1.20401687934602     -1.40229067801472     -1.70692633561910
  O   -2.42686327943372      0.40274753559716     -1.36588886007319
  N   -1.44067155461290      0.49450525325362      1.16058998856040
  O   -1.17812130403402      1.60840316057125      1.59357447927646
  O   -2.29062819245367     -0.29819966183796      1.54864268263410
