14
Coordinates from ORCA-job run
  C   -0.65744827663411     -0.09230276643606     -0.05033825065521
  C   0.65812890107929      0.09034002755196      0.04202312039367
  N   -1.58861916333379      0.93614870579085     -0.51976517574520
  O   -2.30477608506514      0.57801893855416     -1.44731271984842
  O   -1.56744323571840      2.01387301720592      0.05924522482493
  N   -1.32236169310251     -1.34604358331895      0.31716955645893
  O   -2.35120265767069     -1.20313921741250      0.96778883121101
  O   -0.79563902831605     -2.38537425167372     -0.05805334326058
  N   1.59014386143949     -0.94316712222034      0.49930064696187
  O   1.37339578763268     -1.44485175221592      1.59406522967431
  O   2.50568151664368     -1.17336066158782     -0.28184862576549
  N   1.32143094487365      1.35259502773133     -0.29771950052189
  O   0.95909130341798      1.91198706779541     -1.32453816178826
  O   2.18161782475391      1.70527657023567      0.50098316806033
