14
Coordinates from ORCA-job run
  C   -0.66491270736198     -0.02972446484264      0.01724595995170
  C   0.66467578020562      0.02556781016091     -0.02482346409114
  N   -1.53095466366091      1.02559626303573     -0.51685942625856
  O   -2.47723173898825      1.31980560535253      0.20439890393933
  O   -1.22911071105096      1.49328407769475     -1.60713123497672
  N   -1.41251213016819     -1.14308840992595      0.60649686023003
  O   -1.15806013354321     -1.43287121337480      1.76770675880440
  O   -2.23390823430576     -1.65023291859013     -0.14813914058128
  N   1.41217914509966      1.13299204564870     -0.62528471685445
  O   2.21799007093963      0.78774018436878     -1.48134027864048
  O   1.17303017192901      2.25808608002021     -0.20803481208393
  N   1.53097321141253     -1.01647252059753      0.53435440302993
  O   1.21656186202872     -2.17855532161628      0.31245099300127
  O   2.49028007746410     -0.59312721733428      1.16895919452988
