15

C	0.0	0.0	0.0
C	-0.533994	0.149737	-1.432481
Cl	1.778887	0.0	0.0
H	-1.609329	0.333453	-1.247376
H	-0.275364	0.911284	0.53714
N	-0.567313	-1.202959	0.535194
H	-0.334739	-1.244113	1.52265
H	-1.594421	-0.951904	0.457152
N	-0.339779	-0.968092	-2.303823
H	-0.92145	-1.705662	-1.923817
H	0.622916	-1.283205	-2.240075
N	0.070007	1.381174	-2.026423
O	0.815477	1.276533	-2.998539
O	-0.196922	2.444978	-1.464978
F	-2.819639	0.0	0.0
