15

C	0.0	0.0	0.0
C	-0.631941	0.008417	-1.43846
Cl	1.7808	0.0	0.0
H	-1.390883	0.782413	-1.404844
H	-0.239359	0.976389	0.43113
N	-0.546162	-1.105182	0.72821
H	-1.568858	-0.882477	0.657908
H	-0.263059	-1.009601	1.698416
N	-1.263452	-1.190758	-1.873408
H	-0.752731	-1.986905	-1.510332
H	-2.14864	-1.125564	-1.358572
N	0.397691	0.475924	-2.427441
O	0.593085	1.692721	-2.473619
O	1.003424	-0.354641	-3.095874
F	-2.839932	0.0	0.0
