15

C	0.0	0.0	0.0
C	-0.371481	0.416622	-1.456962
Cl	1.82541	0.0	0.0
H	0.516834	0.806562	-1.956069
H	-0.249702	0.86459	0.62067
N	-0.611567	-1.225362	0.380562
H	-0.44186	-1.372306	1.370035
H	-1.632269	-0.984873	0.271463
N	-1.435794	1.33212	-1.502494
H	-1.690976	1.515845	-2.464356
H	-2.23935	0.90906	-0.963104
N	-0.586187	-0.891023	-2.271712
O	0.423331	-1.55337	-2.507344
O	-1.714606	-1.152365	-2.679445
F	-2.955267	0.0	0.0
