15

C	0.0	0.0	0.0
C	-0.539933	0.073865	-1.422621
Cl	1.778478	0.0	0.0
H	-1.624346	0.241317	-1.239969
H	-0.283616	0.926603	0.49847
N	-0.561544	-1.186646	0.590135
H	-1.588402	-0.950752	0.506883
H	-0.316866	-1.194697	1.574975
N	-0.197785	-1.101051	-2.174782
H	-0.16565	-1.852921	-1.492232
H	-0.942452	-1.305046	-2.827312
N	-0.040682	1.30556	-2.124406
O	0.141127	1.246311	-3.338321
O	0.053661	2.337717	-1.458528
F	-2.829208	0.0	0.0
