15

C	0.0	0.0	0.0
C	-0.502351	0.081489	-1.446419
Cl	1.833264	0.0	0.0
H	-1.582817	0.267408	-1.293253
H	-0.252022	0.940142	0.494058
N	-0.556499	-1.173783	0.591087
H	-1.586039	-0.919633	0.506657
H	-0.31043	-1.169664	1.575667
N	-0.286067	-1.076883	-2.260798
H	-0.836269	-1.807168	-1.823962
H	0.689527	-1.354273	-2.193954
N	0.103758	1.288279	-2.081716
O	0.834883	1.150579	-3.059714
O	-0.151369	2.370381	-1.551454
F	-2.79106	0.0	0.0
