15

C	0.0	0.0	0.0
C	-0.381166	-0.127992	-1.510599
Cl	1.775719	0.0	0.0
H	0.494831	0.098147	-2.120258
H	-0.275436	1.02413	0.27076
N	-0.622646	-1.017248	0.784214
H	-1.640177	-0.828383	0.606864
H	-0.445356	-0.814721	1.762625
N	-1.477728	0.669462	-1.866951
H	-2.278806	0.452617	-1.206717
H	-1.723945	0.50653	-2.835157
N	-0.541224	-1.646416	-1.810988
O	0.500218	-2.296931	-1.89652
O	-1.667683	-2.09374	-1.994562
F	-3.006163	0.0	0.0
