15

C	0.0	0.0	0.0
C	-0.532466	0.363981	-1.377819
Cl	1.802766	0.0	0.0
H	-1.618458	0.486708	-1.168768
H	-0.2716	0.807524	0.679002
N	-0.558126	-1.280625	0.335545
H	-0.318364	-1.486761	1.299697
H	-1.586137	-1.032885	0.297009
N	-0.182288	-0.628836	-2.35516
H	-0.153536	-1.506436	-1.844097
H	-0.920211	-0.692301	-3.043745
N	-0.037891	1.716564	-1.80824
O	0.055958	2.587778	-0.942367
O	0.141586	1.910767	-3.009176
F	-2.823114	0.0	0.0
