15

C	0.0	0.0	0.0
C	-0.235758	-0.22614	-1.535635
Cl	1.830648	0.0	0.0
H	0.346716	0.528305	-2.071275
H	-0.303889	1.028863	0.196813
N	-0.623408	-0.853982	0.93415
H	-0.516426	-1.808979	0.616019
H	-1.630922	-0.599817	0.844977
N	-1.564974	-0.336147	-1.98066
H	-2.280396	-0.239218	-1.193036
H	-1.741373	0.318649	-2.72537
N	0.490194	-1.518641	-1.971275
O	0.288014	-2.548585	-1.330538
O	1.158936	-1.465848	-3.003255
F	-3.048715	0.0	0.0
