14
Coordinates from ORCA-job run
  C   0.80029893582287     -0.96434608395078     -0.04812573844605
  C   -0.39470023648359     -0.11615173986317     -0.47760309195082
  Br  2.03298397458763     -1.23740453929087     -1.53355142680105
  H   -0.90273047637328     -0.62745963153159     -1.29638962961831
  H   0.41939585959047     -1.96006630869162      0.19481292347340
  C   1.51476693963844     -0.45544373107516      1.11502613917598
  N   2.06495199307433     -0.10800302508381      2.09327434313453
  N   0.06582725137344      1.18441563452936     -1.06623774579815
  O   0.82886885344565      1.86025909793446     -0.38274476324255
  O   -0.38530473549022      1.48385785416670     -2.16824712747592
  C   -1.33311280866247      0.18162960726535      0.67981650699491
  H   -2.19455987247200      0.74836687875629      0.32096747227162
  H   -0.82049554327633      0.76096794709759      1.44889120758568
  H   -1.69519013477495     -0.75062196026272      1.11911093069674
