14
Coordinates from ORCA-job run
  C   0.81315088460722     -0.67449261593787      0.55437734364024
  C   -0.18159957188723     -0.01758537133857     -0.40547977327609
  Br  0.65744461247451     -2.61586667057957      0.44604409731380
  H   0.04874600272471     -0.29856942351730     -1.43422972470771
  H   0.58116258041364     -0.39798511002809      1.58320582635935
  C   2.18331534933277     -0.29130460393012      0.24053265228458
  N   3.27827638306908      0.03325149837012     -0.03540504765992
  N   0.04716686862696      1.46914421708619     -0.33728265314942
  O   0.21238566832621      1.94986945413867      0.78231296059961
  O   -0.00102129867267      2.08830042431286     -1.39453948239782
  C   -1.63885226826154     -0.26812703048225     -0.05977763411309
  H   -1.84025543293639      0.03481116647647      0.96989676631132
  H   -2.27584238120392      0.31146138668901     -0.73065535257976
  H   -1.88307739661335     -1.32290732125956     -0.17799997862509
