14
Coordinates from ORCA-job run
  C   0.80539895303081     -0.64782482126110      0.59343702654050
  C   -0.18925231410135     -0.04551957813040     -0.40212515931976
  Br  0.61486918853249     -2.58835256473338      0.63350002776924
  H   0.02297564206717     -0.40768499907479     -1.40902849338487
  H   0.59049685942461     -0.29037949544905      1.60104114553510
  C   2.17785489774282     -0.31307422281072      0.23656974350324
  N   3.27378041729280     -0.02670867358098     -0.07584773704566
  N   0.07354905219942      1.43638385633388     -0.44749565657152
  O   0.08322748622370      1.96856597416462     -1.55204091552175
  O   0.21208023388062      2.00155086126613      0.63573913652079
  C   -1.64584671754656     -0.23876071898952     -0.02037536439432
  H   -1.82737743880898      0.15115812366346      0.98321653588142
  H   -2.28145105656513      0.29639743367174     -0.72854631536285
  H   -1.91130520337242     -1.29475117506988     -0.04904397414957
