14
Coordinates from ORCA-job run
  C   1.16568957584024     -0.21522272950450      0.28172306139373
  C   -0.16580562938732     -0.06196023810663     -0.46138822815760
  Br  1.44694573227228      1.22159072413579      1.56922344386117
  H   -0.18484883656484     -0.84777132958909     -1.22499609426449
  H   1.98534165797031     -0.13380914015412     -0.43349820067241
  C   1.21625947257940     -1.50262190250028      0.95751870567163
  N   1.22772519100656     -2.55725817184951      1.47543714124175
  N   -0.07326024956714      1.21799515812348     -1.26146955520781
  O   0.89648489149750      1.30794647325322     -2.01015036916847
  O   -0.95522704718835      2.05729513693954     -1.12086436568319
  C   -1.40551698202224     -0.10759232520821      0.39942772269902
  H   -2.29645919500176     -0.02693601540266     -0.22252441122683
  H   -1.43845242822130     -1.05998258531989      0.93269151300361
  H   -1.41587615321334      0.70832694518286      1.11986963650988
