14
Coordinates from ORCA-job run
  C   0.84793777067246     -0.91424108397859      0.13405097758070
  C   -0.30479042325758     -0.16234472399659     -0.52762587368628
  Br  2.31950328570986     -1.17782148871556     -1.11768887496508
  H   -0.64520269628641     -0.74137555861150     -1.38712442702761
  H   0.48670916026825     -1.91949656891962      0.36750484285770
  C   1.33480522132664     -0.30877390928251      1.36644051769986
  N   1.69843134363948      0.11619368119823      2.39959452763790
  N   0.17507920234628      1.13577678763832     -1.10581539805901
  O   0.77850128060512      1.88811999120203     -0.34688080408199
  O   -0.10495489205536      1.35596907703267     -2.28079826325536
  C   -1.43396882961675      0.12985129551739      0.44652835981108
  H   -1.81222964927023     -0.80154200944033      0.87372262041888
  H   -1.08547149820418      0.77499666904161      1.25407806723809
  H   -2.25434927587757      0.62468784131444     -0.07698627216887
