14
Coordinates from ORCA-job run
  C   0.85688449326823     -0.68122437516160      0.47128019097613
  C   -0.24043683039104     -0.03092507719545     -0.37539062870931
  Br  0.62351877379047     -2.61739949818776      0.49158944775339
  H   -0.16779197362156     -0.37276287895054     -1.40882074969001
  H   0.78073135612457     -0.34492533204161      1.50581102188180
  C   2.18048711355468     -0.36827979267848     -0.05077986242788
  N   3.23413621607753     -0.09722312564130     -0.49458005854001
  N   0.05439115218992      1.44498840332564     -0.42100451752708
  O   0.34280532048081      1.97905935206211      0.64838062775146
  O   -0.05750373156847      2.00432765309612     -1.50635665977674
  C   -1.64093549654584     -0.20005920751813      0.18542740282677
  H   -1.68300083806756      0.16882700508828      1.21221806522443
  H   -1.93452721274166     -1.24882632057865      0.16816888170166
  H   -2.34775834255007      0.36642319438136     -0.42394316144461
