14
Coordinates from ORCA-job run
  C   1.13809928558561     -0.39631625401668      0.17308555434231
  C   -0.17625251376311      0.07822994074179     -0.45565957689737
  Br  1.58068597955434      0.61706825079351      1.77912928738230
  H   -0.28502377673487     -0.47273269670225     -1.39672004515094
  H   1.95533762818864     -0.21188219494553     -0.52562427462855
  C   1.06055737765449     -1.81431492803762      0.48911364878279
  N   0.96929291104321     -2.96380206687485      0.71507540783716
  N   0.04378836395566      1.50790505883124     -0.89713683905123
  O   1.01078090399583      1.69399897420112     -1.63157724639315
  O   -0.74384348983047      2.36409694480171     -0.51185371095211
  C   -1.40606429932277     -0.06904903299771      0.40798280561507
  H   -1.53375454332104     -1.11993251768360      0.67622540360216
  H   -2.28921713649006      0.25969301577261     -0.13886722878113
  H   -1.32438669051546      0.52603750611625      1.31582681429268
