14
Coordinates from ORCA-job run
  C   0.86890457692452     -0.72594142248454      0.37126313923490
  C   -0.25512866963466      0.00534853910024     -0.36687132943124
  Br  0.61652198191107     -2.65434223193171      0.22626074790370
  H   -0.22717489643859     -0.24006991281335     -1.42950060436162
  H   0.83872116906358     -0.48384431161070      1.43403453647411
  C   2.17413048257866     -0.37644550644102     -0.17376871569269
  N   3.21310324606427     -0.07530661805231     -0.63246076716167
  N   0.04995916376154      1.47764368134735     -0.28888908056679
  O   0.38787392036373      1.90946818735440      0.81175884320835
  O   -0.10631074438266      2.13581479943361     -1.31152292422339
  C   -1.63359924645346     -0.20738350719755      0.23270219395975
  H   -1.93998175786367     -1.24694713370188      0.12460873975959
  H   -1.63008772248434      0.05915292980454      1.29151894690448
  H   -2.35793150341000      0.42185250719290     -0.28813372600749
