14
Coordinates from ORCA-job run
  C   0.77192082932162     -0.69152454469770      0.58820086861129
  C   -0.16729004975929     -0.01605478272301     -0.41437961026130
  Br  0.57967344599307     -2.62897917456834      0.47965383675625
  H   0.09815677574137     -0.30806369808955     -1.43143275414892
  H   0.50212383978671     -0.40543869284238      1.60529389888050
  C   2.16183351920340     -0.33739692084404      0.33204160182801
  N   3.27353316725580     -0.03360306569423      0.10314754432833
  N   0.09868885807373      1.46385786457541     -0.34139363477478
  O   0.16949824394983      2.07224728619937     -1.40365310678604
  O   0.17705669323636      1.95140618940459      0.78473150147185
  C   -1.64221247491046     -0.23037207785221     -0.12539486879801
  H   -1.87687223850831      0.08306531523924      0.89387743125134
  H   -2.23910933783025      0.35981954084061     -0.82346156410807
  H   -1.90600127155358     -1.27996323894777     -0.24823114425046
