14
Coordinates from ORCA-job run
  C   0.87354799138502     -0.89416459623942      0.10407713081911
  C   -0.30524283809306     -0.15772400630545     -0.52837079632029
  Br  2.33899061703936     -1.08813500922644     -1.16711579224100
  H   -0.63842991485299     -0.72459493383648     -1.39872602775237
  H   0.54144457720594     -1.91394610190669      0.31677843795669
  C   1.35632132918893     -0.30524355664689      1.34613456278646
  N   1.71871395907300      0.10459662097329      2.38578293853204
  N   0.13409875867849      1.16647049330445     -1.07910202923916
  O   0.72423398602183      1.91643422861235     -0.30750838364536
  O   -0.16317671327574      1.40738413479711     -2.24576241364798
  C   -1.43241224986080      0.08039539922878      0.46265215010666
  H   -1.78225608750972     -0.87122029592057      0.86906303262081
  H   -1.09343684950721      0.71432049305388      1.28308863885041
  H   -2.27039656549305      0.56642713011206     -0.04099144882601
