14
Coordinates from ORCA-job run
  C   1.11572417050927     -0.47729796944269      0.10149313041866
  C   -0.24238713949395     -0.00855215555627     -0.43205917359133
  Br  1.89792805629375      0.81995083982735      1.32968681033872
  H   -0.54912851443511     -0.74393324686547     -1.18444651878691
  H   1.81819839474582     -0.55591834264099     -0.72936560102153
  C   0.97714986066201     -1.76403150623495      0.76549945231136
  N   0.83120085537799     -2.80976746246859      1.28128212885157
  N   0.01567881033570      1.24559736044891     -1.23701937849302
  O   0.85943350360208      1.14342866937768     -2.12387949281725
  O   -0.62685444311945      2.25347499435357     -0.96638940830797
  C   -1.31977053771339      0.19192708004559      0.60669109276957
  H   -1.04245724755906      0.96830224819966      1.31741570114362
  H   -1.48220895574105     -0.74580963246575      1.14228484801879
  H   -2.25350681346460      0.48362912342195      0.12680640916572
