14
Coordinates from ORCA-job run
  C   0.84875828013221     -0.91029242178823      0.15823837304848
  C   -0.29747706051822     -0.17117637494681     -0.52900854768125
  Br  2.33786058592503     -1.18687555470655     -1.06915598138853
  H   -0.62606803851397     -0.76422909109614     -1.38357160208425
  H   0.48740700948348     -1.91324500573279      0.40137711580896
  C   1.31654934555917     -0.28590585615282      1.38863248910546
  N   1.66179896087357      0.15489619515708      2.42151643280131
  N   0.18752261467005      1.11873078489363     -1.12108577418419
  O   0.77476645675462      1.88618785570168     -0.36468350649052
  O   -0.07404400684030      1.31822980086762     -2.30399022873277
  C   -1.43927347016660      0.13400642093491      0.42614103134628
  H   -1.10124779461983      0.78818045617947      1.23077013685188
  H   -2.25119005542034      0.62420304319497     -0.11451231355906
  H   -1.82536282731885     -0.79171025250601      0.85833237515822
