15

C	-0.411945	0.104253	-1.467404
C	0.0	0.0	0.0
Cl	-0.168723	-1.500683	-2.314987
H	1.102486	0.0	0.0
H	-1.484587	0.290191	-1.554841
N	0.338571	1.164302	-2.055949
H	0.170771	1.231805	-3.05143
H	1.330859	0.998111	-1.893697
N	-0.526501	-1.17137	0.666552
H	0.211967	-1.615263	1.194931
H	-1.256102	-0.865835	1.297989
N	-0.515139	1.219964	0.652356
H	-0.292998	1.999774	0.040453
H	0.048887	1.35433	1.486866
Cl	3.494102	0.0	0.0
