15

C	-0.350148	-0.025975	-1.478807
C	0.0	0.0	0.0
Cl	-2.161652	-0.006155	-1.692895
H	1.104964	0.0	0.0
H	-0.002921	0.890588	-1.958804
N	0.208618	-1.158542	-2.162008
H	0.102474	-1.937878	-1.513367
H	1.208529	-0.981242	-2.227691
N	-0.427394	-1.241143	0.622699
H	-1.362255	-1.10027	0.991344
H	0.199322	-1.461835	1.386743
N	-0.553737	1.172602	0.686522
H	-0.535706	1.971472	0.061224
H	0.082465	1.400046	1.442795
Cl	3.465182	0.0	0.0
