15

C	-0.400577	0.261542	-1.45586
C	0.0	0.0	0.0
Cl	-0.481952	-1.366399	-2.443001
H	1.099532	0.0	0.0
H	-1.431575	0.605764	-1.530176
N	0.50663	1.169274	-2.009026
H	1.469792	0.899876	-1.829023
H	0.348574	1.359884	-2.986581
N	-0.590416	-1.213598	0.560125
H	-0.078355	-1.402139	1.417859
H	-0.396398	-1.992051	-0.059873
N	-0.459173	1.154838	0.767762
H	0.312248	1.523187	1.306346
H	-1.194108	0.842114	1.391522
Cl	3.49314	0.0	0.0
