15

C	-0.564937	-0.03667	-1.419704
C	0.0	0.0	0.0
Cl	0.507048	0.976773	-2.503472
H	1.096019	0.0	0.0
H	-0.484108	-1.038999	-1.844112
N	-1.920516	0.401051	-1.441647
H	-2.255925	0.453112	-2.394631
H	-1.925885	1.33505	-1.046712
N	-0.50716	-1.181285	0.728609
H	-0.254978	-2.01075	0.197437
H	0.050869	-1.236289	1.577395
N	-0.453466	1.213627	0.661799
H	0.288049	1.577235	1.242595
H	-1.248999	0.97414	1.240539
Cl	3.534767	0.0	0.0
