15

C	-0.532664	-0.00054	-1.431397
C	0.0	0.0	0.0
Cl	0.082459	1.503785	-2.307793
H	1.097696	0.0	0.0
H	-0.094824	-0.822538	-1.997012
N	-1.953162	-0.077592	-1.414004
H	-2.344975	0.025765	-2.339595
H	-2.284296	0.664983	-0.806387
N	-0.415086	-1.211929	0.694088
H	0.303919	-1.91405	0.577046
H	-1.287214	-1.548121	0.304629
N	-0.594129	1.147761	0.699625
H	-0.491725	0.937635	1.685099
H	-0.023465	1.963544	0.504085
Cl	3.538448	0.0	0.0
