15

C	-0.521772	0.011399	-1.438684
C	0.0	0.0	0.0
Cl	-0.014927	1.515221	-2.28429
H	1.098442	0.0	0.0
H	-0.038301	-0.793256	-2.005712
N	-1.965931	-0.045894	-1.407705
H	-2.183617	-0.817463	-0.781222
H	-2.33106	-0.242557	-2.330909
N	-0.514766	-1.259206	0.587329
H	-0.52516	-1.089641	1.587226
H	0.183593	-1.980404	0.420928
N	-0.490764	1.105733	0.798361
H	-1.372197	1.427541	0.412838
H	0.180147	1.860367	0.73868
Cl	3.532318	0.0	0.0
