15

C	-0.339476	0.274679	-1.475355
C	0.0	0.0	0.0
Cl	-0.231593	-1.312636	-2.4622
H	1.09599	0.0	0.0
H	-1.385991	0.559342	-1.5984
N	0.535828	1.277957	-1.937889
H	1.503477	1.035201	-1.728065
H	0.425916	1.482665	-2.920759
N	-0.501795	-1.210674	0.600071
H	0.024786	-1.996191	0.242922
H	-1.475394	-1.336482	0.34748
N	-0.575466	1.125654	0.743461
H	-0.09607	1.96635	0.436722
H	-0.317229	0.968051	1.712564
Cl	3.516947	0.0	0.0
