15

C	-0.482515	0.116426	-1.448745
C	0.0	0.0	0.0
Cl	-0.357013	-1.438258	-2.327222
H	1.095109	0.0	0.0
H	-1.547096	0.379196	-1.460043
N	0.246896	1.125196	-2.190626
H	1.230418	0.860361	-2.151603
H	0.168156	1.966795	-1.625745
N	-0.474745	-1.186032	0.678864
H	0.057207	-1.315003	1.530321
H	-1.457659	-1.099479	0.915123
N	-0.367576	1.298745	0.612322
H	0.346744	1.542486	1.288495
H	-1.248374	1.205554	1.107149
Cl	3.456863	0.0	0.0
