15

C	-0.624971	-0.013016	-1.389144
C	0.0	0.0	0.0
Cl	0.25595	-1.131801	-2.46234
H	1.097796	0.0	0.0
H	-1.630044	-0.44565	-1.289069
N	-0.619439	1.311941	-1.988315
H	-0.864457	1.237587	-2.967028
H	-1.341158	1.84886	-1.518869
N	-0.440566	-1.189266	0.704162
H	-1.314334	-0.987723	1.179946
H	0.260277	-1.457398	1.383957
N	-0.506164	1.226178	0.664879
H	-0.175392	1.170406	1.62388
H	0.011942	2.000386	0.256086
Cl	3.563979	0.0	0.0
