18

C	-0.088525	0.057939	-1.532146
C	0.0	0.0	0.0
F	-1.373002	0.44481	-1.974204
H	1.097763	0.0	0.0
N	0.850202	1.079473	-1.926537
H	1.716774	0.878314	-1.397499
H	1.047093	0.984326	-2.917339
C	0.207353	-1.295661	-2.153217
H	0.207143	-1.200023	-3.244629
H	1.201693	-1.5931	-1.809008
H	-0.529607	-2.048753	-1.863865
C	-0.571356	-1.203022	0.567393
N	-1.050871	-2.16101	1.053704
C	-0.54208	1.258686	0.669234
H	-0.090307	2.125669	0.187991
H	-1.62983	1.329262	0.576549
H	-0.274874	1.265268	1.72902
F	2.663651	0.0	0.0
