18

C	-0.307595	0.07345	-1.497863
C	0.0	0.0	0.0
F	0.016822	-1.208409	-2.025501
H	1.095233	0.0	0.0
N	-1.684884	0.35246	-1.777173
H	-2.252394	-0.373826	-1.350851
H	-1.830582	0.310527	-2.780329
C	0.641726	1.042672	-2.173661
H	0.343123	2.074019	-1.978098
H	0.634147	0.867917	-3.254052
H	1.634895	0.8487	-1.752152
C	-0.608323	-1.180536	0.581697
N	-1.151492	-2.113815	1.049745
C	-0.42001	1.264772	0.752794
H	-1.478746	1.504524	0.627528
H	-0.198672	1.143565	1.815872
H	0.184208	2.099049	0.392628
F	2.632439	0.0	0.0
