18

C	-0.099908	0.052565	-1.53128
C	0.0	0.0	0.0
F	-1.389726	0.418798	-1.969899
H	1.097779	0.0	0.0
N	0.822636	1.087078	-1.929749
H	1.014286	0.994347	-2.921622
H	1.696738	0.899665	-1.406656
C	0.214422	-1.297288	-2.152396
H	-0.509582	-2.06092	-1.858963
H	1.215028	-1.578634	-1.811271
H	0.208257	-1.204825	-3.244823
C	-0.565661	-1.202901	0.574175
N	-1.03986	-2.16087	1.065818
C	-0.541436	1.257918	0.670715
H	-0.272212	1.263734	1.729719
H	-1.629612	1.32727	0.580459
H	-0.091615	2.126824	0.189788
F	2.663946	0.0	0.0
