18

C	-0.164355	-0.015352	-1.538695
C	0.0	0.0	0.0
F	-0.024574	1.35916	-1.950404
H	1.097832	0.0	0.0
N	0.897236	-0.802585	-2.039781
H	1.018266	-0.652888	-3.033424
H	1.758554	-0.574702	-1.509633
C	-1.514467	-0.431093	-2.083128
H	-1.734596	-1.460284	-1.793417
H	-2.296977	0.231052	-1.704483
H	-1.504503	-0.360487	-3.174857
C	-0.497414	-1.240468	0.564742
N	-0.929357	-2.217553	1.058213
C	-0.583575	1.216682	0.702843
H	-1.667793	1.30605	0.564441
H	-0.101977	2.112713	0.3134
H	-0.379086	1.152798	1.774945
F	2.661752	0.0	0.0
