18

C	-0.162519	-0.089639	-1.546464
C	0.0	0.0	0.0
F	-0.079665	1.242908	-1.998285
H	1.092577	0.0	0.0
N	0.948532	-0.790159	-2.127938
H	1.776442	-0.581644	-1.538316
H	0.774098	-1.78688	-2.076599
C	-1.489503	-0.618188	-2.052879
H	-1.642906	-1.653501	-1.743289
H	-1.493399	-0.559787	-3.143322
H	-2.309896	-0.012949	-1.659932
C	-0.462412	-1.237181	0.599221
N	-0.853879	-2.237657	1.080412
C	-0.600624	1.227612	0.668421
H	-0.108285	2.115463	0.272736
H	-0.423346	1.189262	1.746602
H	-1.680282	1.315739	0.499615
F	2.654367	0.0	0.0
