18

C	-0.317844	0.149773	-1.49046
C	0.0	0.0	0.0
F	-0.098293	-1.093846	-2.091145
H	1.090337	0.0	0.0
N	-1.719889	0.437338	-1.739116
H	-1.972184	1.288198	-1.251381
H	-1.845323	0.609298	-2.732011
C	0.690945	1.098742	-2.127625
H	0.449739	2.138108	-1.885819
H	0.659103	0.978826	-3.215283
H	1.680617	0.852265	-1.71979
C	-0.595217	-1.2057	0.545369
N	-1.102165	-2.141267	1.043052
C	-0.395966	1.220971	0.83397
H	0.083359	2.11348	0.425134
H	-0.010541	1.092104	1.848011
H	-1.478876	1.379101	0.898676
F	2.637457	0.0	0.0
