18

C	-0.06125	0.065637	-1.540919
C	0.0	0.0	0.0
F	-1.350813	0.407506	-1.986016
H	1.096022	0.0	0.0
N	0.856213	1.07763	-2.03197
H	0.525017	1.981328	-1.710378
H	1.732712	0.886409	-1.519637
C	0.345642	-1.261305	-2.140416
H	-0.356773	-2.051154	-1.869745
H	0.394303	-1.155707	-3.225491
H	1.337426	-1.491901	-1.743571
C	-0.585131	-1.20356	0.553676
N	-1.078318	-2.163377	1.02372
C	-0.538256	1.244518	0.697755
H	-0.411512	1.152927	1.779222
H	-1.597814	1.409853	0.480181
H	0.031588	2.120074	0.380693
F	2.654837	0.0	0.0
