18

C	-0.335077	0.053468	-1.501816
C	0.0	0.0	0.0
F	-0.065445	-1.225577	-1.998062
H	1.098231	0.0	0.0
N	-1.715947	0.309162	-1.867454
H	-1.946663	1.266012	-1.629746
H	-2.312562	-0.29768	-1.312139
C	0.616702	1.012511	-2.19176
H	0.331916	2.053926	-2.010792
H	0.587494	0.822178	-3.26546
H	1.609589	0.825533	-1.768708
C	-0.600625	-1.167939	0.613748
N	-1.118703	-2.090422	1.130267
C	-0.406698	1.272257	0.743227
H	-1.481063	1.484705	0.695201
H	0.15142	2.116755	0.334846
H	-0.123214	1.18314	1.794209
F	2.626441	0.0	0.0
