18

C	-0.162815	0.068631	-1.546848
C	0.0	0.0	0.0
F	-0.064148	1.439247	-1.86319
H	1.095602	0.0	0.0
N	0.941378	-0.582268	-2.197296
H	0.761825	-1.578908	-2.234959
H	1.7726	-0.43309	-1.594601
C	-1.496157	-0.391463	-2.100867
H	-1.500005	-0.226604	-3.180775
H	-1.663436	-1.450181	-1.893135
H	-2.307733	0.183887	-1.648886
C	-0.462301	-1.292961	0.468193
N	-0.846847	-2.341537	0.840988
C	-0.600758	1.152506	0.790964
H	-1.680308	1.254824	0.633194
H	-0.422148	1.006311	1.859531
H	-0.111306	2.076755	0.486625
F	2.651636	0.0	0.0
