18

C	-0.327249	0.114801	-1.500957
C	0.0	0.0	0.0
F	-0.083628	-1.15311	-2.039687
H	1.098457	0.0	0.0
N	-1.699162	0.41814	-1.862365
H	-2.317235	-0.17092	-1.311239
H	-1.895695	1.381726	-1.622948
C	0.65087	1.07209	-2.154067
H	0.396136	2.113171	-1.933661
H	0.61663	0.924226	-3.235085
H	1.639618	0.846467	-1.738229
C	-0.612688	-1.18347	0.568491
N	-1.155351	-2.105359	1.058924
C	-0.40524	1.245644	0.79019
H	-0.126292	1.115758	1.837888
H	-1.478873	1.462057	0.745309
H	0.156471	2.103732	0.415497
F	2.629915	0.0	0.0
