12
Coordinates from ORCA-job run
  C   -0.58432799781600      1.01070974401360     -0.37550133991638
  C   0.04624420918270     -0.37219525473209     -0.26465282249611
  F   -1.91830463827357      0.83104935965193     -0.70242136507154
  H   0.01588155636167     -0.87149762910516     -1.23287914587312
  H   -0.52730476305168      1.52821462896723      0.58524902705372
  H   -0.10926309422404      1.60558749815901     -1.15939351127679
  N   -0.49285599359493     -1.23562804753741      0.74301641599790
  H   -1.40145115804368     -1.57023418764238      0.45221737579614
  H   -0.58548803071693     -0.74620998079835      1.62414343349859
  N   1.49906695188338     -0.13766381335838      0.03445562805714
  O   1.76729929158148      0.15069443350984      1.19841841151616
  O   2.29150366671160     -0.19282675112783     -0.90165210728572
