12
Coordinates from ORCA-job run
  C   -0.66441738388871      1.00602064522602     -0.29512634290279
  C   0.01769775031032     -0.34639707760322     -0.28343760579676
  F   -0.06503182084746      1.82833099015370     -1.23076205506893
  H   0.00468313280350     -0.79849953536825     -1.27452004536567
  H   -1.71616124296925      0.87706483753526     -0.56231254705640
  H   -0.57675094417565      1.47346717588219      0.68822679505943
  N   -0.48744209029705     -1.26494374646871      0.69472585368682
  H   -1.27945590886021     -1.78508444808190      0.34815224971505
  H   -0.71822861587730     -0.80471074927831      1.56477622279933
  N   1.47552125653887     -0.11687782692821      0.02956013140859
  O   1.70531473041249      0.38640818229429      1.12622924014184
  O   2.30627113685044     -0.45477844736286     -0.80551189662051
