12
Coordinates from ORCA-job run
  C   -0.64413682894186      0.93974493855947     -0.67057419583284
  C   -0.00166380846258     -0.31523368966405     -0.13678923437153
  F   -0.11182481870078      1.23082795228067     -1.91181313053364
  H   0.06241838280956     -1.06862780502130     -0.93221115004099
  H   -0.46499602384579      1.77576780706011      0.00273900120483
  H   -1.71817140753841      0.77193655697308     -0.79083375943013
  N   -0.64712260095299     -0.73993406887847      1.08303318030402
  H   -1.63068711851315     -0.91032913009127      0.91580169334562
  H   -0.22699266116920     -1.60331824946054      1.40510306466105
  N   1.44159686516047     -0.07019328012115      0.24046610275268
  O   2.07639929584673     -1.08830354521617      0.50764593568121
  O   1.86618072430801      1.07766251357962      0.28543249225972
