12
Coordinates from ORCA-job run
  C   -0.67728053532742      1.07520726342785     -0.35600653233396
  C   -0.09518664727089     -0.32004139917472     -0.30587673465293
  F   0.07558722624878      1.85729565665221     -1.21090394115475
  H   -0.08529901521579     -0.77654977486095     -1.29536486718477
  H   -0.65431867954343      1.52799956698984      0.63793854465137
  H   -1.70140435291982      1.02019373308546     -0.72633825265456
  N   -0.82222000016833     -1.11362609877731      0.62411833902877
  H   -0.69331670953749     -0.76683061773931      1.56643826677930
  H   -0.54719741774617     -2.08558868896009      0.58617476677995
  N   1.37920487205680     -0.17372732444387      0.06175775684221
  O   2.21640405177709     -0.48234243702276     -0.77989450331280
  O   1.60702720764667      0.23801012082366      1.19795715721219
