12
Coordinates from ORCA-job run
  C   -0.60567305084857      0.94529631367742     -0.52302750465588
  C   0.02501614845361     -0.40798418985687     -0.23659642327543
  F   -0.64123892758816      1.67389921723703      0.65598792164297
  H   0.04355866569664     -0.99699627059499     -1.15542365728045
  H   -1.63328432290680      0.80267570198286     -0.86641480142633
  H   -0.03055078472263      1.50580368018320     -1.26182285650641
  N   -0.54194573469116     -1.16521614154473      0.83032430429502
  H   -0.76101808580393     -0.57356637120146      1.62003876638708
  H   -1.36653126124979     -1.66228955591257      0.52592743842673
  N   1.48617109534999     -0.12913464156136      0.07043604827124
  O   2.18254201821935      0.15975335884077     -0.90037749558616
  O   1.84295424009145     -0.15224110124929      1.23994825970762
