12
Coordinates from ORCA-job run
  C   -0.56221452328035      1.02487148310847     -0.37039139980881
  C   0.03678266652833     -0.37221593699725     -0.26449366373506
  F   -1.90026059862992      0.87797658130880     -0.69641265409784
  H   -0.00735392949966     -0.86945940432650     -1.23323264041243
  H   -0.07407449062049      1.61174263619597     -1.15227760262674
  H   -0.49177735720623      1.53702043320772      0.59237900794014
  N   -0.51733473196328     -1.22452902801821      0.74375837638658
  H   -1.42583733875935     -1.55503971433024      0.44847560684757
  H   -0.61208803496958     -0.73120917781016      1.62233477257802
  N   1.49635007070069     -0.16953105143192      0.02917483894737
  O   2.28425453303864     -0.24274967008597     -0.90947375188572
  O   1.77455373466120      0.11312284917930      1.19215910986692
