12
Coordinates from ORCA-job run
  C   -0.66154616000721      1.00324152927695     -0.31101317817401
  C   0.01841970877531     -0.35006043645001     -0.27959634399781
  F   -0.05637812692176      1.81308807656060     -1.25381074511568
  H   0.00995504460408     -0.81377363842249     -1.26535458954800
  H   -0.57783208939368      1.48268206078181      0.66690097576441
  H   -1.71224008707712      0.87260098557579     -0.58153890972633
  N   -0.49325392593812     -1.25650097048795      0.70677732973654
  H   -0.72267093474828     -0.78565570466718      1.57156297843159
  H   -1.28854373934372     -1.77417460560458      0.36379087998214
  N   1.47429454173795     -0.11915603267093      0.03852964039139
  O   1.69945052837225      0.39358531683650      1.13182255044799
  O   2.30934523994031     -0.46487658072851     -0.78907058819223
