12
Coordinates from ORCA-job run
  C   -0.60322158154411      0.95714588291351     -0.50307305496166
  C   0.02351922926402     -0.40380482358688     -0.24597678841112
  F   -0.62886285756064      1.66321798874385      0.68978782365036
  H   0.03786429491958     -0.97411452250334     -1.17667637134550
  H   -0.03051265868733      1.52932277341911     -1.23470658549378
  H   -1.63348526838131      0.82446728065995     -0.84256768917986
  N   -0.54478401570237     -1.18269591960729      0.80544449296604
  H   -1.38225255119523     -1.65411677396923      0.49475175784922
  H   -0.74737977691416     -0.60862885136151      1.61254798412152
  N   1.48542801420982     -0.13629380052200      0.06581905429276
  O   2.17986685337478      0.17881145564188     -0.89799156354635
  O   1.84382031821696     -0.19331068982806      1.23364094005838
