12

C	-0.449931	-0.287147	-1.424725
C	0.0	0.0	0.0
Cl	-0.863586	1.179703	-2.326179
H	1.093398	0.0	0.0
H	-1.299122	-0.96521	-1.501545
H	-0.319112	1.000818	0.295862
N	0.669865	-1.043415	-2.137284
O	0.762634	-2.203642	-1.752325
O	1.350107	-0.498716	-2.988264
C	-0.544909	-0.968652	0.926791
N	-0.990185	-1.750938	1.683891
F	2.508982	0.0	0.0
