12

C	-0.396055	-0.114597	-1.433067
C	0.0	0.0	0.0
Cl	-2.166855	-0.270844	-1.734626
H	1.090555	0.0	0.0
H	0.079225	-0.980775	-1.885173
H	-0.28595	-0.939282	0.486313
N	0.051586	1.049545	-2.277452
O	0.41493	0.778613	-3.419384
O	-0.025119	2.169302	-1.793274
C	-0.586924	1.097121	0.742027
N	-1.036738	1.944651	1.421123
F	2.517385	0.0	0.0
