12

C	-0.270777	0.081675	-1.465888
C	0.0	0.0	0.0
Cl	-2.002618	0.045756	-1.961095
H	1.092381	0.0	0.0
H	0.2263	-0.737523	-1.978012
H	-0.305775	-0.995016	0.337741
N	0.315881	1.321517	-2.09204
O	0.174678	2.382414	-1.499027
O	0.862216	1.168327	-3.181799
C	-0.633817	0.998713	0.831135
N	-1.147695	1.755309	1.569509
F	2.51212	0.0	0.0
