12

C	-0.259356	-0.039367	-1.47099
C	0.0	0.0	0.0
Cl	-1.986999	0.002332	-1.980081
H	1.095119	0.0	0.0
H	0.193482	-0.906118	-1.942819
H	-0.376934	0.925284	0.436655
N	0.395768	1.150104	-2.126418
O	0.230369	2.243678	-1.602229
O	1.012545	0.932446	-3.16487
C	-0.541778	-1.162203	0.663467
N	-0.963614	-2.112266	1.213341
F	2.506777	0.0	0.0
