12

C	-0.559867	0.05653	-1.40408
C	0.0	0.0	0.0
Cl	0.139972	1.405192	-2.305013
H	1.091486	0.0	0.0
H	-1.64332	0.146498	-1.460229
H	-0.295576	0.92669	0.50422
N	-0.274583	-1.240634	-2.1313
O	0.849837	-1.447647	-2.559051
O	-1.231414	-2.014423	-2.188948
C	-0.557093	-1.119352	0.735236
N	-0.989478	-2.025091	1.347766
F	2.523138	0.0	0.0
