17

C	-0.204203	0.116369	-1.48833
C	0.0	0.0	0.0
Cl	-1.927336	0.459889	-2.001958
H	1.096988	0.0	0.0
H	-0.435621	-0.926015	0.37251
C	0.736839	1.129849	-2.090773
H	0.444572	2.122326	-1.744523
H	0.719521	1.107496	-3.178429
H	1.725905	0.880315	-1.677147
N	0.062665	-1.261325	-2.11532
O	-0.437145	-2.235711	-1.563576
O	0.726371	-1.308025	-3.14681
C	-0.469041	1.212995	0.789111
H	0.122537	2.093691	0.529649
H	-0.298534	1.025711	1.853044
H	-1.530389	1.442622	0.647429
F	2.699532	0.0	0.0
