17

C	-0.513243	-0.071366	-1.42222
C	0.0	0.0	0.0
Cl	0.237712	-1.428826	-2.297148
H	1.091262	0.0	0.0
H	-0.362684	0.948255	0.412676
C	-2.020975	-0.184418	-1.583477
H	-2.50739	0.618712	-1.029229
H	-2.30426	-0.123443	-2.637585
H	-2.350055	-1.147163	-1.193356
N	-0.107565	1.235053	-2.119875
O	-0.699415	2.230373	-1.696929
O	0.71626	1.23853	-3.02202
C	-0.465506	-1.164552	0.864529
H	0.051154	-1.093658	1.824789
H	-0.166353	-2.115544	0.417471
H	-1.545467	-1.190261	1.056065
F	2.654398	0.0	0.0
