17

C	-0.234895	-0.044852	-1.499893
C	0.0	0.0	0.0
Cl	-0.076475	1.607569	-2.18593
H	1.093896	0.0	0.0
H	-0.433229	0.910276	0.41831
C	0.776269	-0.939985	-2.176517
H	1.746089	-0.624961	-1.763966
H	0.601062	-1.977486	-1.888773
H	0.730859	-0.861133	-3.263112
N	-1.675562	-0.465052	-1.791026
O	-1.857021	-1.539334	-2.365564
O	-2.573007	0.249839	-1.353703
C	-0.514273	-1.240879	0.719333
H	-0.235776	-1.173206	1.77404
H	-1.603315	-1.355102	0.665299
H	-0.047049	-2.147419	0.327797
F	2.717092	0.0	0.0
