16

C	0.0	0.0	0.0
C	-0.318701	0.076873	-1.510377
F	1.412682	0.0	0.0
H	-0.074274	1.082003	-1.860744
H	-0.372691	0.903374	0.483158
N	-0.518029	-1.131617	0.631305
H	-0.82488	-1.013291	1.578077
H	-0.030464	-1.984151	0.425143
C	-1.708747	-0.348883	-1.901896
H	-2.503788	0.02337	-1.157224
H	-1.781559	-1.43405	-1.811711
H	-1.903738	-0.049261	-2.938567
N	0.683806	-0.78329	-2.242943
O	1.307923	-0.278085	-3.177993
O	0.790749	-1.96278	-1.902867
F	-3.48842	0.0	0.0
