16

C	0.0	0.0	0.0
C	-0.509376	0.098524	-1.433175
F	1.382342	0.0	0.0
H	-1.603864	0.1873	-1.277296
H	-0.293231	0.918081	0.518161
N	-0.538754	-1.190636	0.583025
H	-1.565624	-0.97744	0.489034
H	-0.319269	-1.167683	1.57396
C	-0.089607	-1.073697	-2.286158
H	-0.493269	-0.993062	-3.295862
H	0.997529	-1.143281	-2.353598
H	-0.469446	-1.977958	-1.812093
N	-0.02936	1.389063	-2.012308
O	0.622537	1.376866	-3.058908
O	-0.324066	2.422496	-1.410631
F	-2.814723	0.0	0.0
