16

C	0.0	0.0	0.0
C	-0.510389	0.127529	-1.426662
F	1.406164	0.0	0.0
H	-1.601042	0.26327	-1.258569
H	-0.275787	0.912695	0.535106
N	-0.534006	-1.194176	0.57125
H	-1.561915	-0.987137	0.469635
H	-0.327687	-1.170227	1.565364
C	-0.177149	-1.06104	-2.296066
H	0.903093	-1.197858	-2.37812
H	-0.608796	-1.942134	-1.822695
H	-0.591988	-0.943125	-3.297832
N	0.02729	1.394416	-2.006957
O	0.565806	1.363883	-3.117057
O	-0.116874	2.427301	-1.352158
F	-2.811353	0.0	0.0
