16

C	0.0	0.0	0.0
C	-0.19203	-0.160006	-1.560995
F	1.409745	0.0	0.0
H	0.140715	0.776801	-2.013633
H	-0.353498	0.994036	0.273145
N	-0.58705	-0.94532	0.85761
H	-1.608233	-0.711343	0.743218
H	-0.42468	-1.871081	0.478149
C	-1.525116	-0.598676	-2.121206
H	-1.506457	-0.510644	-3.212924
H	-1.712065	-1.63714	-1.845301
H	-2.322625	-0.032044	-1.623859
N	0.833145	-1.148701	-2.043867
O	1.667341	-0.774935	-2.869084
O	0.760633	-2.29968	-1.611007
F	-2.93984	0.0	0.0
