15

C	0.0	0.0	0.0
C	-0.702529	0.2983	-1.335026
Br	1.917208	0.0	0.0
H	-1.654336	0.764291	-1.026179
H	-0.361578	-0.94927	0.381159
N	-0.370727	1.0199	1.059882
O	-0.429371	0.607849	2.214624
O	-0.493571	2.181782	0.693403
N	-1.039506	-0.868709	-2.085927
H	-0.311022	-1.57142	-2.04354
H	-1.907931	-1.199427	-1.653253
N	0.058115	1.24907	-2.213576
O	0.963972	0.77947	-2.908117
O	-0.283715	2.437879	-2.209374
H	-3.017155	0.0	0.0
