16

C	0.0	0.0	0.0
C	-0.300274	0.116204	-1.551889
Br	2.025432	0.0	0.0
H	0.508467	0.725226	-1.957521
N	-0.242383	1.419679	0.632186
O	-0.541559	1.438399	1.819492
O	-0.0934	2.407252	-0.080518
N	-0.655443	-1.00363	0.650831
H	-0.500348	-0.932072	1.650869
H	-1.699987	-0.775008	0.438979
N	-1.540019	0.684816	-2.019308
H	-2.297943	0.357304	-1.386548
H	-1.467807	1.68456	-1.876286
C	-0.121681	-1.237155	-2.108972
N	0.034335	-2.296801	-2.58985
F	-2.920442	0.0	0.0
