16

C	0.0	0.0	0.0
C	-0.536603	0.024283	-1.451303
Br	1.922152	0.0	0.0
H	-1.622548	0.17479	-1.223596
N	-0.40019	1.318557	0.685249
O	-0.477201	1.319792	1.903166
O	-0.563653	2.291305	-0.043576
N	-0.531918	-1.051441	0.767939
H	-0.36439	-1.892926	0.222673
H	-1.563572	-0.834859	0.693211
N	-0.344646	-1.311471	-2.023432
H	-1.141009	-1.530711	-2.606798
H	0.490921	-1.335158	-2.595237
C	0.009426	1.055146	-2.331786
N	0.464368	1.77068	-3.147501
F	-2.772461	0.0	0.0
