16

C	0.0	0.0	0.0
C	-0.58258	0.164665	-1.431822
Br	1.924039	0.0	0.0
H	-1.587953	0.559966	-1.210285
N	-0.302886	1.337997	0.776225
O	-0.367681	1.251118	1.997886
O	-0.409053	2.371435	0.128541
N	-0.569772	-1.095208	0.637989
H	-0.304333	-1.078671	1.616109
H	-1.609713	-0.861065	0.534087
N	-0.792198	-1.103276	-2.114396
H	-1.604316	-1.506097	-1.65803
H	-0.007052	-1.720673	-1.928552
C	0.183621	1.073601	-2.285713
N	0.766904	1.776779	-3.024999
F	-2.789791	0.0	0.0
