16

C	0.0	0.0	0.0
C	-0.549516	0.179036	-1.459376
Br	1.923996	0.0	0.0
H	-1.559674	0.566355	-1.250857
N	-0.374331	1.298104	0.761465
O	-0.368371	2.329852	0.096933
O	-0.605064	1.218247	1.955543
N	-0.545854	-1.06985	0.722885
H	-1.585738	-0.867134	0.611372
H	-0.295065	-1.939173	0.26724
N	-0.744713	-1.082137	-2.153993
H	-1.521644	-1.537709	-1.688073
H	0.085697	-1.662766	-2.093032
C	0.227888	1.079538	-2.30657
N	0.833211	1.76491	-3.044364
F	-2.749497	0.0	0.0
