16

C	0.0	0.0	0.0
C	-0.56471	0.377413	-1.415028
Br	2.005069	0.0	0.0
H	-1.372579	-0.347164	-1.532295
N	-0.249496	1.141335	1.055244
O	-0.555571	0.769431	2.179057
O	-0.054243	2.297616	0.710747
N	-0.527434	-1.214316	0.387261
H	-0.255601	-1.41221	1.343933
H	-1.586345	-0.952971	0.337623
N	0.457778	0.326402	-2.470241
H	0.817699	-0.620696	-2.516094
H	-0.009654	0.517917	-3.349827
C	-1.236832	1.675342	-1.529491
N	-1.764896	2.673374	-1.8489
F	-2.668938	0.0	0.0
