16

C	0.0	0.0	0.0
C	-0.319105	0.441321	-1.49759
Br	1.940068	0.0	0.0
H	0.460424	1.163482	-1.748057
N	-0.306638	1.245966	0.916407
O	-0.195591	2.366365	0.429124
O	-0.600671	1.002227	2.079677
N	-0.648246	-1.141856	0.410614
H	-1.683393	-0.886684	0.287403
H	-0.455768	-1.320293	1.390302
N	-1.583085	1.031429	-1.858486
H	-2.32438	0.5628	-1.293809
H	-1.56364	1.985285	-1.518152
C	-0.070672	-0.74932	-2.332956
N	0.103192	-1.670602	-3.039403
F	-2.943079	0.0	0.0
