15

C	-0.329439	0.026961	-1.499208
C	0.0	0.0	0.0
Cl	0.246918	-1.480776	-2.287759
H	1.095967	0.0	0.0
C	-1.77021	0.144862	-1.761116
N	-2.92974	0.258463	-1.919355
C	0.349915	1.161056	-2.139004
N	0.859493	2.063774	-2.691934
C	-0.588614	-1.164993	0.622442
N	-1.07991	-2.087917	1.162808
C	-0.430067	1.292048	0.692102
H	-0.148726	1.221538	1.744663
H	-1.505404	1.49221	0.627374
H	0.129481	2.127197	0.265346
F	2.493776	0.0	0.0
