15

C	-0.241873	0.040009	-1.499112
C	0.0	0.0	0.0
Cl	-2.016113	0.1549	-1.959579
H	1.097585	0.0	0.0
C	0.412816	1.216208	-2.085721
N	0.907693	2.15371	-2.592749
C	0.281113	-1.167778	-2.145224
N	0.667454	-2.13636	-2.686077
C	-0.556972	-1.202608	0.574756
N	-1.014893	-2.161699	1.080589
C	-0.440726	1.264344	0.724063
H	-1.513612	1.463923	0.637405
H	-0.182756	1.162034	1.780529
H	0.126209	2.112252	0.333045
F	2.475798	0.0	0.0
