17

C	0.0	0.0	0.0
C	-0.38299	-0.000907	-1.471465
F	1.469332	0.0	0.0
H	-1.482977	-0.030526	-1.449945
N	-0.492227	1.099521	0.748422
H	-1.511077	0.913005	0.774296
H	-0.368654	1.928141	0.176547
N	-0.411304	-1.195206	0.612994
H	-0.087877	-1.990665	0.084654
H	-0.103599	-1.207622	1.574236
N	0.124859	-1.22199	-2.104122
H	1.129321	-1.130673	-2.215925
H	-0.293123	-1.327633	-3.021118
N	0.060164	1.26352	-2.060654
H	1.074142	1.254822	-2.11763
H	-0.315747	1.35055	-2.99803
H	-3.360068	0.0	0.0
