17

C	0.0	0.0	0.0
C	-0.412679	0.031559	-1.464198
F	1.438018	0.0	0.0
H	-1.511982	0.065624	-1.417519
N	-0.419967	1.184924	0.64226
H	-0.104233	1.172556	1.601427
H	-0.085495	1.989398	0.134513
N	-0.496209	-1.114514	0.72923
H	-0.378983	-1.93116	0.138628
H	-1.513916	-0.925605	0.765696
N	0.007192	-1.224353	-2.089164
H	-0.420317	-1.306213	-3.003923
H	1.015485	-1.210494	-2.204622
N	0.087945	1.261218	-2.085639
H	1.087026	1.163561	-2.238378
H	-0.362055	1.392622	-2.984331
H	-3.387081	0.0	0.0
