17

C	0.0	0.0	0.0
C	-0.420358	0.041839	-1.476494
F	1.421315	0.0	0.0
H	0.263656	0.770477	-1.935637
N	-0.400598	1.195437	0.675842
H	-0.379731	1.02546	1.675715
H	-1.368921	1.369056	0.419302
N	-0.444453	-1.205164	0.606376
H	-0.029895	-1.30108	1.525609
H	-0.160905	-1.971892	0.007342
N	-1.762243	0.510068	-1.583077
H	-2.106567	0.518657	-2.533461
H	-2.499555	0.123672	-0.94024
N	-0.138625	-1.299947	-2.066137
H	0.616581	-1.234709	-2.735806
H	-0.97611	-1.59827	-2.547463
H	-3.934233	0.0	0.0
