17

C	0.0	0.0	0.0
C	-0.414013	0.024767	-1.477569
F	1.412052	0.0	0.0
H	-1.509989	0.026169	-1.479167
N	-0.429182	1.21343	0.638774
H	-0.308652	1.07997	1.640148
H	-1.448768	1.207947	0.480707
N	-0.428736	-1.235122	0.59619
H	-1.44803	-1.226026	0.437244
H	-0.311658	-1.135026	1.602059
N	0.055858	-1.20858	-2.11522
H	-0.040314	-1.104245	-3.119245
H	1.041649	-1.321138	-1.904991
N	0.059692	1.276627	-2.074897
H	-0.037332	1.205219	-3.082059
H	1.045901	1.378679	-1.862036
H	-3.09275	0.0	0.0
