17

C	0.0	0.0	0.0
C	-0.466777	-0.078635	-1.460357
F	1.36955	0.0	0.0
H	-1.563687	-0.083221	-1.386208
N	-0.460127	1.257954	0.547553
H	-0.197258	1.286158	1.528975
H	-1.488461	1.169214	0.509836
N	-0.463376	-1.190877	0.677935
H	-0.203858	-1.114594	1.657329
H	-1.491871	-1.103998	0.630203
N	0.047869	-1.312911	-2.064557
H	-0.014852	-2.024648	-1.342329
H	-0.604583	-1.58776	-2.792016
N	0.02201	1.094321	-2.194771
H	0.023791	1.860769	-1.528322
H	-0.676791	1.325748	-2.894106
H	-3.108672	0.0	0.0
