17

C	0.0	0.0	0.0
C	-0.396217	-0.093939	-1.498292
F	1.438372	0.0	0.0
H	0.452325	0.351592	-2.027934
N	-0.46617	1.222505	0.567395
H	-1.488673	1.139463	0.572973
H	-0.151266	1.277624	1.531589
N	-0.407294	-1.162101	0.723893
H	0.15937	-1.946321	0.432461
H	-0.33174	-1.011239	1.720216
N	-1.60059	0.601304	-1.899414
H	-1.466742	1.596898	-1.748183
H	-2.389771	0.321942	-1.277374
N	-0.464302	-1.509912	-1.852599
H	-1.286033	-1.86192	-1.364412
H	-0.709659	-1.523472	-2.837937
H	-3.54364	0.0	0.0
