17

C	0.0	0.0	0.0
C	-0.34684	0.148065	-1.488284
F	1.450289	0.0	0.0
H	0.231561	-0.649652	-1.975228
N	-0.444494	1.121785	0.730721
H	-0.191035	1.961432	0.225747
H	-0.078687	1.120431	1.673418
N	-0.439275	-1.262876	0.507602
H	-1.460617	-1.190789	0.52773
H	-0.134332	-1.339354	1.473083
N	0.110639	1.483913	-1.913847
H	1.093962	1.450551	-2.153555
H	-0.431829	1.698546	-2.740931
N	-1.734182	0.004349	-1.841776
H	-2.408225	0.251656	-1.084183
H	-1.934085	-0.970576	-2.019249
H	-3.750047	0.0	0.0
