17

C	0.0	0.0	0.0
C	-0.422917	0.028607	-1.474556
F	1.38661	0.0	0.0
H	-1.507773	0.187664	-1.437801
N	-0.426353	1.166757	0.724775
H	-0.201307	1.966964	0.139495
H	-1.451488	1.085294	0.731962
N	-0.489114	-1.20513	0.603309
H	-0.306901	-1.114455	1.599785
H	-1.515984	-1.12818	0.488865
N	-0.068442	-1.23305	-2.143275
H	-0.867813	-1.52977	-2.692818
H	0.043124	-1.927723	-1.410497
N	0.202519	1.190051	-2.106092
H	1.161374	0.919564	-2.299259
H	-0.245057	1.332779	-3.004175
H	-3.104812	0.0	0.0
