13

C	0.0	0.0	0.0
C	-0.325284	-0.31077	-1.484029
Br	1.970823	0.0	0.0
H	0.283881	0.37473	-2.07994
H	-0.253995	-0.843617	0.651618
H	0.048127	-1.321889	-1.682775
N	-0.544485	1.262783	0.395869
H	-0.43842	1.389697	1.395537
H	-1.548366	1.207409	0.212845
N	-1.688728	-0.198818	-1.936692
H	-1.979195	0.769182	-1.968563
H	-2.365616	-0.649233	-1.327962
Cl	-4.211583	0.0	0.0
