13

C	0.0	0.0	0.0
C	-0.560567	0.018998	-1.405487
Br	2.023046	0.0	0.0
H	-1.633169	0.20385	-1.253705
H	-0.225795	-0.953013	0.47394
H	-0.126515	0.86037	-1.958385
N	-0.494725	1.060828	0.768436
H	-0.215989	1.03126	1.738001
H	-0.313373	1.96861	0.364379
N	-0.314402	-1.250777	-2.090593
H	0.003615	-1.08752	-3.034754
H	-1.191697	-1.752303	-2.145548
Cl	-4.017339	0.0	0.0
