13

C	0.0	0.0	0.0
C	-0.476778	0.186929	-1.426259
Br	1.966549	0.0	0.0
H	-1.568848	0.140246	-1.369188
H	-0.235547	-1.020724	0.314413
H	-0.187625	1.198471	-1.746837
N	-0.51019	1.047334	0.836273
H	-1.525724	1.033936	0.691425
H	-0.354405	0.803411	1.807925
N	-0.003496	-0.888558	-2.294867
H	0.920759	-0.66917	-2.64352
H	-0.628035	-0.966895	-3.08683
Cl	-3.694948	0.0	0.0
