13

C	0.0	0.0	0.0
C	-0.302852	-0.045201	-1.523267
Br	1.952453	0.0	0.0
H	0.207087	-0.922545	-1.937103
H	-0.292352	-0.935967	0.479446
H	0.190787	0.830556	-1.963694
N	-0.569751	1.081926	0.735708
H	-0.537202	1.931177	0.182621
H	-1.54987	0.857722	0.907552
N	-1.67843	-0.05752	-1.947094
H	-2.170912	0.769094	-1.632694
H	-2.201313	-0.80663	-1.509654
Cl	-4.165011	0.0	0.0
