13

C	0.0	0.0	0.0
C	-0.400634	-0.641918	-1.334505
Br	2.02523	0.0	0.0
H	0.077441	-0.064062	-2.135058
H	-0.254179	-0.631458	0.851032
H	0.04382	-1.641447	-1.368624
N	-0.545555	1.276784	0.170909
H	-0.272833	1.927782	-0.552144
H	-0.408102	1.673296	1.086505
N	-1.81707	-0.72326	-1.600436
H	-2.228356	0.199239	-1.660427
H	-2.33986	-1.145292	-0.839831
Cl	-4.689149	0.0	0.0
