13

C	0.0	0.0	0.0
C	-0.485494	0.107742	-1.42936
Br	2.069536	0.0	0.0
H	-1.567419	-0.052147	-1.345495
H	-0.189761	-0.983494	0.423843
H	-0.037045	-0.689046	-2.035087
N	-0.519422	1.008179	0.762564
H	-0.534853	1.907838	0.311365
H	-0.380138	0.996382	1.755548
N	-0.2419	1.456801	-1.934955
H	-0.960177	1.707343	-2.599309
H	0.661135	1.506127	-2.387323
Cl	-3.996885	0.0	0.0
