13

C	0.0	0.0	0.0
C	-0.315848	0.11328	-1.514379
Br	1.957368	0.0	0.0
H	0.186293	-0.718125	-2.021076
H	-0.288203	-0.981123	0.379466
H	0.17143	1.031045	-1.867542
N	-0.558886	0.999441	0.851449
H	-0.519259	1.904388	0.396236
H	-1.541539	0.767191	0.995058
N	-1.697008	0.145637	-1.91686
H	-2.230474	-0.625951	-1.534124
H	-2.175076	0.956919	-1.546111
Cl	-4.216252	0.0	0.0
