13

C	0.0	0.0	0.0
C	-0.458095	0.167725	-1.447087
Br	1.968589	0.0	0.0
H	-0.008482	1.084428	-1.838267
H	-0.244967	-1.008442	0.352753
H	-1.541909	0.297416	-1.408159
N	-0.496075	1.073268	0.808935
H	-1.512377	1.059272	0.674028
H	-0.325466	0.869027	1.787092
N	-0.166702	-0.944859	-2.341299
H	0.802796	-1.220508	-2.235577
H	-0.745457	-1.731845	-2.072493
Cl	-3.624918	0.0	0.0
