13

C	0.0	0.0	0.0
C	-0.317932	0.426272	-1.457726
Br	1.954106	0.0	0.0
H	0.027875	1.461098	-1.554376
H	-0.247354	-1.059048	0.135624
H	0.318298	-0.183744	-2.105471
N	-0.58361	0.882346	0.960166
H	-0.530123	0.46908	1.884
H	-1.578176	0.92779	0.729854
N	-1.670515	0.32854	-1.950117
H	-2.037219	-0.604856	-1.815081
H	-2.321225	0.910536	-1.436331
Cl	-4.168963	0.0	0.0
