17

C	-0.436405	-0.01556	-1.452664
C	0.0	0.0	0.0
F	-0.098027	1.112707	-2.070461
H	1.089468	0.0	0.0
N	0.220083	-1.17325	-2.197674
O	0.438721	-0.976083	-3.38279
O	0.429877	-2.186599	-1.547833
N	-1.945688	-0.157299	-1.662933
O	-2.594044	0.724758	-1.117703
O	-2.355494	-1.059253	-2.376212
N	-0.521275	-1.152851	0.781358
O	0.132202	-1.467265	1.76569
O	-1.57823	-1.661733	0.412391
N	-0.46498	1.247495	0.70527
O	-0.002385	2.297182	0.28398
O	-1.232152	1.108952	1.651703
Cl	3.083004	0.0	0.0
