17

C	-0.440077	0.006607	-1.451524
C	0.0	0.0	0.0
F	0.135832	0.988759	-2.132993
H	1.092021	0.0	0.0
N	-0.045847	-1.316833	-2.123367
O	-0.635327	-2.306914	-1.711417
O	0.799995	-1.249317	-2.996678
N	-1.940722	0.161009	-1.707701
O	-2.3375	-0.261818	-2.787484
O	-2.579445	0.785854	-0.873626
N	-0.523586	-1.182898	0.753685
O	0.305364	-1.865486	1.343154
O	-1.739105	-1.354734	0.743854
N	-0.417693	1.230891	0.74947
O	-0.815331	1.073568	1.895681
O	-0.245804	2.294775	0.173093
Cl	3.080868	0.0	0.0
