17

C	-0.480185	-0.004964	-1.437702
C	0.0	0.0	0.0
F	-0.157477	1.12945	-2.054191
H	1.089461	0.0	0.0
N	0.144599	-1.15631	-2.213595
O	0.279604	-0.964621	-3.412426
O	0.410934	-2.162641	-1.572196
N	-1.998198	-0.140984	-1.59887
O	-2.621674	0.768506	-1.068183
O	-2.438034	-1.070021	-2.257806
N	-0.505629	-1.152637	0.795568
O	-1.566889	-1.667106	0.448946
O	0.165865	-1.455121	1.771748
N	-0.451169	1.247761	0.719227
O	-1.252337	1.115185	1.637537
O	0.054328	2.289196	0.330253
Cl	3.098092	0.0	0.0
