17

C	-0.563511	0.006924	-1.398772
C	0.0	0.0	0.0
F	-1.837532	0.361085	-1.497508
H	1.08742	0.0	0.0
N	0.235642	0.933247	-2.346947
O	1.446358	0.788413	-2.325175
O	-0.425798	1.694064	-3.037379
N	-0.389954	-1.367072	-2.040954
O	-1.228161	-1.677881	-2.874862
O	0.595759	-1.997021	-1.683509
N	-0.493222	-1.152639	0.797855
O	-1.545351	-1.688011	0.440663
O	0.225014	-1.494534	1.729141
N	-0.478377	1.245752	0.667834
O	-0.180987	2.276636	0.069847
O	-1.03491	1.156603	1.75658
Cl	2.67991	0.0	0.0
