14

C	-0.188939	0.000588	-1.50035
C	0.0	0.0	0.0
Br	-2.122797	0.104383	-2.068119
H	1.098172	0.0	0.0
H	-0.352112	0.937296	0.431304
N	0.435543	1.216309	-1.967824
H	1.392002	1.186068	-1.594576
H	0.483474	1.201544	-2.980814
N	0.311721	-1.257497	-1.999903
H	0.342939	-1.23667	-3.013156
H	1.270991	-1.327998	-1.646455
C	-0.546875	-1.144472	0.697426
N	-0.963317	-2.052231	1.316705
H	2.742574	0.0	0.0
