14

C	-0.631597	0.032073	-1.371971
C	0.0	0.0	0.0
Br	-0.08731	1.863676	-2.125038
H	1.090951	0.0	0.0
H	-0.333744	0.88048	0.560856
N	-0.17778	-1.067129	-2.069636
H	0.789079	-1.394497	-1.942305
H	-0.644287	-1.282213	-2.948542
N	-2.10149	0.122894	-1.279622
H	-2.4989	0.328742	-2.204401
H	-2.414093	-0.825364	-1.008728
C	-0.462091	-1.217619	0.666389
N	-0.808754	-2.239761	1.119934
H	2.953354	0.0	0.0
