14

C	-0.359811	-0.068357	-1.485989
C	0.0	0.0	0.0
Br	-0.040177	1.806418	-2.246675
H	1.091482	0.0	0.0
H	-0.295176	-0.970311	0.420843
N	0.533195	-0.922499	-2.21492
H	0.336331	-1.86982	-1.902443
H	1.486328	-0.696721	-1.909595
N	-1.697146	-0.485427	-1.716821
H	-1.884858	-0.457023	-2.712621
H	-2.343461	0.129062	-1.236659
C	-0.635097	1.05214	0.764863
N	-1.168247	1.894886	1.388826
H	2.782677	0.0	0.0
