19
Coordinates from ORCA-job run
  C   0.58567546901462     -0.25286377898439     -0.50152756555876
  C   -0.84085766928047      0.29371601228797     -0.32675698287934
  H   0.53154267730255     -0.84497509357529     -1.42553745590947
  H   -1.10066369996165      0.86631371766362     -1.22001134123465
  C   1.04507973399748     -1.17537050445136      0.62532168103996
  H   1.06357698533194     -0.65101951028966      1.58244784296948
  H   2.05651280708793     -1.53162726963095      0.41375555562716
  H   0.40296056907630     -2.05184878989853      0.72973142807730
  C   1.58659953528945      0.88026819231328     -0.72462678802897
  H   2.55433403079071      0.47276969861083     -1.02665442667298
  H   1.74059858808952      1.45640889132917      0.19159802376053
  H   1.24925919784385      1.57273947305751     -1.49971425362589
  N   -0.83999631411414      1.32641858207230      0.76271671879187
  O   -0.85225826025587      0.92852578141161      1.92755455747479
  O   -0.78791303775125      2.50714709063459      0.41944388479999
  C   -1.89814462030141     -0.75268263930784     -0.03173947227115
  H   -2.89300053111041     -0.30176236908190     -0.02385952913844
  H   -1.72755392084499     -1.22218810861782      0.93529238192408
  H   -1.87575154020417     -1.51996937554312     -0.80943425914550
