19
Coordinates from ORCA-job run
  C   0.74661011573683      0.37758604180435     -0.04425988956486
  C   -0.77996832786143      0.55447512833604     -0.08730111733787
  H   1.15065323427425      1.36287267237574      0.21507346123199
  H   -1.00682320607092      1.40882610621831     -0.73182631848040
  C   1.27195685409659     -0.00912262273725     -1.42489439486166
  H   0.90124953614780      0.66594292877920     -2.20177444780254
  H   0.98324929050586     -1.02906726135542     -1.69068597402757
  H   2.36367411015349      0.03682495571400     -1.43624324722738
  C   1.20101262196052     -0.61816375527016      1.02021529376595
  H   2.29240443524358     -0.67607502405939      1.02539000933132
  H   0.81836610869971     -1.62238703015867      0.82237123251059
  H   0.88230583740054     -0.32501798672736      2.02266238179434
  N   -1.20032095586092      1.01756622861078      1.28078010140219
  O   -1.76320916524691      0.21613360517705      2.02456971523821
  O   -0.89320713871750      2.16969911105004      1.58204870990772
  C   -1.58408000038049     -0.65792653527931     -0.50885547487347
  H   -1.36734591520114     -0.89288809202708     -1.55232039479041
  H   -2.65235242558531     -0.45305419882602     -0.42393509754414
  H   -1.36317500929453     -1.52822427162485      0.10698545132799
