19
Coordinates from ORCA-job run
  C   0.64848222022414     -0.12066480761360      0.25138286998734
  C   -0.76749631930137      0.20487232233112     -0.22944115140177
  H   0.60670086939454     -0.18315396012680      1.34548171431502
  H   -0.77490523804078      0.32234174993433     -1.31643743150949
  C   1.62846694163709      0.98381473035484     -0.14066192385240
  H   1.64181435493273      1.12538179776435     -1.22580260710822
  H   2.64010837422847      0.72160414391449      0.17825524611074
  H   1.37561921916716      1.94033024898968      0.32140646022803
  C   1.09900746763868     -1.46754038930623     -0.31091890803897
  H   1.06649856037111     -1.46172636427097     -1.40526472609443
  H   0.48303330307122     -2.29458857185968      0.04628483690238
  H   2.12958317633234     -1.67295524825088     -0.01172956479703
  N   -1.12390524602400      1.56574512207903      0.28917844313182
  O   -1.24921387849307      2.47660485526284     -0.52789021482492
  O   -1.24088493484226      1.68059605128479      1.50793911412337
  C   -1.83794548546814     -0.77240891242572      0.22564292101178
  H   -2.83227054789049     -0.39829381238305     -0.02903538533761
  H   -1.78740767486623     -0.91685985238457      1.30578214708351
  H   -1.70628516207115     -1.73409910329395     -0.27117183992911
