18

C	-0.641337	0.000392	-1.382006
C	0.0	0.0	0.0
F	0.004429	0.833583	-2.25243
H	1.097594	0.0	0.0
N	-0.403621	-1.404984	-1.943
O	-1.366286	-2.165012	-2.022778
O	0.740231	-1.660149	-2.291761
C	-2.119139	0.304873	-1.420082
H	-2.258424	1.344525	-1.12459
H	-2.66245	-0.356244	-0.746368
H	-2.505789	0.165466	-2.430308
N	-0.375475	-1.180514	0.722924
H	0.431983	-1.454019	1.269615
H	-1.143505	-1.003117	1.357499
N	-0.398632	1.252251	0.708931
O	-0.746303	1.175212	1.892673
O	-0.322072	2.312728	0.086779
F	2.498662	0.0	0.0
