18

C	-0.437575	-0.160043	-1.446489
C	0.0	0.0	0.0
F	-1.775647	-0.489385	-1.519824
H	1.090958	0.0	0.0
N	-0.292646	1.121634	-2.259631
O	-1.317611	1.731792	-2.546183
O	0.84421	1.424465	-2.593214
C	0.421299	-1.221258	-2.090015
H	1.45856	-0.994912	-1.831862
H	0.141912	-2.176964	-1.649722
H	0.267988	-1.243569	-3.171462
N	-0.40705	-1.165959	0.7196
H	0.24155	-1.297787	1.484815
H	-1.340995	-1.060177	1.093842
N	-0.504276	1.271686	0.620841
O	-0.254757	2.327421	0.04269
O	-1.096018	1.198628	1.703678
F	2.552712	0.0	0.0
