18

C	-0.348402	-0.062236	-1.490295
C	0.0	0.0	0.0
F	-1.627289	-0.559965	-1.688377
H	1.089859	0.0	0.0
N	-0.377022	1.327336	-2.106
O	0.66943	1.752793	-2.581346
O	-1.448881	1.924823	-2.069231
C	0.672506	-0.915672	-2.196961
H	0.586423	-0.821076	-3.280846
H	1.659588	-0.618518	-1.826116
H	0.489039	-1.954053	-1.913675
N	-0.407386	-1.173791	0.702874
H	-1.237578	-1.610119	0.330218
H	0.373696	-1.8128	0.743689
N	-0.605467	1.218349	0.627937
O	-1.640601	1.093622	1.281206
O	-0.021218	2.285052	0.433767
F	2.596085	0.0	0.0
