18

C	-0.332672	-0.165326	-1.474329
C	0.0	0.0	0.0
F	-1.59216	-0.68562	-1.687528
H	1.098527	0.0	0.0
N	-0.291071	1.157257	-2.216509
O	0.581753	1.945129	-1.872398
O	-1.076436	1.306325	-3.146629
C	0.721573	-1.046914	-2.108623
H	1.699939	-0.702947	-1.7462
H	0.630095	-1.024109	-3.19705
H	0.566741	-2.070268	-1.758827
N	-0.415294	-1.131998	0.781877
H	0.391876	-1.69721	0.99653
H	-1.145781	-1.673071	0.343146
N	-0.619548	1.22236	0.593366
O	-0.15971	1.613191	1.660926
O	-1.582543	1.734081	0.011561
F	2.605871	0.0	0.0
