18

C	-0.61745	-0.019275	-1.393999
C	0.0	0.0	0.0
F	0.090117	0.745768	-2.277575
H	1.091193	0.0	0.0
N	-0.448449	-1.455122	-1.896137
O	0.681924	-1.784244	-2.225883
O	-1.44863	-2.167445	-1.944657
C	-2.073814	0.367189	-1.483337
H	-2.439942	0.206814	-2.49748
H	-2.673842	-0.229256	-0.798237
H	-2.158808	1.425067	-1.237373
N	-0.393439	-1.1546	0.7483
H	-1.184962	-0.962101	1.347582
H	0.395167	-1.409068	1.32871
N	-0.401762	1.278398	0.665926
O	-0.830268	1.234144	1.824675
O	-0.254999	2.322404	0.030751
F	2.501238	0.0	0.0
