18

C	-0.374058	0.069355	-1.479665
C	0.0	0.0	0.0
F	-0.438055	-1.216087	-1.968394
H	1.095223	0.0	0.0
N	-1.817026	0.55611	-1.665243
O	-2.120906	1.062438	-2.742355
O	-2.603768	0.328846	-0.747516
C	0.601609	0.845139	-2.321705
H	0.462286	1.914153	-2.188785
H	0.464502	0.579664	-3.370248
H	1.591481	0.564544	-1.947646
N	-0.469227	-1.150681	0.683631
H	0.172088	-1.356604	1.435838
H	-1.400086	-1.016024	1.053596
N	-0.395898	1.286149	0.670908
O	-0.421206	2.319612	-0.001103
O	-0.629765	1.24795	1.877649
F	2.568323	0.0	0.0
