15
Coordinates from ORCA-job run
  C   0.62062898030799      0.23501098424264      0.13430527214835
  C   -0.70767497233084     -0.52699269519675      0.15979401053349
  Cl  0.73405760435114      1.28146638071640      1.59887121640878
  H   -0.71624110671669     -1.11864904634290      1.08074705809447
  H   -0.68133499889781     -1.23183848298928     -0.67934307130546
  C   1.81561440757998     -0.71181403656190      0.13755892366463
  H   1.79029571155565     -1.33818333341493     -0.75754419892210
  H   2.75183721484694     -0.15299096617668      0.15316537429311
  H   1.76928853109804     -1.34842553396947      1.02300552329017
  C   0.67836606074293      1.11179172198927     -1.03786823701293
  N   0.71998503045546      1.77262150338751     -2.00834847106064
  C   -1.95214766200318      0.34548024043061      0.06738850430012
  H   -2.84711689384636     -0.27963869849456      0.09229828283109
  H   -2.00726186865256      1.04656652993912      0.90094228281558
  H   -1.96729603849070      0.91559543244092     -0.86397247007867
