15
Coordinates from ORCA-job run
  C   0.63293301362273      0.23944835020251      0.02876392975532
  C   -0.72696985125405     -0.38345611446701      0.35846545631490
  Cl  0.81757656012746      1.78164074541075      0.94610414493507
  H   -0.74555003255060     -0.54981890194240      1.44026368633537
  H   -0.74632021110300     -1.36843365089959     -0.12232793672547
  C   1.78528403389463     -0.68031413389012      0.41652644773628
  H   1.71692842270725     -1.61288624262486     -0.14916801889315
  H   2.74523271226092     -0.20746211575345      0.20663139015551
  H   1.72668061775046     -0.90235366845457      1.48371605136410
  C   0.70778894414341      0.56423643527121     -1.39753951952439
  N   0.75800410318516      0.77415609782629     -2.55240111788116
  C   -1.93341521890842      0.43438253162061     -0.08203597458211
  H   -1.94051179871142      0.57760412723005     -1.16463106262718
  H   -2.85410741481925     -0.08384954884040      0.19372533211928
  H   -1.94255388034528      1.41510608931099      0.39490719151765
