15
Coordinates from ORCA-job run
  C   0.72268556036060      0.41827136145776      0.27895007146212
  C   -0.73327746350193      0.28986969375743      0.73988063006988
  Cl  1.66538329261070      1.14756727611223      1.63237513980848
  H   -0.73270012074921     -0.34852169010508      1.62901931606407
  H   -1.07418980164698      1.27919201864142      1.05714110711583
  C   1.36207913282993     -0.91849434136003     -0.07792767600207
  H   0.86530904404426     -1.35629667658128     -0.94559860029963
  H   2.41820094596421     -0.78381083165673     -0.31325557935135
  H   1.27381837404846     -1.59939325686695      0.77111632767084
  C   0.80889621235947      1.33612024141649     -0.85957301240478
  N   0.84255550862977      2.04135661842887     -1.79870184300753
  C   -1.66629478230198     -0.27119886068950     -0.32883250461869
  H   -2.69351862879849     -0.26244224569350      0.04149278891084
  H   -1.63807518916643      0.33048888306541     -1.24018808695522
  H   -1.42087208468238     -1.30270818992654     -0.58689807846281
