18
Coordinates from ORCA-job run
  C   -0.56317477319893      0.13791012962263      0.30606027936775
  C   0.86443378373791     -0.28303434755523     -0.10918980429372
  Cl  -0.44866761260085      1.56858280252017      1.39754728937747
  H   0.73637390188261     -1.18144361467016     -0.72903052960129
  C   -1.38820963502596      0.54036563249941     -0.90744165556198
  H   -2.41062789943179      0.76551177652907     -0.59902616780002
  H   -0.98398836372201      1.42563416312086     -1.39769997013240
  H   -1.41753553145873     -0.28362651829459     -1.62771827574909
  C   -1.24635234221879     -0.97884077933626      1.08156396531162
  H   -0.68637730165422     -1.23722300704184      1.98129561923001
  H   -1.33050562248366     -1.86913119784551      0.45010589475646
  H   -2.24978780609728     -0.66878034426421      1.37855813975414
  C   1.64335041365942     -0.69332120049084      1.06281764532188
  N   2.28731775932976     -1.02158887381256      1.98824582261934
  C   1.64783497963189      0.75530278733093     -0.91821497149246
  H   1.73441827165499      1.68955182300261     -0.36301785493057
  H   1.15896240324803      0.95112041304900     -1.87294916352698
  H   2.65253537474763      0.38201035563651     -1.12390626265017
