13
Coordinates from ORCA-job run
  C   -0.68038913072158      0.19710124320671     -0.29042031421770
  C   0.54768268047858     -0.08305857241795      0.30489560050119
  C   -1.64560810427228      0.94620639940140      0.42554543332516
  N   -2.35935868324265      1.57931182093258      1.11588177412346
  N   -1.07660022962507     -0.30208980543491     -1.57270092314762
  O   -0.24332993919812     -0.91376378291065     -2.26003780931456
  O   -2.23217808334137     -0.08299192082462     -1.92894821306580
  N   0.75736708623694      0.24514098453667      1.61354283715324
  H   1.69762399981116      0.51225914788975      1.85859943640964
  H   0.03661025793021      0.78568154824142      2.06725709212688
  N   1.58643156474230     -0.66620984559228     -0.33049597545782
  H   1.37362117835033     -1.03596300991833     -1.24682589709601
  H   2.23712740285154     -1.18062420710980      0.24070695865993
