13
Coordinates from ORCA-job run
  C   -0.67054806068202      0.21138802054297     -0.30573234097038
  C   0.53822226867145     -0.09705646501763      0.31556324555911
  C   -1.62047705775156      1.00258327830045      0.38446979238942
  N   -2.32067055198871      1.67068642000220      1.05567446639269
  N   -1.05939101941138     -0.28849459066281     -1.58897654756594
  O   -2.18925015012792     -0.00894894688780     -1.98324048470901
  O   -0.24530449508293     -0.96363935400101     -2.23908869344643
  N   0.73643441331000      0.24820824747278      1.62153886282560
  H   1.68217834817357      0.48157626116564      1.87887870143493
  H   0.02965877166933      0.82384205840744      2.05318162188793
  N   1.56854730343864     -0.72377578060977     -0.29175993499411
  H   2.19431230611021     -1.24563485800004      0.30028358841834
  H   1.35528792367132     -1.11073429071242     -1.20079227722215
