13
Coordinates from ORCA-job run
  C   -0.70987927300488      0.14794598187352     -0.24632710228603
  C   0.59468768788874     -0.01908077157326      0.21381065561521
  C   -1.10435854724568      1.39950447836119     -0.77879368601770
  N   -1.31313598158811      2.48261894439148     -1.19134878246833
  N   -1.67652831936697     -0.90699567036383     -0.30068252303189
  O   -2.75254217618533     -0.65706285864272     -0.83917507638532
  O   -1.39159346597111     -2.00569963724300      0.20215653961880
  N   1.51223869347874      0.97466603913369      0.02633275474287
  H   2.21100117884775      1.07454378703372      0.74558490684055
  H   1.16723686781686      1.84657360458801     -0.34538410201186
  N   1.03900029231318     -1.11820031493651      0.85893316885116
  H   2.02375847252456     -1.31847762344914      0.79294282255040
  H   0.40011457049224     -1.90133595917315      0.86295042398215
