13
Coordinates from ORCA-job run
  C   -0.67205108482887      0.16415788971088     -0.32760971335185
  C   0.57708760422448     -0.03764384628076      0.25617128420913
  C   -0.89981650994973      1.33209572166074     -1.09530564083364
  N   -0.96457586435229      2.33903071718847     -1.70265230625723
  N   -1.74653510814318     -0.77970092376860     -0.25892970402174
  O   -1.60787553179981     -1.79475280000268      0.44221214878519
  O   -2.76342812658473     -0.52143540076870     -0.89926727954748
  N   1.60612160896888      0.81203077411748     -0.03377134078470
  H   2.26872446262986      0.97560154953033      0.70760407615648
  H   1.37995288039858      1.62812193272934     -0.58142690270188
  N   0.86161666361621     -1.03693123817988      1.11769252956294
  H   0.14261612764328     -1.74128081367491      1.21037718466090
  H   1.82116287817731     -1.33829356226173      1.16690566412389
