13
Coordinates from ORCA-job run
  C   -0.71049264219963      0.09056997647547     -0.27040645450304
  C   0.56065527404802     -0.00090526960632      0.29217988521359
  C   -1.76998618073792      0.64166571163578      0.49059547228268
  N   -2.56250860930040      1.12068252248482      1.21821373667461
  N   -1.04780316465608     -0.42333703830388     -1.56387561048542
  O   -2.23242607346662     -0.39329938587328     -1.88936544730487
  O   -0.13955014609999     -0.85723551173151     -2.29026020373880
  N   0.74363737525463      0.31177121494422      1.60858087412476
  H   -0.04629115310431      0.70652779301167      2.09613852905739
  H   1.63194646030425      0.72332124197460      1.84717211010382
  N   1.66659246665467     -0.37940705582736     -0.38290800364484
  H   2.40777668591243     -0.79670304560143      0.15627957473630
  H   1.49944970739095     -0.74465115358278     -1.31034446251618
