13
Coordinates from ORCA-job run
  C   -0.66958940135582      0.09589660529741     -0.37758358814544
  C   0.56584899481795      0.01221185008907      0.26601075631138
  C   -0.95042180096919      1.19723579403267     -1.21946947450634
  N   -1.07836933062499      2.15721834464684     -1.88897743458537
  N   -1.73585292646227     -0.83393420835493     -0.16707947532427
  O   -1.53708419740886     -1.81454658030007      0.57059795979616
  O   -2.80048384410509     -0.61261537690171     -0.74018535195779
  N   1.48375699027477      1.01189736014538      0.09528428451392
  H   1.27627438160350      1.70677756126164     -0.60725472220523
  H   2.45556752814043      0.75556318725566      0.15875927326140
  N   0.92268996781983     -0.98947907482328      1.07898837954283
  H   0.30409748407020     -1.76967847143959      1.20773305272513
  H   1.76356615419956     -0.91554699090908      1.62317634057361
