13
Coordinates from ORCA-job run
  C   -0.73697423366841      0.14291480645114     -0.18819759287259
  C   0.61261098238072      0.00836587024119      0.15108199407157
  C   -1.16200828475946      1.27606775777615     -0.92426003159496
  N   -1.39936754793340      2.13605538449430     -1.69079471191759
  N   -1.71894839065679     -0.90419623837143     -0.09422647511543
  O   -2.86516718300909     -0.67655355962295     -0.45451883706273
  O   -1.32187067056771     -2.01484528676780      0.30068418820281
  N   1.44729522015210      1.08248367228527     -0.03115113415707
  H   1.10107743936067      2.01307459809642      0.09054941134905
  H   2.42877942986111      0.94492117336488      0.16838488916181
  N   1.16477143698360     -1.12867021903541      0.61186158999704
  H   1.97000507673910     -1.02912152742171      1.22997551744944
  H   0.47979672511754     -1.85049643149004      0.82961119248866
