13
Coordinates from ORCA-job run
  C   -0.70076441963111      0.09583992465381     -0.29913428187939
  C   0.57895921153149      0.02052152611749      0.24985176902490
  C   -1.17645428634823      1.34200765690491     -0.77427481794129
  N   -1.45183024902769      2.43747594872014     -1.10843360265777
  N   -1.55687210063861     -1.03443572701620     -0.48458292174256
  O   -1.20720073153322     -2.13284441674352     -0.02231434285345
  O   -2.60951670595160     -0.84981088220799     -1.09155821253611
  N   1.40473946786828      1.10442720446092      0.19344773424911
  H   1.00562410116164      1.96448343416986     -0.14949009218952
  H   2.05347929624358      1.21533247597718      0.95621020707649
  N   1.07391128238171     -1.07453614871109      0.86144624296107
  H   2.07383768671970     -1.17840086089249      0.89310056822659
  H   0.51208744722407     -1.91006013543302      0.77473175026192
