13
Coordinates from ORCA-job run
  C   -0.67551072109607      0.12522721193000     -0.33943735430670
  C   0.57069364178996      0.00291555073227      0.27207976370996
  C   -0.93846750932289      1.24331425252705     -1.16730736851863
  N   -1.03904155132837      2.21503850009009     -1.82504914218391
  N   -1.69809670044617     -0.87526403336027     -0.26640222296308
  O   -1.53232461716541     -1.84610813553639      0.48937977920014
  O   -2.70192726226754     -0.70427277894543     -0.95479061772127
  N   1.56539440307292      0.88684461258981     -0.03121180699887
  H   2.20619508129573      1.11008937275790      0.71348762614954
  H   1.31991325753279      1.66557624777145     -0.62304387944845
  N   0.88167192296870     -0.94431938396262      1.18264897798261
  H   0.19125130809465     -1.67428390010984      1.29331905282704
  H   1.85124874687170     -1.20575751648400      1.25532719227161
