13
Coordinates from ORCA-job run
  C   -0.67080356216030      0.15272729661314     -0.33568951176970
  C   0.56474952534880     -0.02289769660255      0.28378612638419
  C   -0.96264828822362      1.38618940719256     -0.96722634889512
  N   -1.08805450983603      2.45239942544473     -1.45141281903437
  N   -1.65734654415115     -0.87842349103302     -0.45347999605660
  O   -2.65698415894485     -0.62666061767294     -1.12235282223472
  O   -1.46460266023009     -1.96020530044860      0.12425476175861
  N   1.52795764692159      0.93641045181779      0.15882287338095
  H   1.25719017233943      1.79683754060211     -0.29277367314116
  H   2.14323002923802      1.05348661635893      0.94821624439955
  N   0.89574809791257     -1.09818155666331      1.02972444895311
  H   1.87482403971461     -1.32797005847233      1.08720049361005
  H   0.23674021207104     -1.86371201713652      0.99193022264519
