13
Coordinates from ORCA-job run
  C   -0.68927443733700      0.12322300564915     -0.30948871033531
  C   0.55070211409410     -0.01543791917938      0.31048992782041
  C   -1.69358251960853      0.90477400634619      0.31177784938606
  N   -2.44067172636953      1.58064108406717      0.92171905944061
  N   -1.05642602717756     -0.55166967234144     -1.51789351113794
  O   -2.21890766196954     -0.43205869012709     -1.89789685421911
  O   -0.19403919868351     -1.20935826929456     -2.12199571257429
  N   1.61962528693938     -0.61791047910868     -0.25241392654233
  H   2.29777144658644     -1.01977655206417      0.37473356059938
  H   1.42750455057507     -1.11206181412961     -1.11302691788163
  N   0.73994524776124      0.48415785855287      1.56679519156918
  H   1.66483770058565      0.82589185107670      1.77441208559512
  H   -0.00848477539619      1.03958559055285      1.95278795827985
