13
Coordinates from ORCA-job run
  C   -0.71731982947796      0.11477103965218     -0.27486293316759
  C   0.56285828831848      0.01486913035458      0.27631265810159
  C   -1.76503011131485      0.66211838705160      0.50353449490305
  N   -2.54160816201485      1.13663422705241      1.25203089556313
  N   -1.07592062185776     -0.43847759255646     -1.54258034169692
  O   -2.26970109954194     -0.45429301169155     -1.83449452938090
  O   -0.17716013198491     -0.87019864638923     -2.28462611145276
  N   0.75452924927656      0.34022129802657      1.57972091456979
  H   -0.02017062256386      0.70772036945449      2.10757172799684
  H   1.67502157866024      0.60522781554769      1.88148753466982
  N   1.65387190749782     -0.36949700875165     -0.41551907361765
  H   2.43556189904633     -0.73196556224798      0.10181870743769
  H   1.48406765595670     -0.71613044550265     -1.34939394392608
