13
Coordinates from ORCA-job run
  C   -0.67713486192457      0.17368286663547     -0.31222960853013
  C   0.57721344508430     -0.03960265768665      0.25506655889797
  C   -0.91075932506574      1.35386383185548     -1.05920953549179
  N   -0.98610394149398      2.37303042075540     -1.64453295281089
  N   -1.74132604122142     -0.78384095297118     -0.27369812197738
  O   -1.59842132227516     -1.80975537041065      0.41032086052565
  O   -2.75408856036770     -0.52508325119144     -0.91984429188170
  N   1.60167173367341      0.82107385533959     -0.01928246526897
  H   1.36717492227260      1.65140016229388     -0.54189233887063
  H   2.26406793703990      0.97061762669850      0.72544581710642
  N   0.87111289577532     -1.05849567968195      1.08994089797760
  H   0.15478851837522     -1.76692279967707      1.17059173799972
  H   1.83180460012783     -1.35896805195936      1.12132344232411
