13
Coordinates from ORCA-job run
  C   -0.73956325236769     -0.02186486204205     -0.19627540191202
  C   0.57656242560082      0.01785148603843      0.25944661387626
  C   -1.78696548855057      0.37893322931120      0.66835442252904
  N   -2.56605588945806      0.72983485495662      1.47873323534383
  N   -1.10970653408110     -0.37271439082850     -1.53412887194679
  O   -0.23042956237718     -0.77786154327897     -2.31134630505389
  O   -2.29514107396877     -0.25976667726695     -1.83790215032335
  N   1.63356289962241     -0.46977001494703     -0.42417627867554
  H   1.43722581592531     -0.73857719488608     -1.37843016104170
  H   2.53060873899940     -0.05484933929888     -0.23078525869367
  N   0.85594520317112      0.57148638033818      1.47567366718390
  H   0.06774212637050      0.83230121236384      2.04834368591240
  H   1.62621459111381      0.16499685954018      1.98249280280154
