13
Coordinates from ORCA-job run
  C   -0.73792979231870     -0.01079607958215     -0.16385189458422
  C   0.58621364840091      0.09036867124069      0.22584574862020
  C   -1.78611332603414      0.48956971619962      0.65705456383618
  N   -2.59042251271984      0.84896491034492      1.43706982735226
  N   -1.12168286132171     -0.62282239375400     -1.41981489731155
  O   -0.35999452558018     -0.50642645113609     -2.38962243540773
  O   -2.18126886130664     -1.24251716647033     -1.43402094627592
  N   1.61496184046956     -0.42709443417856     -0.45982769763320
  H   2.51030827574200      0.00764237178324     -0.34907726038736
  H   1.43948809103839     -0.85534544490220     -1.34896049176145
  N   0.93904481601409      0.74465137150123      1.38268014341414
  H   0.19924159621570      1.27146901671881      1.82006435085132
  H   1.48815361140054      0.21233591223483      2.04346098928733
