13
Coordinates from ORCA-job run
  C   -0.67948148716166      0.19690325613326     -0.29398203069011
  C   0.54614606047066     -0.08218140196666      0.30737747256375
  C   -1.64908509674092      0.94406543166003      0.41817313294370
  N   -2.36689463618952      1.57554442230999      1.10584121021029
  N   -1.06986894255753     -0.30455276867643     -1.57705763524394
  O   -0.23586832054886     -0.92481169687643     -2.25596355181580
  O   -2.22141906190080     -0.07946329992527     -1.94249144742214
  N   1.58706972356275     -0.66643385968110     -0.32254580703513
  H   1.37922584604851     -1.04083250881420     -1.23803459124540
  H   2.24165579015018     -1.17253753440476      0.25158943495907
  N   0.74997983470477      0.24854400158623      1.61651501278963
  H   1.68942927631704      0.51512462260736      1.86535325195769
  H   0.02811101384538      0.79163133604797      2.06522554802840
