13
Coordinates from ORCA-job run
  C   -0.72665440289306      0.13322176952312     -0.20087369979743
  C   0.58323866555298     -0.04140513765236      0.24091244218083
  C   -1.68589693240776      0.69937968214108      0.67361703719295
  N   -2.38684375470529      1.18313242075799      1.48701425930691
  N   -1.20072221952603     -0.30008267158888     -1.48049953537172
  O   -2.40399228990610     -0.18575249619677     -1.70269936731529
  O   -0.38495254729816     -0.75510569513589     -2.29820684719049
  N   0.89607209131882      0.20364612025903      1.54709163419996
  H   0.17479186015224      0.61825760696901      2.11724525268187
  H   1.82321067974857      0.55772202212406      1.72229564529359
  N   1.60450496283608     -0.44129651278825     -0.54582749057527
  H   1.33620457966953     -0.76088515597204     -1.46648742970945
  H   2.37203930745820     -0.91083195244010     -0.09358190089644
