13
Coordinates from ORCA-job run
  C   -0.72018259382041      0.18982514456010     -0.16830134003746
  C   0.62107556253141     -0.06339268935007      0.10984875958065
  C   -1.09854260001483      1.44944351208831     -0.69226994963742
  N   -1.31356316830407      2.53297518285157     -1.10045465834632
  N   -1.76499134653602     -0.77477442648080     -0.00134761231397
  O   -2.88922748783664     -0.45953373034033     -0.38359380109344
  O   -1.49411645485777     -1.86287522509353      0.53203100175269
  N   1.57341567691463      0.84335589018682     -0.25667161661736
  H   1.24304597662716      1.72417965026268     -0.62012528963171
  H   2.37311937496650      0.91453250774287      0.35157515326589
  N   1.06988514701237     -1.16524086876195      0.74367565682594
  H   0.37941258385512     -1.88358566320701      0.91435661789620
  H   2.02066932946255     -1.44490928445868      0.57127707835631
