13
Coordinates from ORCA-job run
  C   -0.68765361561132      0.13306257381532     -0.33374739763751
  C   0.61373656704401     -0.05949918639420      0.15106994489836
  C   -1.03583205355965      1.38394169152515     -0.89186947087885
  N   -1.19949089738345      2.46560377632182     -1.32918586263907
  N   -1.73204934516629     -0.82463439692919     -0.19256978546915
  O   -2.83483140175316     -0.53299160401412     -0.65231505274910
  O   -1.48745074752231     -1.89968067769532      0.38339344919715
  N   1.01289922351040     -1.17422995698006      0.77070883772451
  H   1.96275476007922     -1.28881011030881      1.07363513006777
  H   0.30780886161517     -1.85994985809122      0.99416120721683
  N   1.55953095781457      0.89629044417779     -0.09389157327426
  H   2.30790048042686      0.98772249290326      0.57462769650205
  H   1.21167721050595      1.77217481166958     -0.45501712295873
