13
Coordinates from ORCA-job run
  C   -0.71717284906112      0.07002903665216     -0.28280964608912
  C   0.56674298743673      0.05537510758691      0.27266694702313
  C   -1.19003636393244      1.24848158945839     -0.90622651669253
  N   -1.46288416052279      2.29141764368685     -1.38247488705662
  N   -1.56448497531749     -1.07963460639112     -0.34459311968785
  O   -2.66215711169766     -0.93605807755013     -0.88048318278184
  O   -1.17411016604434     -2.14759318440218      0.15298055868998
  N   1.26478503939730      1.22496727453717      0.37532976765417
  H   2.26997494801882      1.16675410086900      0.32724213914898
  H   0.87684229362174      2.00538836038326     -0.13308704433536
  N   1.14782107400876     -1.04040193861893      0.77422932749918
  H   0.62666085545751     -1.90295060586147      0.75568476039288
  H   2.01801842863499     -0.95677470034990      1.27154089623500
