13
Coordinates from ORCA-job run
  C   -0.68943349227767      0.11817353459288     -0.31138724458696
  C   0.59614060697826     -0.00907145827245      0.21069763860939
  C   -1.14104662767280      1.38820446984892     -0.74568451025247
  N   -1.39652779081605      2.48960823798772     -1.07516637237034
  N   -1.63765469915139     -0.95341722076327     -0.36530644504214
  O   -2.77500336850774     -0.67953617148234     -0.74152144242979
  O   -1.26973375673091     -2.09455584540807     -0.04335802465110
  N   1.17578276570828     -1.18646252417483      0.52592287663259
  H   1.89159995360860     -1.16719732777553      1.23410494686179
  H   0.55973164944205     -1.98746592354470      0.50338701857016
  N   1.35420117826882      1.10608629174653      0.42444166165158
  H   0.98254497843672      1.97950522372477      0.08339502385807
  H   2.34839860271386      0.99812871352036      0.30047487314920
