13
Coordinates from ORCA-job run
  C   -0.69700343927305      0.12462338312165     -0.29141862251264
  C   0.60452621040668     -0.02083064672844      0.18440838235488
  C   -1.10909910194329      1.37241686623631     -0.81933048717470
  N   -1.32982450400893      2.45095203366042     -1.23766409662281
  N   -1.69575197351936     -0.89777391682316     -0.20541706455593
  O   -2.83570636172157     -0.60139094092194     -0.55617366282900
  O   -1.36633839817559     -2.02317350721516      0.20228229768056
  N   1.14283934575421     -1.19326610243746      0.58109010287690
  H   0.48949727691902     -1.96050150973896      0.65898863390993
  H   1.89156193834115     -1.14701462810397      1.25297529925531
  N   1.42336679190948      1.06893125221589      0.26241924736104
  H   2.40436743269406      0.89921384568473      0.10661387865900
  H   1.07756478261719      1.92681387105010     -0.13977390840254
