13
Coordinates from ORCA-job run
  C   -0.73281377741128      0.05801302595443     -0.21462601546218
  C   0.56767609147069     -0.05077528346805      0.27385149208453
  C   -1.76170685946046      0.51567561829800      0.64400687533827
  N   -2.52698661594391      0.89994612797706      1.45249004588668
  N   -1.09474026428882     -0.18509932109720     -1.57831253679495
  O   -2.25403627803983      0.05949851791357     -1.90478110570210
  O   -0.23625235657172     -0.63511571391032     -2.35398374083426
  N   1.59381964163462     -0.59885244757101     -0.41033116348031
  H   1.40206816760900     -0.80031132657265     -1.38207031066512
  H   2.52052338938039     -0.28546326973183     -0.17142996666108
  N   0.86235951495081      0.40939590226663      1.52516818313415
  H   1.57530894238965     -0.09584485846648      2.02701273745912
  H   0.08478040428084      0.70993302840784      2.09300550569725
