13
Coordinates from ORCA-job run
  C   -0.69886656534721      0.13535265076672     -0.28274636298275
  C   0.60583547994323     -0.03065255177643      0.17766201893885
  C   -1.09121102690728      1.38417433054445     -0.82277256463495
  N   -1.29352508171394      2.46107927823432     -1.25436728623768
  N   -1.71673067923883     -0.86519106335506     -0.17103706322652
  O   -2.85607745130965     -0.54865978891238     -0.50624606432841
  O   -1.40360763481549     -1.99323834396195      0.24245892608874
  N   1.12658761525936     -1.20895082418324      0.57925231066673
  H   0.46042032326994     -1.96335897727040      0.67210628763846
  H   1.88649533427380     -1.17257822299438      1.23869007023232
  N   1.44649630540624      1.04406966525535      0.23403051691744
  H   1.11161587152263      1.90346706015483     -0.17444062711560
  H   2.42156750965722      0.85348678749817      0.06540983804338
