13
Coordinates from ORCA-job run
  C   -0.66526348182183      0.20557667177517     -0.34833589108308
  C   0.53585411646203     -0.03333151163291      0.33228619228156
  C   -1.74757505772132      0.78778560426020      0.35123854877941
  N   -2.56878261864681      1.27557819843969      1.04063670221652
  N   -0.90789980990313     -0.19766519400230     -1.69447769893672
  O   -0.00372738008322     -0.78207743369407     -2.31756850837075
  O   -2.00984025684361      0.06226243648386     -2.17335614846819
  N   1.61518709098042     -0.58565459111650     -0.24273443941831
  H   1.48319106252999     -0.98500362142235     -1.16068349686383
  H   2.40018641863183     -0.86714573841980      0.31841101159976
  N   0.66306872606700      0.41204463967996      1.61120395143433
  H   1.38252360202072      0.01487896860090      2.19179698279778
  H   -0.17692241167208      0.69275157104816      2.09158279403152
