13
Coordinates from ORCA-job run
  C   -0.73141373386084     -0.02361562556053     -0.24038720218443
  C   0.56500185672180      0.02819973694427      0.27920816069756
  C   -1.80389000833868      0.56380876104290      0.48420134260832
  N   -2.64108670856019      1.02709227770993      1.17340398858576
  N   -1.05463865573647     -0.59204021709553     -1.50852865793372
  O   -0.12422082862463     -0.98984250037601     -2.22661123802883
  O   -2.23741050738866     -0.62649098087774     -1.83757653401093
  N   0.75062295048045      0.52711746649296      1.53689039388126
  H   1.63561782171172      0.94956008560186      1.78293902924682
  H   -0.05283793785469      0.94027606557164      1.99318540938283
  N   1.65713086688545     -0.41653147839410     -0.35038429208409
  H   1.53102027376658     -0.84662024299566     -1.25485633863153
  H   2.50710461079817     -0.54091334806398      0.16751593847097
