13
Coordinates from ORCA-job run
  C   -0.74571063775614     -0.08690651602401     -0.15205297415394
  C   0.58478607212567      0.07227906302160      0.22728699633897
  C   -1.77291557108286      0.38907261571518      0.69953930678318
  N   -2.53533535634967      0.82144179700532      1.48598388601341
  N   -1.15498093395390     -0.61544642774074     -1.41764972832610
  O   -0.29000241781818     -1.07733878341713     -2.17931307969492
  O   -2.35597881641407     -0.59052101580114     -1.67787495453177
  N   1.63570935819393     -0.44279470780122     -0.44498256209668
  H   1.41920061316386     -0.83441210481322     -1.35065805188601
  H   2.51604096512831      0.03599796450787     -0.34522703058526
  N   0.88801243075849      0.78553058443620      1.35243572941694
  H   1.69709170931961      0.47828856535672      1.86902374900617
  H   0.11208258468494      1.06480896555457      1.93348871371601
