13
Coordinates from ORCA-job run
  C   -0.70260975808541      0.14953895442295     -0.26461460327019
  C   0.56335893109884     -0.04027583567307      0.28514408361629
  C   -1.71106925703733      0.77815284495824      0.50542336890709
  N   -2.46724774900494      1.31224853663405      1.23363797696787
  N   -1.09571325508730     -0.35548306620137     -1.54590261300502
  O   -0.22820337589069     -0.84815628957303     -2.28511841620440
  O   -2.28277160438627     -0.26109395145242     -1.84847805319008
  N   0.78617548370547      0.26399274062197      1.59896181169858
  H   0.03392781756342      0.72333758723475      2.08970108195760
  H   1.70290258523859      0.62273749974107      1.81632545659087
  N   1.62682280877365     -0.51339717731693     -0.39646464524807
  H   1.42863971041385     -0.85939738883624     -1.32505062761798
  H   2.34578766269811     -0.97120445455997      0.13843517879744
