13
Coordinates from ORCA-job run
  C   -0.68226130341144      0.11282301655000     -0.32822924795602
  C   0.57436794723503      0.00868388109115      0.26440853263065
  C   -1.01589520878300      1.28434541821351     -1.05064911015112
  N   -1.17710410328967      2.30480866069577     -1.61601771005427
  N   -1.65539389216238     -0.93782274992565     -0.32384124421066
  O   -2.67848238676246     -0.75969855853811     -0.98102785532765
  O   -1.42858978528386     -1.96069561547457      0.34197260897396
  N   0.94627230530963     -0.99361753303293      1.08835820458302
  H   1.93012821615632     -1.20328970858842      1.13603922206910
  H   0.29942115341459     -1.76850213907433      1.14031350564533
  N   1.51761106359840      0.96725224040505      0.02762602555369
  H   1.21761397182365      1.78048328616174     -0.48813363065521
  H   2.15031202215520      1.16322980151678      0.78718069889917
