13
Coordinates from ORCA-job run
  C   -0.67923102273675      0.10737908229585     -0.33648075625387
  C   0.58982627740892     -0.00270820836490      0.22807895362747
  C   -1.10443916952688      1.35504405484090     -0.85415408964562
  N   -1.34054648732861      2.43679886420638     -1.25528972663997
  N   -1.63684518462000     -0.95708872918427     -0.35805312767978
  O   -2.75992659895643     -0.69470006665516     -0.78244808872038
  O   -1.29028182626840     -2.08182549533170      0.03679081146762
  N   1.14776074353874     -1.16585928972034      0.62489174267800
  H   1.84337391775626     -1.11377350394397      1.35127390218768
  H   0.52385522637995     -1.96102748910585      0.62900229338494
  N   1.35356990814415      1.11582275995370      0.40235232361613
  H   1.00149925038402      1.97218664647822      0.00223906477050
  H   2.34938496582503      0.99075137453115      0.31179669720728
