13
Coordinates from ORCA-job run
  C   -0.71791163806396      0.06018413019006     -0.26803140634775
  C   0.55531132306638      0.00813979523415      0.29492957023303
  C   -1.79992601803248      0.54951634438217      0.50512550404713
  N   -2.60696545999375      0.97052199115208      1.25254302240798
  N   -1.02921950682787     -0.42295487005302     -1.57850168324495
  O   -2.21249389330248     -0.42493206854529     -1.91149878527882
  O   -0.10350835481334     -0.81483738697969     -2.30724478070052
  N   0.72638087125979      0.29324774264292      1.61954616310394
  H   -0.07305676804260      0.66741841144423      2.10732521520261
  H   1.60269491922448      0.72676426643465      1.86192148769644
  N   1.67532803114600     -0.29913128321462     -0.39003209026389
  H   2.44751732998170     -0.66620692442190      0.13998850892813
  H   1.53484916439816     -0.64773014826574     -1.32707072578333
