13
Coordinates from ORCA-job run
  C   -0.74703206135925      0.00561318484504     -0.20522177859341
  C   0.57539065891772      0.08660644180616      0.23377298073064
  C   -1.79825301443491      0.39665788388244      0.66150243363959
  N   -2.57546657406826      0.70652891880602      1.49015299214735
  N   -1.12354707159266     -0.44629282702309     -1.50881211289039
  O   -0.24343298819669     -0.90787761553202     -2.25648422283592
  O   -2.31277418187677     -0.39150415150476     -1.81357620621052
  N   1.62404340325276     -0.36752727927351     -0.46896894450416
  H   2.56595487753080     -0.22281820724318     -0.14650566156891
  H   1.43790824180985     -0.77262087444165     -1.37655270385176
  N   0.85299009160841      0.65680116120123      1.44212451054515
  H   1.68348793666667      0.35681690802269      1.92934772088520
  H   0.06173068174233      0.90061645645462      2.02022099250716
