13
Coordinates from ORCA-job run
  C   -0.74258253844717      0.01895604242648     -0.18921354415167
  C   0.58372146689234      0.03779916457327      0.23707978626105
  C   -1.77098696333731      0.35575677320998      0.72435085104083
  N   -2.53005704095602      0.65962519442636      1.57190422088369
  N   -1.15423543951440     -0.39009419916004     -1.49792844940146
  O   -0.28441020982618     -0.64445551413532     -2.34622289536396
  O   -2.36248489667258     -0.45692583117528     -1.71255635845511
  N   0.86878725698085      0.24056752536872      1.55648272006950
  H   1.72774011801823      0.72735850574177      1.75625685922865
  H   0.09627896779721      0.47890261915216      2.15955375133362
  N   1.64711182447901     -0.12617054649745     -0.57747838685031
  H   1.42765079642007     -0.41786150780913     -1.51971829480423
  H   2.49146665816595     -0.48345822612153     -0.16151025979062
