13
Coordinates from ORCA-job run
  C   -0.68347113079716      0.11907018709876     -0.32349170744570
  C   0.59578622008444     -0.01981679190645      0.21092598659018
  C   -1.03810755420391      1.32730791613586     -0.97163027179393
  N   -1.20958318798454      2.37112815469838     -1.48919594716743
  N   -1.71119724903512     -0.87028694501699     -0.19999719593026
  O   -1.42821280389650     -1.96626111970826      0.30972061347775
  O   -2.82797517557649     -0.57668427430713     -0.62036970616651
  N   1.08843762464340     -1.17013735378909      0.71690967761239
  H   0.41122312960918     -1.91186496816010      0.83113724024468
  H   1.81081537202599     -1.08841699267476      1.41392112911213
  N   1.43972723148572      1.05316110874702      0.23563914408957
  H   2.42092997917992      0.84843175523433      0.13203798213317
  H   1.13162754446507      1.88436932364844     -0.24560694475604
