13
Coordinates from ORCA-job run
  C   -0.62691515861400      0.11673610445784     -0.42451758847261
  C   0.55449070378041     -0.02132546592993      0.30071787209212
  C   -0.82293065398627      1.27267039461384     -1.21886636433372
  N   -0.85859920238048      2.26889298151199     -1.84582385211155
  N   -1.70568671997122     -0.82333892586943     -0.37922673070886
  O   -2.73246382277238     -0.53008702297688     -0.98766959497883
  O   -1.55293858179690     -1.87880748505645      0.25616150095950
  N   0.91237794479745     -1.13677139347158      0.97061804555547
  H   0.19297810440487     -1.84197288206282      1.05064572183161
  H   1.53677096639731     -1.01584634475742      1.75121624997509
  N   1.44021201551786      1.01711317276586      0.35487132938144
  H   1.24716745241038      1.80730185206869     -0.24181795059898
  H   2.41453695221296      0.76643501470628      0.41269136140931
