13
Coordinates from ORCA-job run
  C   -0.61410979411850      0.06613581382939     -0.45225165684980
  C   0.54816820087423      0.02042675850950      0.31484026744147
  C   -0.88775291626442      1.21556955616457     -1.23276005563327
  N   -1.00148140818129      2.21784337325583     -1.84055244861191
  N   -1.61447853394316     -0.95840557037878     -0.44492101877082
  O   -2.64607869926598     -0.74178065870754     -1.07668689007620
  O   -1.39204661787380     -2.00739599829448      0.18073475694473
  N   0.97557511205098     -1.07096534295948      0.98405197230143
  H   1.55645103404046     -0.91273416743777      1.79134037264840
  H   0.31564531281263     -1.83550819727029      1.02330184437868
  N   1.33769800945153      1.12975820157961      0.41577427425190
  H   1.09715715081792      1.91399766565377     -0.17110150123781
  H   2.32725314959941      0.96305856605566      0.50723008321320
