13
Coordinates from ORCA-job run
  C   -0.66402198534921      0.10753640682530     -0.39375708427543
  C   0.59790374633472     -0.03005612772012      0.19737801408507
  C   -1.03056244877591      1.35645087162112     -0.94786337088234
  N   -1.20821755571082      2.44199327535869     -1.36957345124041
  N   -1.66250531187367     -0.90982542406342     -0.38067019945867
  O   -1.39631541997703     -2.00596248206248      0.14294583585234
  O   -2.74584017394815     -0.64553705274663     -0.89854550747342
  N   1.04296190636363     -1.17689152923929      0.73692680813210
  H   0.35515333672518     -1.90574727722814      0.86540369179751
  H   1.87639051569348     -1.17600892446711      1.29843492032108
  N   1.47276686569218      1.00896809585577      0.12506043367660
  H   1.10650450348132      1.91149690607967     -0.13298387386046
  H   2.25478202134426      1.02258326178666      0.75724378332603
