13
Coordinates from ORCA-job run
  C   -0.68646236543750      0.18407143798406     -0.31523237722213
  C   0.56192399224185     -0.01156315514686      0.28913103012041
  C   -1.68328342191829      0.90684145257256      0.38022924066897
  N   -2.42285006761382      1.52258767985832      1.05956545224509
  N   -1.06038051144325     -0.38642671635334     -1.56721597094336
  O   -2.20232117988830     -0.17243505116608     -1.96903816801666
  O   -0.22646639882843     -1.06872705595670     -2.18851773092834
  N   1.57100970405876     -0.67477654902962     -0.29559082121504
  H   2.39672544216130     -0.90635890542458      0.22673817784099
  H   1.34796405267251     -1.17184575872090     -1.14589659385465
  N   0.81342044466144      0.59091855920977      1.48352995443450
  H   0.02282648317496      0.94791048325283      1.99747064965274
  H   1.56989382615875      0.23980357892053      2.04582715721748
