13
Coordinates from ORCA-job run
  C   -0.74187570990534     -0.00376416250112     -0.18860556527041
  C   0.58129556408031      0.02315864143595      0.24755968972081
  C   -1.76638972166049      0.46592164546030      0.66885418743394
  N   -2.52419177501922      0.87406198014981      1.47258353511939
  N   -1.14286190735813     -0.43053441673443     -1.49478652163084
  O   -0.28473927718751     -0.89550108693587     -2.26207749546929
  O   -2.33296631415441     -0.32136367527517     -1.78193801587991
  N   1.61401915134146     -0.52954050975219     -0.42250338969388
  H   1.39940988476350     -0.84504097128245     -1.35837099862858
  H   2.52766985488687     -0.14034788363977     -0.25609632411577
  N   0.89302508622491      0.63248907639642      1.42930972670137
  H   1.65850116337202      0.23032589929426      1.94685659721733
  H   0.11910400061603      0.94013546338425      1.99821457449583
