13
Coordinates from ORCA-job run
  C   -0.70548782133013      0.09578586154255     -0.28330869251919
  C   0.53571566173910     -0.07360405486273      0.32693113927565
  C   -1.76544538876451      0.68367619985115      0.44899776135944
  N   -2.56561664885098      1.17482861723592      1.15986785230300
  N   -0.96587331921797     -0.21104494714308     -1.65730259525167
  O   -2.06663105840871      0.10198112370286     -2.10515973758130
  O   -0.08470073560703     -0.78181366136141     -2.32006661250051
  N   1.57110341638064     -0.73957626978071     -0.22640069046488
  H   2.49564690125258     -0.47790418360105      0.07513698271018
  H   1.44804566518207     -0.99211075757846     -1.19746432998690
  N   0.75647335029224      0.44677645010742      1.56958291791364
  H   1.38549069960506     -0.07126855536074      2.16257947730784
  H   -0.03872072227237      0.84427417724828      2.04560652743471
