13
Coordinates from ORCA-job run
  C   -0.66532121867419      0.14282503847513     -0.35094801365828
  C   0.58581423759806     -0.04350755824003      0.23379867551761
  C   -0.91480908119593      1.31991833273041     -1.09777316888106
  N   -0.99466168540380      2.32994576342784     -1.69794484349449
  N   -1.76055460520378     -0.76696204786110     -0.19834176591860
  O   -1.56929255623707     -1.83922326805286      0.39745530481060
  O   -2.84109674362482     -0.43185685461287     -0.67839260946820
  N   0.98181317612287     -1.18398544980521      0.83720522759666
  H   0.25306563081379     -1.87023802070966      0.97737249345611
  H   1.68935424473884     -1.10181091385393      1.54911413529348
  N   1.50130507609701      0.96923951378956      0.21140659499776
  H   1.26595459418318      1.78255602797259     -0.33662880015019
  H   2.46842893078585      0.69209943674012      0.15367676989858
