13
Coordinates from ORCA-job run
  C   -0.63777484824430      0.11504096406743     -0.40774456287713
  C   0.56684332784440     -0.01998565818482      0.27931741049168
  C   -0.89728247378259      1.30557679415170     -1.12942922015504
  N   -0.99406032540040      2.33435554910019     -1.69442131397638
  N   -1.68920163168441     -0.85657999074444     -0.37139241698723
  O   -1.48498755943760     -1.93774430246199      0.20324453552982
  O   -2.74477254541523     -0.56382946527897     -0.92838650373385
  N   0.97755979081645     -1.15714010325425      0.87994934527084
  H   0.28122303860792     -1.88742847193253      0.93694780667566
  H   1.61332752539754     -1.05819445145229      1.65464206291437
  N   1.42010506307549      1.04229593235259      0.36672125268783
  H   2.40319601164081      0.82181675370883      0.38664836341674
  H   1.18482462658193      1.85981644992854     -0.17509675925732
