13
Coordinates from ORCA-job run
  C   -0.67326758622054      0.20472021759059     -0.33340577382333
  C   0.54379118679032     -0.02873033111210      0.31595543405499
  C   -1.73467407641849      0.80399486310922      0.38531430314638
  N   -2.53542820802780      1.30462642925623      1.08938537317428
  N   -0.95784603381114     -0.22522402311336     -1.66235864282207
  O   -0.07123303003238     -0.81310749840755     -2.30590716769396
  O   -2.07996489651503      0.01271010663995     -2.10616426953851
  N   1.60117704948915     -0.60618098009568     -0.27242004463087
  H   1.45538600706505     -1.02380348757682     -1.17898919118606
  H   2.42801329598083     -0.81900574252738      0.25652495841073
  N   0.71724664190406      0.44567147910503      1.58267463123729
  H   1.41407026457402     -0.00216934028579      2.15337198115691
  H   -0.10827061477806      0.74649830741767      2.07701840851422
