13
Coordinates from ORCA-job run
  C   -0.66779820148345      0.10178968809254     -0.35994447907869
  C   0.58730512717145     -0.01058868308892      0.23473696477608
  C   -0.99653400171248      1.28158378980209     -1.07097888174559
  N   -1.14702054886636      2.30281022794658     -1.63777947270029
  N   -1.70188632418241     -0.88008439326371     -0.23105148868021
  O   -2.80052450412975     -0.60564541052948     -0.70857512665433
  O   -1.44153265251483     -1.95227687731991      0.33801408379062
  N   1.05668633923719     -1.13567512372008      0.81443341104169
  H   0.37481918815266     -1.87260524129078      0.93168825368613
  H   1.74901146337607     -1.02103194601632      1.53680785300614
  N   1.43021973641477      1.06351119093158      0.24685767204544
  H   1.14261062506130      1.87152339426292     -0.28384493011623
  H   2.41464375347586      0.85568938419348      0.19063614062923
