14

C	-0.44433	0.011134	-1.452885
C	0.0	0.0	0.0
Cl	-2.274794	0.389206	-1.505267
H	1.093812	0.0	0.0
H	0.013178	0.86357	-1.948588
N	-0.101674	-1.19339	-2.079353
H	-0.55086	-1.999016	-1.665033
H	-0.254981	-1.169915	-3.07619
C	-0.529097	-1.149743	0.713078
N	-0.929953	-2.136443	1.208622
N	-0.380391	1.276203	0.685888
O	-0.795891	1.214529	1.838447
O	-0.182569	2.302342	0.045148
Br	3.321754	0.0	0.0
