14

C	-0.526007	-0.087249	-1.436666
C	0.0	0.0	0.0
Cl	0.156767	1.179008	-2.48297
H	1.090304	0.0	0.0
H	-0.118716	-1.023622	-1.836138
N	-1.964848	0.030843	-1.451456
H	-2.373197	-0.651225	-0.820408
H	-2.312425	-0.140419	-2.387211
C	-0.476198	-1.177148	0.720831
N	-0.857885	-2.170434	1.219009
N	-0.516024	1.235233	0.677825
O	0.045766	2.284571	0.39248
O	-1.474467	1.112595	1.441585
Br	3.364245	0.0	0.0
