14

C	-0.436369	0.002796	-1.445872
C	0.0	0.0	0.0
Cl	-2.274284	0.254913	-1.522542
H	1.09378	0.0	0.0
H	-0.022876	0.884713	-1.931147
N	-0.00407	-1.173438	-2.096807
H	-0.451635	-2.002633	-1.72716
H	-0.133687	-1.124635	-3.09686
C	-0.507265	-1.146285	0.719926
N	-0.881535	-2.136823	1.23217
N	-0.333522	1.265026	0.700923
O	-1.094097	1.234549	1.672838
O	-0.094768	2.297026	0.041734
Br	2.906996	0.0	0.0
