14

C	-0.319686	-0.084339	-1.483048
C	0.0	0.0	0.0
Cl	-2.099046	-0.175466	-1.764907
H	1.094094	0.0	0.0
H	-0.017745	0.860506	-1.937513
N	0.32063	-1.265787	-1.98653
H	0.271547	-1.275135	-2.998488
H	1.299587	-1.244169	-1.699051
C	-0.523007	-1.11708	0.765386
N	-0.936414	-2.034265	1.37059
N	-0.442466	1.304019	0.585596
O	-0.286004	2.298446	-0.117189
O	-0.879527	1.302262	1.731462
Br	3.322597	0.0	0.0
