14

C	-0.483956	-0.020606	-1.449548
C	0.0	0.0	0.0
Cl	0.084003	1.543865	-2.217299
H	1.090543	0.0	0.0
H	0.104231	-0.786363	-1.956709
N	-1.868526	-0.275873	-1.597151
H	-2.409896	0.427503	-1.111763
H	-2.126856	-0.300609	-2.574233
C	-0.509562	-1.150136	0.737181
N	-0.916238	-2.079203	1.329264
N	-0.478308	1.241128	0.714986
O	0.344767	1.890351	1.34139
O	-1.680588	1.504184	0.624239
Br	3.391446	0.0	0.0
