14

C	-0.470874	0.043095	-1.452856
C	0.0	0.0	0.0
Cl	-0.093919	-1.590864	-2.202458
H	1.092033	0.0	0.0
H	-1.556289	0.116495	-1.506685
N	0.154427	1.144883	-2.065971
H	1.163105	1.093652	-1.963737
H	-0.102242	1.236793	-3.036876
C	-0.545533	-1.116479	0.756133
N	-0.985776	-2.004199	1.386214
N	-0.499737	1.279755	0.628565
O	0.324865	2.123764	0.945342
O	-1.721802	1.379901	0.744319
Br	3.390285	0.0	0.0
