17
Coordinates from ORCA-job run
  C   -0.72255243745498      0.23748992799897     -0.35072253236955
  C   0.50476025189261     -0.17056926245159      0.46340043148905
  F   -0.47418621964119      0.07643788691160     -1.70213389620690
  H   0.17563742153354     -0.43666593156986      1.46550337632996
  N   -1.85637293127617     -0.76902990702026     -0.08831743572465
  O   -2.91235071702683     -0.50901199121208     -0.65149899761390
  O   -1.63103424109629     -1.74421574555898      0.61955630934390
  N   -1.24396849025205      1.48861775327444     -0.00845871573298
  H   -0.59246897079879      2.22377866160969     -0.25034389408900
  H   -2.12949701807097      1.63505420991118     -0.47843771932575
  N   1.40513069815533      1.01419607981099      0.65441998804455
  O   1.95814605004396      1.10992238828470      1.74497668266405
  O   1.57693878818708      1.76321564651767     -0.30756566988360
  C   1.33337228156486     -1.27612235994133     -0.16760754013953
  H   0.72081430115578     -2.16630470916654     -0.30203591639160
  H   1.71934090870904     -0.95476734436187     -1.13432495769785
  H   2.16529032437506     -1.52402530303671      0.49359048730379
