17
Coordinates from ORCA-job run
  C   -0.72689350048267      0.58223850852047     -0.06891179510175
  C   0.67343990159923      0.17061173183349      0.39935061107611
  F   -0.70608536276022      1.85489688795454     -0.59417700970175
  H   0.82845015358239      0.68116887042871      1.35299916191523
  N   -1.15768708570650     -0.28812114564035     -1.25054205932609
  O   -2.17929041682150     -0.95676906533813     -1.14072797351470
  O   -0.42568033433857     -0.21768096636667     -2.22925100536361
  N   -1.64163839192517      0.40876854796280      0.97779071622474
  H   -2.59707651857283      0.37708470201028      0.64729610290780
  H   -1.52168818908188      1.13045957263511      1.67655629939819
  N   1.75228341817724      0.74646674132402     -0.48316095703653
  O   2.29536656653100      0.00497814436411     -1.29559151063906
  O   2.02056812637615      1.92936408044867     -0.28999724276081
  C   0.81639301053186     -1.32904130542134      0.54444753153528
  H   0.77611894664243     -1.81790267075929     -0.42786943577498
  H   1.77722723563518     -1.56959454398609      1.00043623032078
  H   0.01519244061385     -1.70592808997032      1.18035233584116
