17
Coordinates from ORCA-job run
  C   -0.69067370000208      0.62198562312604     -0.02063746697127
  C   0.66643619615205      0.08319822228240      0.42552446351603
  F   -0.53248377397651      1.97128366538565     -0.23729426807096
  H   0.88106772886438      0.57618803851311      1.37743408053193
  N   -1.16457044419747      0.04274775315462     -1.36001365826573
  O   -1.34830260306921     -1.16743768670897     -1.37186295770509
  O   -1.35492234022872      0.82751119898385     -2.27641441603412
  N   -1.68258688476464      0.31388574172180      0.92620502430877
  H   -2.59572295777710      0.63530855617304      0.62777953935778
  H   -1.45836973792603      0.72093297970500      1.82538333723824
  N   1.71817085278065      0.60299255426377     -0.50724410924197
  O   2.65430754211746      1.22102314570959     -0.00951539187223
  O   1.57358482324133      0.33128577750287     -1.69613031628864
  C   0.80684335865994     -1.42132818588807      0.54698211643077
  H   1.76867093219747     -1.64948418863139      1.01123110627687
  H   0.75469124964923     -1.89551741149035     -0.43031139031108
  H   0.00385975827926     -1.81657578380294      1.16788430710071
