17
Coordinates from ORCA-job run
  C   -0.64288163924272      0.37783401958179     -0.39973548128725
  C   0.53927299583867     -0.14997095548520      0.41039326649748
  F   -0.35825177621705      0.43481620607978     -1.71781558633009
  H   0.20066234336019     -0.33107038425825      1.43036515470314
  N   -1.73655808083956     -0.72825910163027     -0.26412926065089
  O   -2.17760726472459     -0.85737364822857      0.87520098551054
  O   -2.07190722333261     -1.35526041989410     -1.25869915526275
  N   -1.08878739724262      1.63178112230688      0.03294900502707
  H   -1.27156884532559      1.66172056549924      1.02592125840484
  H   -1.88345242833843      1.96017230453428     -0.50012449005477
  N   1.52814034186055      0.97366411525863      0.52261979817907
  O   1.49672479250247      1.62515604449669      1.56428223360911
  O   2.27261003559912      1.16632310880982     -0.43256747029766
  C   1.17866913485946     -1.37241606381205     -0.21179944141205
  H   2.04428838183093     -1.67744605188900      0.37792268911892
  H   1.50117284278350     -1.15772570113608     -1.22837995178406
  H   0.46947378662828     -2.20194516023360     -0.22840355397065
