17
Coordinates from ORCA-job run
  C   -0.70550227453428      0.41707914109236     -0.37945830324838
  C   0.52253242084640     -0.09576074219898      0.40680552256689
  F   -0.29104002470084      0.69805924880327     -1.63749402125267
  H   0.23938365566184     -0.16985361071314      1.45799912192183
  N   -1.65484483797360     -0.77715887952033     -0.45017107616037
  O   -1.79484521605813     -1.33857372393149     -1.52381333561618
  O   -2.16672258090276     -1.08384786011922      0.62391906568399
  N   -1.46518666564365      1.49649321728550      0.11982951617700
  H   -0.85977041330490      2.27667563166485      0.34486664663308
  H   -1.96927644111095      1.21300086398743      0.95025138644250
  N   1.53651365288978      1.01484995429902      0.34303031529188
  O   1.27477986182633      2.02118549758930      1.00502090341475
  O   2.52356416474737      0.86487038574563     -0.36709239810956
  C   1.09450041048630     -1.38955965186840     -0.12988240060285
  H   0.40148849614417     -2.20774186182650      0.07290338679049
  H   2.03845197277632     -1.61514080482597      0.36613610146680
  H   1.27297381885062     -1.32457680546333     -1.20185043139918
