17
Coordinates from ORCA-job run
  C   -0.70257088706071      0.34038044236951     -0.31574346363011
  C   0.53154370462855     -0.10057544854835      0.47573526643858
  F   -0.32587949405681      0.51224838334298     -1.62879578661500
  H   0.27080769432246     -0.12285977418032      1.53330141597862
  N   -1.69517733788041     -0.83437133120484     -0.33021387982133
  O   -2.26198804478947     -1.07930371192629     -1.38615234868764
  O   -1.86674941535952     -1.38894887629989      0.74790988077725
  N   -1.39013281251513      1.42607304948898      0.22794732484436
  H   -2.07038631621420      1.79874232360180     -0.42246518966151
  H   -0.76581334964937      2.14439908992485      0.56916737338283
  N   1.53803927663401      1.01749040050012      0.33205401954050
  O   1.30285901540532      2.04400407649433      0.97316686687403
  O   2.50143177502348      0.84577143212050     -0.40409335430498
  C   1.12109647240870     -1.40712159366071     -0.00993674610660
  H   1.28529052671839     -1.38519935741396     -1.08594849426546
  H   2.07821685514808     -1.58579518756793      0.47937202518585
  H   0.44941233723661     -2.22593391704080      0.24569509007062
