17
Coordinates from ORCA-job run
  C   -0.79299741589431      0.31281098790137      0.03863921796347
  C   0.67212283749892      0.07455920123608      0.39099127239200
  F   -1.50034065369139      0.29258444100324      1.24177533293339
  H   1.04095779337078      0.97444008652290      0.88408954227239
  N   -1.01712632611441      1.75711885277868     -0.43323662395433
  O   -0.46258138940638      2.62341562259489      0.22702979659839
  O   -1.79400228555890      1.92915930764863     -1.36420239996878
  N   -1.26583423385961     -0.55286241567861     -0.93690711842895
  H   -1.21984046749991     -1.52114456471749     -0.65415459177434
  H   -2.18100269661121     -0.29729558236226     -1.28029193069047
  N   1.41177287625953     -0.00404556945237     -0.91633399416263
  O   1.45099201808854      1.03577263299752     -1.56727835188274
  O   1.89221656365869     -1.08256561613484     -1.24797265097764
  C   0.89270337474124     -1.15795409434494      1.24101732417969
  H   1.95807981633773     -1.28608901077602      1.43189587680179
  H   0.53794494905780     -2.06471866730131      0.75138682605463
  H   0.37693523962295     -1.03318561191548      2.19255247264411
