17
Coordinates from ORCA-job run
  C   -0.69489134808029      0.34617016992953     -0.33602618440006
  C   0.57494554811754     -0.12819469165298      0.36680502232987
  F   -0.50274471047279      0.50156181987126     -1.66262879608423
  H   0.31874381752205     -0.39518698362913      1.39193385235337
  N   -1.68761492984003     -0.85265364822699     -0.20369256975457
  O   -2.04228455000124     -1.08262116536475      0.94984735629117
  O   -2.03696633667614     -1.44681673073219     -1.21349242119779
  N   -1.20947783610603      1.53220188206629      0.20050818782501
  H   -2.06113121548446      1.82210133014927     -0.26252841128299
  H   -1.33183368171277      1.48674366114419      1.20228206495845
  N   1.47748656050693      1.06508196978697      0.49026993934575
  O   1.46334793768033      1.64955136275682      1.57127880752891
  O   2.14050215541365      1.37397164536541     -0.49405551945440
  C   1.26752085498984     -1.25538463688427     -0.36805057527967
  H   2.19110004616838     -1.52066724896372      0.14840866946498
  H   1.50534672257997     -0.95611579262792     -1.38659731012193
  H   0.62695096539508     -2.13874294298778     -0.39426211252180
