17
Coordinates from ORCA-job run
  C   -0.83689647584923      0.18429824503842      0.27804089337423
  C   0.68236094282586      0.12695747539444      0.36944483490240
  F   -1.30804080414942      0.30592013157725      1.56191778327356
  H   1.00228657831159      0.95748049093915      0.99628959628422
  N   -1.25098718176965      1.55587707733923     -0.34537526510264
  O   -2.36197572703397      1.59580622829413     -0.86068172996450
  O   -0.46747059793387      2.49114859321954     -0.22130066842325
  N   -1.45030707086842     -0.90678977961988     -0.32885513829231
  H   -1.07745211435906     -1.04412002686555     -1.25921170170378
  H   -2.45297534204884     -0.77004540619618     -0.37125471342721
  N   1.31887903925422      0.38010704411005     -0.96120094772045
  O   2.44422993089597      0.86123680891788     -0.94352853615137
  O   0.69795465498300      0.04137680911223     -1.97040789424881
  C   1.17700229331504     -1.20349624046916      0.90848009826094
  H   0.69313508992170     -1.40273412200297      1.86490511815207
  H   2.25651842614790     -1.15694037680418      1.05851651962123
  H   0.93373835835720     -2.01608295198442      0.22422175116571
