17
Coordinates from ORCA-job run
  C   -0.68405714856720      0.68309929633589     -0.01984814099200
  C   0.70051837378354      0.22479138367114      0.43414710761001
  F   -0.65822777910759      2.01323533245580     -0.26151749560223
  H   0.96657909370874      0.90726850842373      1.24275929865276
  N   -1.03006964531841      0.02047898910993     -1.38325219682358
  O   -0.86122645560456      0.67275762179202     -2.40151508079318
  O   -1.45974093865565     -1.12765907950207     -1.29934720472892
  N   -1.66004083344153      0.41023299903303      0.96352223829933
  H   -1.91157772063455     -0.57012871105044      0.94896715825861
  H   -2.48569490113121      0.97009396428974      0.78210459161344
  N   1.68767626839462      0.51471829075348     -0.66104531455505
  O   1.77518836039739     -0.31714215675103     -1.56202596485314
  O   2.32678627349097      1.55936866436925     -0.57197699574547
  C   0.79755940363259     -1.22515127180403      0.85921255919155
  H   0.16503748271420     -1.39173498438481      1.73207501956249
  H   0.50338388400106     -1.89596508144775      0.05489625038233
  H   1.82690628233760     -1.45026376529387      1.14284417052306
