17
Coordinates from ORCA-job run
  C   -0.86984083020666      0.14501279412675      0.18426932725755
  C   0.62494734581406      0.08274246655364      0.47047109624190
  F   -1.50939010947315      0.10607093961811      1.39819555875321
  H   0.84214853844868      0.82996810385679      1.23170472613401
  N   -1.22389281167471      1.58112288989102     -0.31889754642550
  O   -0.49119201669426      2.49775230935648      0.03752176809058
  O   -2.24761383403942      1.67966230896632     -0.98481038790685
  N   -1.37509045985677     -0.86651191160181     -0.62662558683914
  H   -0.88533708456943     -0.88051777008343     -1.51182775164932
  H   -2.36712916603868     -0.73209579324841     -0.78090396524569
  N   1.42565834833476      0.50281121275122     -0.72201238717294
  O   0.94442292619125      0.30270984446574     -1.83882438355775
  O   2.53392830704583      0.97050429159559     -0.49585760191275
  C   1.07139122379302     -1.30238743129827      0.90311446962244
  H   0.47145747498789     -1.61974649647631      1.75632439026022
  H   0.93442125544362     -2.02500711239552      0.09892725398587
  H   2.12111089249400     -1.27109064607792      1.19823102036415
