17
Coordinates from ORCA-job run
  C   -0.74209240461062      0.22372101324847     -0.31649015795001
  C   0.52564533197774     -0.17329410774738      0.43941696958128
  F   -0.52840862499585      0.14446371452338     -1.68113013055765
  H   0.23911725688168     -0.50529935934352      1.43488351826100
  N   -1.82421125552935     -0.84302399926865     -0.07635020152053
  O   -2.90804160672478     -0.59908294376272     -0.59187025094018
  O   -1.53537586333577     -1.84418151297030      0.56957260114522
  N   -1.30381412982104      1.43191705420690      0.10663389959948
  H   -2.20920526984185      1.56412689691924     -0.32842233282369
  H   -0.69121879822816      2.20569407907465     -0.11577112335299
  N   1.38051502442845      1.03823175856400      0.66881507190986
  O   1.49205730669731      1.84317448692950     -0.25620917645967
  O   1.96096561651862      1.10102132163010      1.74745725943896
  C   1.38051312093648     -1.20599632905795     -0.27431014678307
  H   2.24132765132131     -1.45331540024922      0.34905391788807
  H   1.72414308461027     -0.81587789390867     -1.23163164258720
  H   0.80208355971560     -2.11327877878782     -0.44164807484886
