17
Coordinates from ORCA-job run
  C   -0.94575802204451      0.14401176549169      0.11282866525660
  C   0.55144492794231      0.20848069280718      0.47609371068480
  F   -1.59594608085334      0.09217127466770      1.30672438087828
  H   0.69818718531408      1.08891168120161      1.10352209458149
  N   -1.28658443376082      1.48972874911244     -0.53548404355563
  O   -1.25581121906271      1.52256792528090     -1.76111862361763
  O   -1.50231165765661      2.42013953959840      0.22673683140513
  N   -1.44294054979630     -0.86841810706164     -0.72530126053139
  H   -1.21692326424595     -1.78480185324873     -0.36350053494768
  H   -1.10621633401591     -0.76627873593250     -1.67254813437872
  N   1.33139462948483      0.47149483342799     -0.77518398345627
  O   1.78408364911510      1.60437344933380     -0.92359101179132
  O   1.44790666626075     -0.46290788234026     -1.56695863006029
  C   1.03959989965752     -1.05842893967442      1.14614722225016
  H   0.45280686023995     -1.24425926286726      2.04624963797680
  H   0.96257948469001     -1.91072268634509      0.47180484383735
  H   2.08648825873161     -0.94706244345178      1.43357883546833
