17
Coordinates from ORCA-job run
  C   -0.75552781653514      0.23706424387110     -0.27166400565576
  C   0.54437098432125     -0.19528210329459      0.40596446948989
  F   -0.59916664774430      0.23947228707003     -1.64646410735379
  H   0.30116836084666     -0.58828715890461      1.39069969087392
  N   -1.82253832309019     -0.84887727110492     -0.05016116351376
  O   -1.50430068030067     -1.88415440325064      0.52409485735158
  O   -2.92741081803090     -0.58157373675183     -0.50607627794406
  N   -1.30404839601877      1.41448962703314      0.24509949779230
  H   -0.70491863187734      2.20427889537761      0.04311974604583
  H   -2.22732658112363      1.56589289520234     -0.14372026006745
  N   1.40232981573972      1.00630158470728      0.67055877732193
  O   2.02392981164456      1.01247991140309      1.72791685028630
  O   1.47379928638394      1.86295242272445     -0.21100221271941
  C   1.37264339965359     -1.17923898917021     -0.40194946784719
  H   1.67213441625415     -0.73372234026344     -1.34982427899030
  H   0.79187642265509     -2.08004568529918     -0.59437392092614
  H   2.26098539722194     -1.45475017934961      0.16878180585606
