17
Coordinates from ORCA-job run
  C   -0.75503179053131      0.64682976525676     -0.18129897970901
  C   0.61875658874724      0.28016717543790      0.39933345195460
  F   -0.67378609465721      1.93927971478936     -0.58364677016817
  H   0.77687351879879      0.98072248343168      1.22348388786405
  N   -1.07115179644208     -0.19284341369994     -1.42018562270019
  O   -1.40588269881672     -1.35164933062857     -1.18800908348857
  O   -0.97018990929407      0.34298904792763     -2.50990205128598
  N   -1.86080461396461      0.49085172820518      0.68557838999456
  H   -2.13748515261373     -0.47730335640375      0.76611341845621
  H   -1.69166923630048      0.90424395507853      1.59267731646551
  N   1.68664378078151      0.62737593709414     -0.59628821876229
  O   1.75323622920258     -0.08758467891111     -1.59383947389929
  O   2.41047055470128      1.58388422754399     -0.33596294151306
  C   0.79340604452662     -1.15697202475701      0.84500592529218
  H   1.77667573401313     -1.27296167909114      1.30498378176705
  H   0.71161910893225     -1.84137612460069      0.00366335768322
  H   0.03831973291679     -1.41565342667296      1.58829361204920
