17
Coordinates from ORCA-job run
  C   -0.70037477493094      0.66615727280908     -0.03005193898008
  C   0.69213145406509      0.24492562761621      0.43475619428687
  F   -0.70175855088918      1.99371186046400     -0.28838745054167
  H   0.93773175548021      0.94081628748408      1.23835120457202
  N   -1.02835528081238     -0.02100122634053     -1.38549965376456
  O   -1.41818203783816     -1.18217100711618     -1.28757423530794
  O   -0.87522202762994      0.62227233967792     -2.41179461877201
  N   -1.67420223977920      0.38541125861476      0.95345727455205
  H   -1.90640471391030     -0.59981331633916      0.94976909839126
  H   -2.50993138399070      0.92699271379090      0.76293540236487
  N   1.67792979660502      0.55023886420074     -0.65791684377102
  O   2.30338164952896      1.60274450008104     -0.56453163374976
  O   1.77988816187799     -0.27920269442876     -1.55951594078393
  C   0.82392302563288     -1.19884903887896      0.87128233414769
  H   1.85515403423493     -1.39251974180199      1.17100651642068
  H   0.18399120507998     -1.37888158207816      1.73602106042245
  H   0.56029992727568     -1.88183211775499      0.06669323051307
