17
Coordinates from ORCA-job run
  C   -0.65778131538467      0.30202380050624     -0.43813015178430
  C   0.53983913332181     -0.08106487958016      0.42829333736609
  F   -0.35399520599098      0.26781589807344     -1.75260768483704
  H   0.19477247379587     -0.19876627408227      1.45535030123390
  N   -1.68318359363663     -0.85652059893298     -0.22441110192050
  O   -2.13592965207016     -0.91880717392443      0.91592879303189
  O   -1.96078106701072     -1.58359286377697     -1.16734848316836
  N   -1.18858012696753      1.55643458202249     -0.11717432324913
  H   -1.39101985961230      1.65672276524092      0.86732773198817
  H   -1.99204115939421      1.78892199945652     -0.68629733312371
  N   1.45490778237621      1.10829099819582      0.45938468165916
  O   1.36589108939116      1.83864237421542      1.44390247710264
  O   2.20176648351242      1.26951227409917     -0.49973572486365
  C   1.26564057742495     -1.30754793860968     -0.08129885365416
  H   1.59086277481619     -1.15824780074446     -1.10866055531129
  H   2.13892794674800     -1.50533150375961      0.54189887069613
  H   0.61070371868056     -2.17948565839942     -0.03542198116581
