17
Coordinates from ORCA-job run
  C   -0.69273859449135      0.38404996684907     -0.29684873315843
  C   0.57892603654833     -0.16597065696885      0.34486993037784
  F   -0.52308716273211      0.62412148663274     -1.61409184209288
  H   0.33723634632265     -0.49526313849926      1.35527708375806
  N   -1.71189467745963     -0.79713249825588     -0.22381444493374
  O   -2.09570267575296     -1.31377287906110     -1.26327529851431
  O   -2.04867162798549     -1.09615889447766      0.91919168113058
  N   -1.16654231306997      1.54303270485826      0.32854707262503
  H   -2.01959408096029      1.88413642711503     -0.09521601908904
  H   -1.26793632171541      1.43526092594878      1.32780673563511
  N   1.51327850397225      0.99462709044152      0.52745902814582
  O   2.16348013441716      1.35331068908094     -0.44838334609628
  O   1.53538455697345      1.50548474410382      1.64509584788264
  C   1.22804879223961     -1.25751933405192     -0.47829703651087
  H   1.45247487602872     -0.89702942058054     -1.47990677603883
  H   2.15509304081259     -1.57829357082835     -0.00098072997607
  H   0.56524516685254     -2.12188364230657     -0.54843315314472
