17
Coordinates from ORCA-job run
  C   -0.71440313653392      0.39120026394307     -0.39072233751007
  C   0.52054831404733     -0.07564850378531      0.41338873039945
  F   -0.29466253513086      0.67965560949809     -1.64503508738356
  H   0.22682160045331     -0.15275579522673      1.46144564463068
  N   -1.62144508498965     -0.83523520264227     -0.46607557677490
  O   -2.13623621676613     -1.15335468144180      0.60329002984841
  O   -1.72832789090006     -1.40723235578649     -1.53796455453247
  N   -1.51587109752060      1.44649604507296      0.09417816845352
  H   -2.02185916406835      1.15027812486729      0.91885917447389
  H   -0.94017526708957      2.24789700996062      0.32232431906206
  N   1.49723123391235      1.06837470833955      0.35492893052979
  O   2.49669182885536      0.94796267959726     -0.34342117617433
  O   1.19431977578254      2.06882130112513      1.00813311363081
  C   1.14267622527192     -1.35241440705377     -0.10792131368596
  H   1.33041692632717     -1.28869636606814     -1.17840891080316
  H   2.08825368126474     -1.54167085892683      0.39998440510981
  H   0.47602080708434     -2.19267757147264      0.09301644072604
