17
Coordinates from ORCA-job run
  C   -0.77532188228645      0.34995188515080      0.07093190073621
  C   0.70239206972562      0.07725876302392      0.33498544331897
  F   -1.38825338127634      0.46384020855443      1.31917356781502
  H   1.14142483249398      0.99616117168258      0.72496264835875
  N   -0.97957978658497      1.75645027153719     -0.51067121000751
  O   -0.34721751602468      2.65100915675401      0.03129330205344
  O   -1.81376051833636      1.88176720701070     -1.39843456822991
  N   -1.35450696724961     -0.57548876921896     -0.78577903896208
  H   -2.27583366165597     -0.30118264787979     -1.09673754448555
  H   -1.34042802333357     -1.51337626398004     -0.41196810345371
  N   1.34004646439710     -0.13655346115357     -1.01083212597391
  O   1.34902172194481      0.83957641453885     -1.75490290150749
  O   1.77912410249828     -1.25040949823656     -1.27614992402692
  C   0.93860653542265     -1.09370887239937      1.26424952302234
  H   0.52365477821506     -2.02065566720088      0.86870445215375
  H   2.00936824339800     -1.24647981807576      1.39761361563347
  H   0.49026298865249     -0.87816008010757      2.23356096355513
