17
Coordinates from ORCA-job run
  C   -0.72555743065361      0.33089508303987     -0.27677311548383
  C   0.54804472125299     -0.10248104205661      0.45490926105078
  F   -0.39376229187143      0.59899180683858     -1.58535633944569
  H   0.31916138950924     -0.19153381304670      1.51639543225277
  N   -1.66335932341132     -0.88696167847453     -0.33776740871543
  O   -1.80073891164168     -1.49234883331446      0.71764999867670
  O   -2.22007946943907     -1.11963356064714     -1.40179251369752
  N   -1.44217057718899      1.34990065940785      0.35156390765025
  H   -2.15606467511322      1.73193629682181     -0.25596214830063
  H   -0.83826742106243      2.07288959176712      0.71876927966280
  N   1.50556118550762      1.06144746383294      0.34493074017707
  O   1.24765648347073      2.04296469336559      1.04507094186567
  O   2.45410045429341      0.96761504872171     -0.42372659151124
  C   1.17237817316631     -1.35631498394813     -0.11778893009740
  H   1.30325089492045     -1.27015169372090     -1.19522757018529
  H   0.54019489063089     -2.21381522286792      0.11077570457492
  H   2.14965190763013     -1.52339981571907      0.33432935152610
