17
Coordinates from ORCA-job run
  C   -0.71726018513739      0.59632883738513     -0.04287171704534
  C   0.67767029980107      0.14341424735478      0.40289123879323
  F   -0.67768008269764      1.88792727222557     -0.51842495686912
  H   0.84490080031433      0.61404423966548      1.37484503997444
  N   -1.16698424594216     -0.22002781925889     -1.25563274468827
  O   -0.43733176153157     -0.12392074764677     -2.23392639657542
  O   -2.19939401539175     -0.87513461650936     -1.16738356519595
  N   -1.63061361776430      0.39738169529871      1.00072128791519
  H   -1.49551733504909      1.08990023305896      1.72583583426286
  H   -2.58777273642715      0.39577485401854      0.67355611648221
  N   1.76290421283588      0.73527160309606     -0.46134548550609
  O   2.29177572282154      0.01622985272143     -1.30282239079099
  O   2.05048293633506      1.90567686722414     -0.22492639785329
  C   0.79573502412002     -1.36292980528721      0.48839952394754
  H   0.74223414956901     -1.81232990364247     -0.50215273777139
  H   1.75460967912882     -1.63764955893803      0.92887806122967
  H   -0.00875884498469     -1.75095725076599      1.11335928969065
