17
Coordinates from ORCA-job run
  C   -0.74881191477073      0.31420761502179     -0.23060983414293
  C   0.57531522537288     -0.09355464626121      0.42145382300947
  F   -0.49941483843601      0.61048335267245     -1.55114544745727
  H   0.40836483424272     -0.20724739335134      1.49205832054043
  N   -1.65371325443423     -0.93012186552254     -0.25822703253594
  O   -2.25952278874071     -1.16621208428212     -1.29432628457765
  O   -1.71644125973505     -1.55231289545483      0.79441635510009
  N   -1.45650653588516      1.30262043966852      0.45344722097123
  H   -2.21507206992439      1.67412420089460     -0.10416615819619
  H   -0.85372324717669      2.03567447965689      0.80183019371077
  N   1.49217225355528      1.09941997370183      0.28020142356336
  O   2.39598632389773      1.04784063846264     -0.54440738443562
  O   1.24903590006935      2.05916707762926      1.01488312358576
  C   1.20079561883345     -1.31896693878113     -0.20884085978072
  H   1.26477941377171     -1.21168819429591     -1.29039793660192
  H   2.20770341456520     -1.46401473825674      0.18159284656656
  H   0.60805292479468     -2.19841902150217      0.04123763068055
