17
Coordinates from ORCA-job run
  C   -0.70498826456483      0.59304901912127     -0.12198933120692
  C   0.64539018469474      0.15495963123906      0.43949259474805
  F   -0.57410672305391      1.91155970242913     -0.49250193392579
  H   0.80687950249629      0.76733052080471      1.33068406005563
  N   -1.10305037533824     -0.15611082342961     -1.40067244224685
  O   -1.25492760573497     -1.36413410136108     -1.27418983720936
  O   -1.27057397635776      0.50725882495910     -2.41241432221460
  N   -1.72909633010841      0.36752541102025      0.81371302046841
  H   -2.63698062932231      0.61900334981179      0.44129561892110
  H   -1.55738292853755      0.88758643371958      1.66497108865522
  N   1.72134271059638      0.59096332418784     -0.50880878549330
  O   1.63809261838936      0.16681127888497     -1.65829935455600
  O   2.61386863213043      1.30200371843676     -0.05726702744913
  C   0.81924891002150     -1.31869910622268      0.74878739938976
  H   -0.00006437317302     -1.66131750488164      1.37955093258284
  H   0.82184893915952     -1.90753605855550     -0.16557980512140
  H   1.76549970870285     -1.46025362016396      1.27522812460229
