17
Coordinates from ORCA-job run
  C   -0.76144768811592      0.63665796112620     -0.18833158134155
  C   0.61879366156323      0.29226839344710      0.39086322115313
  F   -0.69395399978673      1.92306266203907     -0.61276939037636
  H   0.77656753367316      1.01023976979099      1.19992724352704
  N   -1.07478145625165     -0.22705018369481     -1.41102262287256
  O   -0.97974579860633      0.28990450418401     -2.51039402326645
  O   -1.40111278864902     -1.38366301544136     -1.15721214761425
  N   -1.86224108747458      0.48652285071012      0.68577206766801
  H   -1.69553528860265      0.92543000615161      1.58129480053549
  H   -2.12492147552515     -0.48307033776279      0.79168515579745
  N   1.67749442180059      0.62839373183862     -0.61849265553714
  O   2.38861677646027      1.60154757371637     -0.38669842680991
  O   1.74956692855234     -0.11111406007622     -1.59766231873261
  C   0.80653845952698     -1.13475453739790      0.86300454568652
  H   0.05912677203327     -1.38391065720029      1.61723198870429
  H   0.72300606420384     -1.83548785093534      0.03543061632419
  H   1.79402896519832     -1.23597681049538      1.31737352715472
