17
Coordinates from ORCA-job run
  C   -0.73719775210008      0.23791997877255     -0.31775749029720
  C   0.52342615545960     -0.17719639041674      0.44043340070834
  F   -0.53707084809258      0.11281988085481     -1.68095697167711
  H   0.23411440939778     -0.47123345824981      1.44697723089049
  N   -1.85078894245025     -0.78608519408421     -0.03912589906488
  O   -2.92969189122392     -0.52253497833570     -0.55538579073398
  O   -1.58988780948809     -1.77636632790829      0.63478911994567
  N   -1.25697135878227      1.47511858246874      0.07420798924685
  H   -0.62204294441851      2.22242784515661     -0.17441145393840
  H   -2.16116001412284      1.62364769155195     -0.35805622396164
  N   1.41764299908405      1.01281552997704      0.62854057910065
  O   1.54900200585568      1.78518769256469     -0.32129550911621
  O   2.00586812614673      1.09020987939965      1.70202090541227
  C   1.33932916574402     -1.25680579714951     -0.24888817916201
  H   0.73125357047088     -2.14985183046288     -0.38485781609357
  H   1.68681199116881     -0.90598796702331     -1.21993103740752
  H   2.19736313735103     -1.51308513711561      0.37469714614827
