17
Coordinates from ORCA-job run
  C   -0.73616215835331      0.66538048667822     -0.18792136463954
  C   0.62152333505124      0.26330611243823      0.40704097751718
  F   -0.61778028248778      1.95654774005533     -0.58587214553008
  H   0.79032659867229      0.95987038768544      1.23233809510897
  N   -1.05900555446617     -0.16362400294086     -1.43222854554746
  O   -0.93374157563666      0.37201706416527     -2.51955285822358
  O   -1.42469282298161     -1.31417873544607     -1.20604645074194
  N   -1.85659785789124      0.53681184861158      0.66474721172024
  H   -1.69026534390856      0.95510998830850      1.57022705838200
  H   -2.15146656562734     -0.42555763996231      0.75023938756054
  N   1.70825497001293      0.58305633736102     -0.57776440131606
  O   1.76826392683498     -0.13383374673014     -1.57432132540124
  O   2.45206931429214      1.52216461367099     -0.31017592703443
  C   0.75381907557039     -1.17873136260023      0.85219734565333
  H   1.72773092689482     -1.32143900127867      1.32437624593558
  H   0.66582659716100     -1.85774879384810      0.00714296784433
  H   -0.01710258313704     -1.42115129616823      1.58457372871217
