17
Coordinates from ORCA-job run
  C   -0.70472197456074      0.59716736386277     -0.10768507751022
  C   0.64737737428843      0.14460192160281      0.43854379703778
  F   -0.57232209284177      1.92255966838906     -0.45182729081993
  H   0.81322673613020      0.73701778750198      1.34231665154041
  N   -1.11075566556935     -0.12482612213233     -1.39905236098868
  O   -1.28287005699551      0.55928558369897     -2.39608594952662
  O   -1.26410550792620     -1.33490692153276     -1.29625166548975
  N   -1.72458608555590      0.35524816045715      0.82859029804204
  H   -1.54596967353795      0.85557357764433      1.69016856950023
  H   -2.63337760998795      0.61889460469775      0.46691399698023
  N   1.72032638174449      0.59719493780191     -0.50479456665245
  O   1.62893487367171      0.19985195419708     -1.66319253326852
  O   2.61908866007763      1.29253255371455     -0.04144875928868
  C   0.81972154969192     -1.33541088838398      0.71771661169285
  H   0.81450035398965     -1.90738554877639     -0.20719548061956
  H   0.00490927874627     -1.68804886190470      1.34879593345326
  H   1.76962345863509     -1.48834977083819      1.23448782591764
