17
Coordinates from ORCA-job run
  C   -0.67962005058285      0.68762410616262     -0.01522218483434
  C   0.70104709747717      0.21538022317053      0.43705141499553
  F   -0.64202790224356      2.01935245738424     -0.24673006525599
  H   0.96936374326029      0.88827262427841      1.25286711213328
  N   -1.03147939358642      0.03782622769028     -1.38263586905828
  O   -0.85768731995452      0.69525125498831     -2.39669673303918
  O   -1.45849322445067     -1.11191195502348     -1.30695077015794
  N   -1.65871496791696      0.41605730703484      0.96604865986690
  H   -2.47659088983139      0.98929214504722      0.79133644642233
  H   -1.92302279428578     -0.56071919244401      0.93993597375920
  N   1.69205669481524      0.51050584894152     -0.65316549272361
  O   2.34658546082458      1.54387466906991     -0.54575976963218
  O   1.76854951175757     -0.30726602200558     -1.56795531628470
  C   0.78828679211436     -1.23945776685093      0.84702576764573
  H   1.81480223009020     -1.47253647726018      1.13456998228498
  H   0.14909575002835     -1.41185880456130      1.71384909405740
  H   0.49584926248437     -1.89968664562240      0.03343174982088
