14
Coordinates from ORCA-job run
  C   0.96777663902786     -0.16272219169824      0.12481265897727
  C   -0.53342293868264      0.07951356351368      0.14079002788120
  F   1.31587159809528     -0.88900429970509      1.21944638369166
  H   -0.74527970657235      0.62720243869833      1.06575367059911
  H   1.32830128265601     -0.65514953846676     -0.77880177247839
  N   1.68518337205306      1.16021857639235      0.20672229122438
  O   1.56252289687855      1.77587128760841      1.25979609017725
  O   2.30542301524469      1.51065419794782     -0.79314684089776
  C   -1.30121718532636     -1.24544646462762      0.12028565416308
  H   -1.07639974217954     -1.80913384379912     -0.78760120357445
  H   -1.02862960602114     -1.84471823846459      0.98901060567705
  H   -2.37456355320611     -1.05487529907267      0.14907533056125
  C   -0.89974700433101      0.92629259574556     -0.99517192887065
  N   -1.20581906763628      1.58029721592795     -1.92097096713099
