14
Coordinates from ORCA-job run
  C   0.98240945426562     -0.10579045454818      0.06011890203766
  C   -0.52644846132124      0.04353948072689      0.17607493746529
  F   1.44319244785589     -0.82911514465880      1.11437495792583
  H   -0.71092683853401      0.55971387494296      1.12478564214297
  H   1.31335802271357     -0.55828008519542     -0.87520708662975
  N   1.62220677053036      1.25744719023492      0.12614296467252
  O   1.52802115993771      1.84543727408464      1.19757666212400
  O   2.15581883680664      1.66317715653090     -0.90226523357755
  C   -1.21383159356360     -1.32492928552002      0.17332441746312
  H   -2.29192716498997     -1.20058971158681      0.27942150122770
  H   -0.84727491986416     -1.92524865576869      1.00583229607210
  H   -1.01935075878526     -1.85384411722865     -0.76186832092935
  C   -1.01526050572510      0.88806042978569     -0.91461039255421
  N   -1.41998644932644      1.53942204820057     -1.80370124744033
