14
Coordinates from ORCA-job run
  C   0.82585696325372      0.13420623491430      0.80871702313330
  C   -0.64460158351544     -0.03989277002833      0.44446490291386
  F   0.96096844692854      1.08077334962088      1.76570905091338
  H   -1.13758996581540     -0.28616521523596      1.39251139276583
  H   1.27398213947643     -0.80193940510963      1.14437634195862
  N   1.61834989474862      0.55976298955407     -0.40259436148372
  O   1.81134261873624      1.75571456295508     -0.56681251279701
  O   1.96994239147448     -0.36182158662004     -1.13554931783420
  C   -0.89582071964900     -1.16291875094377     -0.56670739223689
  H   -1.96971439574646     -1.31637686481572     -0.67796591832991
  H   -0.47620356734145     -0.91965171322207     -1.54170737042432
  H   -0.44442445494950     -2.09422315377930     -0.21934725869717
  C   -1.20613151163094      1.23072952675500     -0.02197263904579
  N   -1.68695625596984      2.22280279595549     -0.42512194083598
