14
Coordinates from ORCA-job run
  C   0.85018157246479      0.12232019916999      0.78350409736377
  C   -0.63341451514489     -0.01830909038194      0.46064474203298
  F   1.03578180577519      1.07807985343422      1.72234415700205
  H   -1.10674887542346     -0.24197271929826      1.42427256129833
  H   1.28300750898557     -0.82052070481411      1.12063752700059
  N   1.62130846968585      0.50973250171500     -0.45458868179874
  O   1.93199754134428     -0.43071550754018     -1.18169978588879
  O   1.83899021018055      1.69819079013641     -0.64207321532029
  C   -0.94003852292401     -1.14545509703859     -0.53010916136894
  H   -2.02012284546246     -1.27112965051699     -0.61316621702867
  H   -0.50555405455578     -2.08450713066173     -0.18208066517672
  H   -0.53859714970998     -0.92567223450247     -1.51824795879342
  C   -1.17499809161437      1.26211285546973     -0.00258726191200
  N   -1.64179305360126      2.26784593482893     -0.38785013741014
