14
Coordinates from ORCA-job run
  C   0.80827474025641      0.74360971024712      0.06495950043207
  C   -0.57756994213694      0.17898093496141      0.36056974392425
  F   0.91137501110045      1.13109012480472     -1.22392312076469
  H   -0.58263678791097     -0.11898140782919      1.41384494625208
  H   1.08437179817395      1.56911669851864      0.72318018155899
  N   1.81274436450689     -0.35617535754796      0.32863780810137
  O   1.89312415027768     -0.68896801203108      1.50684528574320
  O   2.42034566406078     -0.82846164916728     -0.62025865858765
  C   -0.90453984811838     -1.02420681187306     -0.52980170126604
  H   -0.81704242721248     -0.75705507539701     -1.58289016199533
  H   -0.22587711341452     -1.85193851044883     -0.31731265390399
  H   -1.92336392496488     -1.36142615715571     -0.33790841939523
  C   -1.55566942230807      1.25385716110016      0.18269762290638
  N   -2.34453626230991      2.10955835181808      0.03035962699458
