17

C	0.0	0.0	0.0
C	-0.494117	0.337523	-1.441237
Br	1.966284	0.0	0.0
H	-1.550124	0.031694	-1.433259
C	-0.351197	1.113638	0.895111
N	-0.554119	1.996704	1.644065
N	-0.465976	-1.223842	0.574557
H	-1.482241	-1.108013	0.674875
H	-0.311846	-1.963233	-0.102747
N	0.19718	-0.566257	-2.412556
O	0.039279	-1.778452	-2.253747
O	0.878159	-0.069678	-3.307106
C	-0.363078	1.786844	-1.841072
H	-1.044307	2.36853	-1.219477
H	0.657717	2.154541	-1.719485
H	-0.65732	1.911854	-2.884104
Br	-3.598117	0.0	0.0
