16

C	-0.523123	-0.02001	-1.429914
C	0.0	0.0	0.0
Br	0.144037	1.628116	-2.378502
H	1.091597	0.0	0.0
H	-0.03812	-0.823862	-1.976513
N	-1.932272	-0.159408	-1.484013
H	-2.251584	-0.292358	-2.434757
H	-2.399861	0.64794	-1.09266
N	-0.387886	-1.343831	0.566739
O	-0.073776	-2.333315	-0.091016
O	-0.980165	-1.385151	1.646444
C	-0.523435	1.113467	0.878739
H	-0.222553	2.069273	0.44915
H	-1.608933	1.079438	0.99907
H	-0.074877	1.029528	1.867763
Cl	3.340702	0.0	0.0
