16

C	-0.584312	0.03304	-1.404062
C	0.0	0.0	0.0
Br	0.137603	-1.441172	-2.46056
H	1.089854	0.0	0.0
H	-1.655851	-0.18092	-1.350065
N	-0.2679	1.300573	-2.042612
H	-0.109997	1.167544	-3.034038
H	-1.054727	1.930726	-1.923369
N	-0.494693	-1.235781	0.685447
O	0.313184	-1.956784	1.257568
O	-1.716776	-1.431605	0.662299
C	-0.489424	1.194363	0.808336
H	-1.581954	1.26606	0.804316
H	-0.140685	1.101608	1.839072
H	-0.045462	2.095041	0.384896
Cl	3.477091	0.0	0.0
