16

C	-0.292787	0.008459	-1.504626
C	0.0	0.0	0.0
Br	-2.224426	-0.296144	-1.83678
H	1.095074	0.0	0.0
H	-0.129946	1.035871	-1.835802
N	0.485075	-0.862916	-2.336145
H	1.454736	-0.563041	-2.227661
H	0.438388	-1.79471	-1.939415
N	-0.443158	-1.275625	0.631778
O	-1.094351	-1.220523	1.675252
O	-0.129378	-2.328346	0.074059
C	-0.534838	1.197835	0.747763
H	-1.625079	1.235136	0.730161
H	-0.198661	1.176659	1.783719
H	-0.130497	2.099251	0.281181
Cl	3.295436	0.0	0.0
