16

C	-0.521138	0.039228	-1.430001
C	0.0	0.0	0.0
Br	0.169238	1.63809	-2.318875
H	1.090935	0.0	0.0
H	-0.069373	-0.78168	-1.991626
N	-1.972669	0.092654	-1.490246
H	-2.302373	-0.818752	-1.188217
H	-2.256521	0.219529	-2.454922
N	-0.369406	-1.329652	0.60614
O	-0.90272	-2.188066	-0.109262
O	-0.097421	-1.501191	1.788737
C	-0.515547	1.101182	0.907133
H	-0.057134	0.99812	1.889151
H	-0.218584	2.063009	0.490116
H	-1.603337	1.073604	0.990367
Cl	3.311896	0.0	0.0
