19

C	-0.143264	0.01497	-1.484594
C	0.0	0.0	0.0
F	-0.156993	-1.238687	-2.0225
H	1.099961	0.0	0.0
N	-1.376663	0.666952	-2.101992
O	-1.323878	0.94032	-3.295593
O	-2.376319	0.767435	-1.388782
N	1.059819	0.740785	-2.016231
O	2.14402	0.054084	-1.868377
O	0.990101	1.992337	-1.870971
C	-0.479665	-1.267503	0.679362
H	-0.057075	-2.155213	0.207686
H	-0.146341	-1.252037	1.722883
H	-1.572068	-1.345036	0.666448
C	-0.42919	1.268037	0.720436
H	0.060258	1.282382	1.701158
H	-0.093206	2.145872	0.167962
H	-1.510847	1.316313	0.859203
H	2.577241	0.0	0.0
