19

C	-0.44106	-0.0108	-1.418745
C	0.0	0.0	0.0
F	-0.058537	1.090428	-2.087214
H	1.099303	0.0	0.0
N	0.041818	-1.186757	-2.27172
O	0.678904	-2.085458	-1.742448
O	-0.244109	-1.093317	-3.463304
N	-1.960836	-0.090611	-1.547256
O	-2.573222	0.968176	-1.65647
O	-2.455634	-1.211144	-1.426552
C	-0.495113	-1.168722	0.841205
H	-0.306152	-2.130644	0.370621
H	-1.563649	-1.090814	1.072062
H	0.06487	-1.146669	1.780222
C	-0.390904	1.328076	0.648688
H	-1.472506	1.433227	0.791335
H	-0.025623	2.175554	0.068064
H	0.098054	1.368627	1.625615
H	2.725144	0.0	0.0
