19

C	-0.365662	-0.048935	-1.444823
C	0.0	0.0	0.0
F	0.278396	0.880236	-2.16331
H	1.099861	0.0	0.0
N	-0.031583	-1.401958	-2.071004
O	1.11529	-1.535283	-2.468748
O	-0.923154	-2.247053	-2.070747
N	-1.862779	0.152363	-1.773437
O	-2.12238	0.664246	-2.857581
O	-2.676522	-0.20652	-0.931558
C	-0.403678	-1.216815	0.819065
H	0.047109	-2.126149	0.414038
H	-1.482471	-1.355586	0.898313
H	0.019777	-1.085894	1.81874
C	-0.435509	1.322129	0.614967
H	0.098472	1.444179	1.560387
H	-0.146492	2.16163	-0.021653
H	-1.512357	1.366088	0.805219
H	2.787031	0.0	0.0
