17

C	-0.473845	0.000619	-1.469973
C	0.0	0.0	0.0
Cl	0.220321	-1.474365	-2.248641
H	1.096766	0.0	0.0
C	-1.985293	-0.093634	-1.602062
H	-2.271064	-0.109492	-2.657508
H	-2.452792	0.770477	-1.120215
H	-2.356234	-1.004891	-1.128098
C	0.105435	1.218484	-2.171049
H	1.185911	1.244422	-2.008008
H	-0.342247	2.127936	-1.759465
H	-0.111772	1.173563	-3.241258
C	-0.472275	-1.165346	0.731651
N	-0.831121	-2.11785	1.321902
C	-0.454646	1.207875	0.66956
N	-0.827079	2.198067	1.185848
H	2.55965	0.0	0.0
