17

C	-0.288266	0.000662	-1.506555
C	0.0	0.0	0.0
Cl	-2.086746	-0.001956	-1.834577
H	1.098966	0.0	0.0
C	0.314335	1.254681	-2.111229
H	1.375334	1.271218	-1.832956
H	-0.172742	2.15225	-1.725545
H	0.210386	1.236292	-3.198901
C	0.317567	-1.250963	-2.113334
H	0.214455	-1.231456	-3.201129
H	1.378508	-1.264916	-1.834332
H	-0.167676	-2.150346	-1.729734
C	-0.468306	-1.1975	0.674038
N	-0.804646	-2.192745	1.203029
C	-0.468957	1.196636	0.675072
N	-0.80876	2.191625	1.202263
H	2.563921	0.0	0.0
