17

C	-0.290278	1e-06	-1.506236
C	0.0	0.0	0.0
Cl	-2.090617	-4e-06	-1.827983
H	1.098909	0.0	0.0
C	0.310907	1.252346	-2.114747
H	-0.176119	2.151069	-1.730166
H	1.373486	1.269214	-1.838401
H	0.205525	1.231287	-3.203163
C	0.310913	-1.252344	-2.114742
H	-0.176115	-2.151067	-1.730156
H	0.205536	-1.231291	-3.203164
H	1.373496	-1.26921	-1.838388
C	-0.467254	-1.197819	0.674426
N	-0.797886	-2.199156	1.195329
C	-0.467272	1.197818	0.674417
N	-0.798066	2.199169	1.195189
H	2.564611	0.0	0.0
