17

C	-0.41678	0.034403	-1.490602
C	0.0	0.0	0.0
Cl	0.147714	-1.515205	-2.226291
H	1.0968	0.0	0.0
C	-1.920868	0.105655	-1.687175
H	-2.161207	0.094377	-2.753822
H	-2.304514	1.030994	-1.24806
H	-2.414152	-0.743531	-1.209697
C	0.327644	1.17276	-2.169458
H	0.160329	1.141358	-3.249017
H	-0.033204	2.130955	-1.78391
H	1.394021	1.078817	-1.946069
C	-0.514621	-1.156089	0.712596
N	-0.902966	-2.098647	1.30002
C	-0.436945	1.219447	0.661264
N	-0.788559	2.21985	1.172032
H	2.564592	0.0	0.0
