17

C	-0.416301	-0.013959	-1.49099
C	0.0	0.0	0.0
Cl	0.147452	1.54552	-2.206729
H	1.096743	0.0	0.0
C	0.329827	-1.142239	-2.184366
H	-0.03003	-2.105915	-1.811466
H	1.395755	-1.049459	-1.959542
H	0.162889	-1.096314	-3.26333
C	-1.920152	-0.084819	-1.68914
H	-2.30272	-1.016465	-1.262302
H	-2.414642	0.757507	-1.200685
H	-2.160019	-0.059967	-2.755726
C	-0.436332	-1.229348	0.643574
N	-0.78819	-2.237902	1.137947
C	-0.515909	1.14527	0.728693
N	-0.90734	2.078834	1.328446
H	2.565051	0.0	0.0
