10
Coordinates from ORCA-job run
  C   0.08331019860404     -0.10983643785570      0.59817688542600
  C   -1.09956707196911      0.07792132084443     -0.31247366243540
  F   0.13947486842715      0.87239441978773      1.53272252224119
  H   -1.12279915581736     -0.70570885383682     -1.06865211359376
  H   0.11103913622827     -1.07998061668111      1.09490726318081
  H   -1.02966207215497      1.05379333026436     -0.79587167822917
  H   -2.01615646900909      0.04046532372820      0.27670669511459
  N   1.35022281553347     -0.05445780553667     -0.22948894294947
  O   1.53790199560157     -1.04171817152460     -0.93366845351537
  O   2.04723575455604      0.94712749081017     -0.16135851523943
