16

C	-0.415764	0.019955	-1.465688
C	0.0	0.0	0.0
Cl	0.003017	-1.495005	-2.341896
H	1.096395	0.0	0.0
H	0.152384	0.808011	-1.968414
C	-1.848361	0.260942	-1.650062
N	-2.999999	0.471451	-1.755103
C	-0.539375	-1.189682	0.772115
H	-0.184247	-1.128534	1.804509
H	-1.636588	-1.215114	0.786352
H	-0.170333	-2.129138	0.357524
C	-0.414934	1.322576	0.639637
H	-1.500723	1.420315	0.756057
H	0.053202	1.390886	1.625343
H	-0.045865	2.172177	0.055979
H	2.90529	0.0	0.0
