16

C	-0.423686	0.03697	-1.461683
C	0.0	0.0	0.0
Cl	0.01394	-1.457325	-2.365121
H	1.096372	0.0	0.0
H	0.127295	0.842653	-1.957261
C	-1.861806	0.256469	-1.631592
N	-3.016873	0.45095	-1.733244
C	-0.535259	-1.199094	0.760167
H	-1.632351	-1.216881	0.791442
H	-0.162841	-1.159114	1.787862
H	-0.180459	-2.134367	0.323595
C	-0.413534	1.314663	0.658124
H	0.059283	1.370197	1.641687
H	-1.498062	1.409126	0.780841
H	-0.047491	2.171805	0.083349
H	2.903573	0.0	0.0
