12

C	-0.353941	0.0936	-1.496677
C	0.0	0.0	0.0
Cl	-0.433864	1.855684	-1.939294
H	1.092571	0.0	0.0
H	-1.353035	-0.286614	-1.718744
H	-0.389774	0.823363	0.600434
N	0.607711	-0.567849	-2.331237
H	0.405939	-1.561656	-2.331897
H	1.533548	-0.434921	-1.913069
C	-0.475275	-1.271587	0.521462
N	-0.866943	-2.312024	0.904583
H	2.824648	0.0	0.0
