12

C	-0.369609	-0.178174	-1.478304
C	0.0	0.0	0.0
Cl	-0.246557	1.402824	-2.333843
H	1.093838	0.0	0.0
H	-1.407668	-0.49228	-1.617055
H	-0.2921	-0.92312	0.517275
N	0.513854	-1.122829	-2.120275
H	1.462449	-0.902174	-1.801423
H	0.291642	-2.043941	-1.756419
C	-0.610668	1.124119	0.6802
N	-1.118246	2.030471	1.229927
H	2.822302	0.0	0.0
