12

C	-0.340835	-0.133642	-1.481435
C	0.0	0.0	0.0
Cl	-0.19506	1.542868	-2.295622
H	1.09398	0.0	0.0
H	-1.383803	-0.383115	-1.686011
H	-0.300603	-0.932762	0.489277
N	0.54234	-1.099684	-2.006972
H	1.49601	-0.901128	-1.687154
H	0.504233	-1.146059	-3.015164
C	-0.605915	1.118592	0.690476
N	-1.120976	2.005715	1.26317
H	2.816598	0.0	0.0
