18

C	-0.479321	-0.014846	-1.43923
C	0.0	0.0	0.0
Cl	0.338263	1.222127	-2.421804
H	1.102384	0.0	0.0
N	-0.160124	-1.388374	-2.050274
O	0.984209	-1.596231	-2.411848
O	-1.086918	-2.197898	-2.048424
C	-1.925201	0.187968	-1.572549
N	-3.077892	0.419639	-1.597855
C	-0.464527	-1.241267	0.75265
H	-0.130369	-1.137304	1.787831
H	-1.552993	-1.382858	0.751095
H	0.010762	-2.143029	0.361473
C	-0.464244	1.271267	0.698502
H	-0.166307	2.162068	0.142399
H	-1.549122	1.303709	0.86448
H	0.040616	1.317887	1.666235
F	2.585451	0.0	0.0
