18

C	-0.388294	0.011377	-1.46203
C	0.0	0.0	0.0
Cl	0.376374	-1.313205	-2.366162
H	1.096389	0.0	0.0
N	-1.918641	-0.142816	-1.589314
O	-2.562042	0.903542	-1.515161
O	-2.390164	-1.272227	-1.620118
C	-0.040845	1.264393	-2.131601
N	0.247017	2.268978	-2.66884
C	-0.47134	-1.251435	0.724053
H	0.053483	-1.287235	1.682334
H	-1.552165	-1.263618	0.916986
H	-0.207771	-2.157175	0.176255
C	-0.439836	1.265801	0.723446
H	-1.528244	1.370478	0.812821
H	-0.010366	1.228678	1.72819
H	-0.039234	2.159063	0.239728
F	2.572915	0.0	0.0
