18

C	-0.437521	0.19112	-1.418265
C	0.0	0.0	0.0
Cl	-2.234078	0.471134	-1.62857
H	1.109863	0.0	0.0
N	0.254806	1.419364	-2.033494
O	-0.13946	2.519016	-1.671436
O	1.173479	1.194115	-2.810456
C	-0.118632	-0.953882	-2.270778
N	0.058305	-1.910276	-2.930314
C	-0.453597	-1.352424	0.533047
H	-1.544417	-1.432939	0.628481
H	-0.007765	-1.485482	1.521959
H	-0.090836	-2.172786	-0.090059
C	-0.403749	1.126426	0.940775
H	-1.48922	1.258664	1.023584
H	-0.005071	0.874772	1.927139
H	0.046674	2.073716	0.646942
F	2.552501	0.0	0.0
