18

C	-0.445135	0.014428	-1.452091
C	0.0	0.0	0.0
Cl	0.361679	1.300071	-2.377597
H	1.095402	0.0	0.0
N	-0.068764	-1.331797	-2.092436
O	1.08896	-1.49294	-2.435771
O	-0.970074	-2.169108	-2.131592
C	-1.891947	0.179883	-1.618314
N	-3.050793	0.374102	-1.664122
C	-0.473407	-1.263051	0.709101
H	-0.17394	-1.181762	1.757127
H	-1.559684	-1.415696	0.669793
H	0.023804	-2.149283	0.310082
C	-0.486128	1.252236	0.715678
H	-0.148627	2.15638	0.205369
H	-0.036496	1.261883	1.711855
H	-1.578309	1.291951	0.824343
F	2.589887	0.0	0.0
