16

C	-0.481174	0.004219	-1.436496
C	0.0	0.0	0.0
Cl	0.196465	1.505976	-2.274947
H	1.091802	0.0	0.0
H	-0.013761	-0.816965	-1.972195
N	-1.899147	-0.073969	-1.544426
H	-2.327708	0.735972	-1.11477
H	-2.181449	-0.104802	-2.516248
N	-0.347978	-1.304825	0.57368
O	-0.681655	-1.359856	1.766623
O	-0.170989	-2.306207	-0.132853
C	-0.492571	1.131905	0.870027
H	-0.25995	2.080647	0.383526
H	0.041122	1.099653	1.820162
H	-1.564429	1.071529	1.082172
H	2.61682	0.0	0.0
