16

C	-0.388843	0.164484	-1.470891
C	0.0	0.0	0.0
Cl	-0.310138	-1.434494	-2.31171
H	1.091819	0.0	0.0
H	-1.426626	0.490459	-1.583592
N	0.503897	1.078608	-2.130995
H	1.450223	0.912083	-1.773582
H	0.236449	2.029106	-1.907533
N	-0.610347	-1.212683	0.594023
O	0.115897	-2.088309	1.054068
O	-1.846991	-1.254247	0.599089
C	-0.456573	1.197325	0.817258
H	0.082495	2.083775	0.478067
H	-0.186315	1.043728	1.865115
H	-1.535355	1.359743	0.745263
H	2.861735	0.0	0.0
