18

C	-0.450642	0.029194	-1.470373
C	0.0	0.0	0.0
Cl	0.204196	-1.516007	-2.257884
H	1.095037	0.0	0.0
N	-1.872304	0.090671	-1.578998
H	-2.143211	0.13098	-2.554552
H	-2.296396	-0.732863	-1.169524
C	0.206958	1.178969	-2.208489
H	-0.167634	2.122342	-1.804594
H	1.288553	1.124397	-2.071791
H	-0.027189	1.128518	-3.27547
C	-0.49004	-1.19335	0.822218
H	-0.162173	-2.123366	0.358814
H	-1.578468	-1.198258	0.937126
H	-0.04489	-1.137689	1.817261
C	-0.446462	1.240859	0.637174
N	-0.822718	2.212872	1.179436
Br	3.520055	0.0	0.0
