18

C	-0.442547	0.035943	-1.473295
C	0.0	0.0	0.0
Cl	0.176982	-1.527353	-2.254684
H	1.095041	0.0	0.0
N	-1.860711	0.133875	-1.590783
H	-2.309927	-0.674767	-1.178782
H	-2.124763	0.176542	-2.568161
C	0.249274	1.166041	-2.209857
H	0.017674	1.121131	-3.277626
H	1.328041	1.082587	-2.068617
H	-0.100297	2.119374	-1.807432
C	-0.496619	-1.191915	0.819471
H	-0.155592	-2.12223	0.366891
H	-0.070387	-1.128275	1.82218
H	-1.586911	-1.203246	0.914735
C	-0.443534	1.24252	0.636409
N	-0.816747	2.214373	1.180983
Br	3.523997	0.0	0.0
