18

C	-0.373195	-0.057773	-1.504862
C	0.0	0.0	0.0
Cl	-0.057081	1.584293	-2.194605
H	1.096777	0.0	0.0
N	0.477673	-0.97133	-2.235035
H	1.449631	-0.783565	-1.981973
H	0.265591	-1.92097	-1.947418
C	-1.832256	-0.384638	-1.758459
H	-2.480983	0.31395	-1.226511
H	-2.030539	-0.320949	-2.829014
H	-2.056811	-1.400635	-1.4222
C	-0.411234	-1.270352	0.757138
H	-0.03549	-2.1554	0.239267
H	-1.493638	-1.352752	0.882878
H	0.055002	-1.255004	1.744157
C	-0.556628	1.157797	0.685938
N	-1.072725	2.033933	1.275596
Br	3.492803	0.0	0.0
