18

C	-0.370404	-0.055743	-1.488344
C	0.0	0.0	0.0
Cl	-2.221939	-0.509898	-1.613468
H	1.097179	0.0	0.0
N	-0.125681	1.182454	-2.105829
H	-0.612453	1.950252	-1.661845
H	-0.330202	1.159567	-3.095158
C	0.380947	-1.157757	-2.206968
H	0.15005	-1.129711	-3.275167
H	0.104534	-2.140668	-1.828612
H	1.449767	-0.987732	-2.047818
C	-0.430882	-1.202076	0.842149
H	-1.513963	-1.257803	0.953735
H	-0.066919	-2.125152	0.388954
H	0.033232	-1.117501	1.826716
C	-0.493076	1.234998	0.600237
N	-0.931581	2.221239	1.065077
Br	3.510125	0.0	0.0
