18

C	-0.372692	-0.0305	-1.50533
C	0.0	0.0	0.0
Cl	-0.034135	1.61748	-2.168727
H	1.096836	0.0	0.0
N	0.468209	-0.942363	-2.249467
H	0.242913	-1.893292	-1.978297
H	1.441366	-0.769878	-1.993129
C	-1.835446	-0.335434	-1.76566
H	-2.074966	-1.351969	-1.437371
H	-2.029963	-0.259951	-2.83606
H	-2.475544	0.369436	-1.229753
C	-0.414376	-1.281242	0.737259
H	-1.496466	-1.35993	0.867135
H	-0.04673	-2.159763	0.202891
H	0.057326	-1.284985	1.721229
C	-0.557909	1.147089	0.702362
N	-1.091421	2.019324	1.281094
Br	3.492928	0.0	0.0
