11
Coordinates from ORCA-job run
  C   0.43635883176354      0.64623752291993      0.05068603286150
  C   -1.02055189044043      0.21886808085237      0.02958784607202
  Br  0.69866328720861      2.23806350827125     -1.00470190233798
  H   -1.63754913810658      1.03924541024156      0.40386615054504
  H   0.81548867997829      0.84158113522011      1.05164026193731
  H   -1.32011017751437     -0.00147600704275     -0.99616797251294
  N   1.31109906676709     -0.44586013174636     -0.51573511224857
  O   2.40906248028795     -0.58173595689071      0.01210316610093
  O   0.86031109639747     -1.08750917770234     -1.45756166138719
  C   -1.21273847301822     -0.96355416070954      0.86859374352482
  N   -1.34003376332335     -1.90486022341351      1.55768944744508
