11
Coordinates from ORCA-job run
  C   0.48182021861779      0.39959451798141      0.05029524132400
  C   -0.80597939526262     -0.40684045956696      0.11945393798997
  Br  0.23715734719020      2.07710039303935     -0.86298254678835
  H   -1.20062774436648     -0.55137982245334     -0.88763189364825
  H   0.90860864522989      0.61275269382263      1.02820179438363
  H   -0.58173886244046     -1.39523372237057      0.53534217473540
  N   1.52259948762019     -0.40064859144309     -0.68986679177452
  O   1.14840108833392     -1.02014849587568     -1.67948849155978
  O   2.66050153512096     -0.35989008902944     -0.23460192188602
  C   -1.79267799614227      0.25721443121251      0.96503022561908
  N   -2.57906432390111      0.78647914468317      1.65624827160483
