11
Coordinates from ORCA-job run
  C   0.46564971140823      0.62823923106566      0.05761683784552
  C   -1.00455400787092      0.25104940217062      0.10567047955045
  Br  0.72051898363274      2.26751278599625     -0.92385522623700
  H   -1.37318019719394      0.09770927882140     -0.90983700218498
  H   0.91230908157104      0.75336674761946      1.04179093033924
  H   -1.56841734249459      1.06828542130934      0.56147185090573
  N   1.26092386869394     -0.46007869110408     -0.62095448294591
  O   0.74092613293791     -1.00894146228930     -1.58530309639017
  O   2.36973554865287     -0.68748077927274     -0.15041653364314
  C   -1.19046963709517     -0.96987700082937      0.88908307021380
  N   -1.33444214224211     -1.93978493348724      1.53373317254646
