11
Coordinates from ORCA-job run
  C   0.35666610724752      0.51662683045697      0.01760456409618
  C   -0.69018646024896     -0.58231827676472      0.11747166416690
  Br  -0.15981442348112      1.89779106510320     -1.22072787042925
  H   -0.29134965986949     -1.39501948497734      0.73443166760035
  H   0.57421427030874      0.99074986763975      0.97248281496015
  H   -0.89104457579249     -0.98693611039510     -0.87590248894933
  N   1.65639811206915     -0.08493171805842     -0.45138161248600
  O   2.67274690333199      0.33151508316667      0.09397732873228
  O   1.59050772458994     -0.93338542923974     -1.33400430113931
  C   -1.91876801552409     -0.07874005208479      0.72289700302509
  N   -2.90036998263121      0.32564822515352      1.22215123042294
