11
Coordinates from ORCA-job run
  C   0.46692010496952      0.62656148696452      0.04976935173634
  C   -1.00068945744485      0.25135536673674      0.15568773397998
  Br  0.68237293372163      2.28367785847584     -0.91114243815082
  H   -1.41537064582225      0.12082369130514     -0.84508227407825
  H   0.95745296704959      0.73243422573071      1.01513413997889
  H   -1.54034546741710      1.06065565845569      0.65324978810488
  N   1.22951838020920     -0.44949653316866     -0.68445861901466
  O   2.36433053438159     -0.67421163635983     -0.27946947533955
  O   0.65951489364759     -0.99290962424153     -1.62317703149548
  C   -1.15343642745249     -0.98530564470428      0.92134690494475
  N   -1.25026781584243     -1.97258484919431      1.54814191933393
