15

C	0.0	0.0	0.0
C	-0.357798	-0.006243	-1.496019
F	1.402864	0.0	0.0
H	0.093548	0.89525	-1.925726
H	-0.366564	-0.892026	0.506336
N	-0.498171	1.175771	0.591367
H	-0.598255	1.12035	1.592009
H	0.048939	1.978131	0.314625
N	-1.724629	-0.160113	-1.878502
H	-2.372551	0.2546	-1.160658
H	-1.963684	-1.140118	-1.771106
N	0.445242	-1.129462	-2.108235
O	0.079454	-2.275973	-1.845468
O	1.417616	-0.849305	-2.807047
H	-3.632304	0.0	0.0
