15

C	0.0	0.0	0.0
C	-0.418954	0.029973	-1.471929
F	1.416777	0.0	0.0
H	-1.521411	0.104939	-1.433111
H	-0.326455	-0.97704	0.360519
N	-0.522283	0.999416	0.851482
H	-0.462726	1.898266	0.383163
H	-1.535508	0.76116	0.861548
N	0.037374	-1.13098	-2.157298
H	1.047908	-1.120227	-2.196898
H	-0.321007	-1.1512	-3.102345
N	0.123241	1.310504	-2.086449
O	1.049486	1.224691	-2.898426
O	-0.378447	2.378767	-1.72859
H	-2.995621	0.0	0.0
