15
Coordinates from ORCA-job run
  C   0.72549263966010      0.07826148663745     -0.31263517059149
  C   -0.70864224041841      0.59958189468104     -0.29010225228292
  F   1.33685355376813      0.56661501438273     -1.39376125842444
  H   -0.63416970481268      1.69183885854313     -0.24356498356643
  N   0.79245718754941     -1.43286877943014     -0.35091308872902
  O   1.75773017247304     -1.91264680813404     -0.92163344913720
  O   -0.12691001537307     -2.00700828246558      0.21942004203985
  N   1.52356680389752      0.55594997376238      0.89884742091379
  O   1.59664226185813      1.77238632974423      0.97577964934697
  O   2.02589143528608     -0.29177549865564      1.61766447039391
  N   -1.47531713380211      0.19530370977283      0.96290140831608
  O   -0.86014470331550      0.34337352298986      2.00850956943308
  O   -2.62814520023358     -0.17001527131264      0.81562866073179
  C   -1.40369262896609      0.17405441987591     -1.49385990901744
  N   -1.92061242757098     -0.16305057039151     -2.49328110942651
