15
Coordinates from ORCA-job run
  C   0.60207434999010     -0.03856541061615      0.41950850387660
  C   -0.72900486133705      0.59988606401097      0.04221156355216
  F   0.70960699672544     -0.09556562408308      1.74578504066981
  H   -0.74650638290570      1.60674838089931      0.46476348948735
  N   1.77317719436529      0.78216967446439     -0.10437236617482
  O   2.87064660999007      0.29648003607363      0.12603616276538
  O   1.50889044993363      1.84603533418905     -0.65036299509882
  N   0.80019129215743     -1.42982898308367     -0.16301511718676
  O   0.85870502221429     -2.35673507529057      0.62383259047794
  O   0.89218771818555     -1.43831181024911     -1.38222511393033
  N   -1.81758315958417     -0.18672843191510      0.75622169986046
  O   -1.93266472940997     -1.35726975079172      0.41771480199274
  O   -2.45820189187494      0.42392174377268      1.59966623076342
  C   -1.01502050689413      0.63536527411507     -1.38206099387062
  N   -1.31749810155584      0.71239857850430     -2.51470349718449
