12
Coordinates from ORCA-job run
  C   0.34241617241208     -0.49373904489641      0.16861578415452
  C   -0.94607037964913      0.29254502315824      0.42843771120421
  H   0.13891439764234     -1.50174957712347     -0.19646541652326
  H   -0.68734060426580      1.31738295910944      0.70311734683658
  H   -1.48179161627367     -0.16240553192603      1.26579680393341
  C   1.17472082079231     -0.53627369698681      1.36644581015859
  N   1.81505681271816     -0.57028744851649      2.35020243009138
  N   1.12028451012541      0.19504165254925     -0.93839825241033
  O   1.42193959876973     -0.49492567890396     -1.90394751416448
  O   1.36617110926930      1.38177720970507     -0.76320094353950
  C   -1.79737209536431      0.29317559671284     -0.75885171913371
  N   -2.46792872617642      0.27945853711832     -1.72175204060740
