12
Coordinates from ORCA-job run
  C   0.32875971587630     -0.40663122152545      0.00130320423746
  C   -0.87920666983933      0.48576086123077     -0.30457783746022
  H   0.08077316939015     -1.45899508205211     -0.17187329334953
  H   -1.16467314865713      0.35226112254860     -1.34896363861890
  H   -0.60846332380584      1.53507066529799     -0.15887920127552
  C   0.81607806078946     -0.23112543585364      1.36405110058995
  N   1.15607139135065     -0.07290845427044      2.47684873792445
  N   1.45322368884433     -0.10935160379196     -0.98689205872781
  O   2.59898289889398     -0.24959266040209     -0.58474766262351
  O   1.10205870648589      0.18859779384763     -2.12195296646485
  C   -1.99591885346137      0.13549734613559      0.56877741984833
  N   -2.88968563586709     -0.16558333116488      1.26690619592014
