15
Coordinates from ORCA-job run
  C   0.76628263516105     -0.11058520941116      0.46702599228800
  C   -0.70228335708265      0.20592768147694      0.18549524252693
  Cl  0.79783213621355     -0.65143396755643      2.21896111014902
  H   -1.06911164850245      0.96532684536121      0.87387885136061
  C   1.32406828315410     -1.19780635188429     -0.33878148323963
  N   1.89627250134692     -2.00704983695185     -0.96970691689027
  N   1.50629141717763      1.06968872172087      0.20817673004563
  H   2.50452319789983      0.91323869032862      0.26511314413580
  H   1.23726472066352      1.83557097833015      0.81435186654255
  N   -1.64025359063140     -0.96002075843675      0.28353373536951
  O   -2.81890291527286     -0.63968260366986      0.40503488597316
  O   -1.17996797177139     -2.09029000019810      0.19932112272700
  N   -0.84546832503323      0.75666271901073     -1.20556100043832
  O   -1.05603020503043      1.95968956605819     -1.28836647179138
  O   -0.72051687829219     -0.05223647417827     -2.11747680875861
