15
Coordinates from ORCA-job run
  C   0.63274146858226     -0.05079426783867      0.59690609418820
  C   -0.46957032004245     -0.11829884244825     -0.47390311639520
  Cl  -0.02168450841029      0.25689095759720      2.21989145376420
  H   -0.04349678999327     -0.45599709070485     -1.42154362920007
  C   1.34879085919947     -1.33820897799203      0.62284258388873
  N   2.02541160776625     -2.29919903534669      0.57949712502576
  N   1.47283707601007      1.07079213836361      0.24569228188780
  H   2.16319552198343      1.22359336186976      0.97184259634691
  H   1.95216566649054      0.90268627199030     -0.63380197103333
  N   -1.03224634481118      1.24526392925648     -0.72643231040259
  O   -1.78151586711385      1.69986051369726      0.12573156694583
  O   -0.66243420758101      1.78000487219984     -1.76592169972040
  N   -1.59704628241197     -1.06606269278066     -0.16452574381604
  O   -1.35159638997078     -1.98705159991061      0.60299661606026
  O   -2.63555148969724     -0.86247953795269     -0.77827184754006
