15
Coordinates from ORCA-job run
  C   0.68016421505275     -0.04193875565440      0.66464299567506
  C   -0.78727643436485     -0.03823349071945      0.19984814602406
  Cl  0.72513544665306      0.64640945603748      2.31604141141218
  H   -1.45728017798206     -0.39449848092298      0.97995576531709
  C   1.11049648735197     -1.44845701867598      0.79253001814474
  N   1.48697589652800     -2.55918334101221      0.87987700453713
  N   1.48254857212137      0.78619876107629     -0.18403558710175
  H   2.42348168674641      0.85976304287662      0.18387170071634
  H   1.50773990102210      0.39819298685537     -1.12082039076641
  N   -1.01039817970797     -0.89529661338923     -1.01007308199825
  O   -2.15941425500792     -1.29636864758683     -1.15544021936149
  O   -0.05851262349044     -1.09106708713755     -1.76003323093527
  N   -1.21600660985456      1.35752042995186     -0.17905351815704
  O   -1.60343412588169      2.05070151580226      0.75077534395814
  O   -1.12421979918617      1.66525724249875     -1.35908635746453
