15
Coordinates from ORCA-job run
  C   0.69247628560775     -0.09745826690258      0.57325674988071
  C   -0.71928779467989      0.21515685402492      0.07782360940689
  Cl  0.47274915793365     -0.57876525550794      2.32944897495818
  H   -1.17218975142525      0.99888607957476      0.68263109473124
  C   1.34828590663527     -1.21395846750588     -0.10919416492145
  N   1.99535746141382     -2.04700530649279     -0.62659303673626
  N   1.47163862367710      1.07024775282763      0.38235740542357
  H   2.45062605242153      0.91242169059194      0.58436261211104
  H   1.12619562666473      1.85774701840847      0.91795664670446
  N   -1.67207897369642     -0.94268539267686      0.08190770170747
  O   -1.21483282366358     -2.07717748456871      0.10006741303072
  O   -2.85321857375591     -0.61341970392972      0.02580580800712
  N   -0.66112968339532      0.71884185204438     -1.33680355646260
  O   -0.41614679501674     -0.12090057692165     -2.19490633187246
  O   -0.84844471872075      1.91906920703402     -1.48812092596864
