15
Coordinates from ORCA-job run
  C   0.74006454412288     -0.17066343345185      0.56434749289460
  C   -0.43578176774146     -0.06521883621568     -0.44438167495929
  Cl  0.09627044093285     -0.15328917622515      2.23066329591770
  H   -0.09414258712693     -0.35044147727035     -1.44023148054138
  C   1.39573018264405     -1.46538160277554      0.33436177117987
  N   1.97045626013422     -2.46673706730208      0.11663681635883
  N   1.73182450473025      0.85313526068257      0.43276555575741
  H   2.25528603352713      0.77603136505162     -0.42991300478310
  H   1.33669030080799      1.77502244267338      0.56018509460089
  N   -1.00942620636931      1.31175292666900     -0.58158862493054
  O   -0.85712045592740      2.11341233967260      0.33315807037454
  O   -1.62201318097694      1.49647019800088     -1.62811186233555
  N   -1.57586395948878     -0.98871261649176     -0.10205704566497
  O   -2.59307736994333     -0.49218846397912      0.36012372724299
  O   -1.34089673932526     -2.17319185903848     -0.30595813111196
