15
Coordinates from ORCA-job run
  C   0.68541292657468     -0.04962190707644      0.60490793401957
  C   -0.73059979536916      0.27042457072679      0.11778805487453
  Cl  0.51508306955134     -0.47197688875692      2.33460509741980
  H   -1.14334712527429      1.07648973139141      0.72134553763883
  C   1.29352738282634     -1.20343193993948     -0.07328441516419
  N   1.88141234651401     -2.08171997766217     -0.58853398473210
  N   1.45379646259639      1.17146426069106      0.51898884604161
  H   2.25526233697773      1.11292742416953      1.13646269923071
  H   1.78008855291952      1.29455427661752     -0.43348407369117
  N   -1.65538425416227     -0.90571434197545      0.20205666912521
  O   -1.45593728210069     -1.79897530668784     -0.61596376628309
  O   -2.51307926034600     -0.86594000846164      1.07560666921616
  N   -0.76739352923232      0.71128706006030     -1.31946235773415
  O   0.26487479228950      0.63752215682509     -1.97846265980874
  O   -1.86171662376477      1.10371089007823     -1.70257025015299
