15
Coordinates from ORCA-job run
  C   0.75278169269817     -0.03967244315486      0.57075448579262
  C   -0.43394114556247     -0.02433708574338     -0.43282240547212
  Cl  0.17817511828534      0.54342168760375      2.15778985266537
  H   -0.05155165841359     -0.12760849763005     -1.44868634705109
  C   1.21355939035235     -1.42858748846116      0.68260826263616
  N   1.62854391380412     -2.52758650361765      0.70146074924761
  N   1.86861592208465      0.76780025020857      0.17236649052200
  H   2.37046544822855      0.35111824164794     -0.60285767618051
  H   1.57276570692438      1.70841374638221     -0.05901942834833
  N   -1.16033134787157      1.29353716752117     -0.37588633350507
  O   -2.30682389177084      1.30458516544401      0.04405863572418
  O   -0.49612418278067      2.25454352738149     -0.75075586844248
  N   -1.45609716328679     -1.10518350808865     -0.25173084443813
  O   -1.57882176411070     -1.60973204428808      0.85716479284745
  O   -2.10021603858088     -1.36071221520532     -1.26444436599767
