15
Coordinates from ORCA-job run
  C   0.70299318347413     -0.05637815606301      0.71349345837825
  C   -0.74430092694059      0.01265355150754      0.15599825162880
  Cl  0.62622522429026      0.92293918407980      2.22902807103820
  H   -1.46471587247184     -0.39540682007037      0.86104620209936
  C   0.92703820293744     -1.45647963335675      1.09224444499537
  N   1.09466378196380     -2.58697446368284      1.36564315192985
  N   1.77593359142757      0.38573205064683     -0.09938250908271
  H   1.56559566532529      1.26729250879785     -0.54707863262935
  H   2.06225736035938     -0.31106505813220     -0.77371773945686
  N   -0.84186678784493     -0.79464196139347     -1.10518118479220
  O   -1.37855846558203     -1.89253111217408     -0.99780427793234
  O   -0.34381975228808     -0.30172554821027     -2.11326722565006
  N   -1.20141449169515      1.40200895555180     -0.17246446091652
  O   -2.40793556244188      1.58748143416175     -0.04755994359984
  O   -0.37009515051345      2.21509506833746     -0.56099760600996
