15
Coordinates from ORCA-job run
  C   0.71862279459407     -0.18573706750466      0.65356366152482
  C   -0.69736072501460      0.15761862707850      0.14865082980817
  Cl  0.46118156862411     -0.88293667725628      2.28914946191206
  H   -1.16913791528364      0.87141727023588      0.82200686372593
  C   1.39277634732971     -1.16146053644794     -0.20680254990748
  N   2.01144811099594     -1.86657409167113     -0.91408238246974
  N   1.56757178250072      0.95874210580276      0.77715952950571
  H   1.10784008017851      1.73071304847865      1.24353820967449
  H   1.94978778242981      1.25381618787031     -0.11213673325063
  N   -1.64252676217589     -0.99786290919163      0.00141911717257
  O   -1.17456936465381     -2.12406135974756     -0.09759161584133
  O   -2.82537210183375     -0.67310027383711     -0.03612083032451
  N   -0.60546096064529      0.81199139531879     -1.20084985017058
  O   -0.61710382869185      0.07485481911493     -2.18030111010565
  O   -0.47869680835401      2.03257946175650     -1.18560260125385
