15
Coordinates from ORCA-job run
  C   0.76767741659118     -0.14494218413582      0.45520775197457
  C   -0.69671088944867      0.21217184756855      0.20194392648408
  Cl  0.80621043194928     -0.75910793334709      2.18193603989252
  H   -1.04294223568416      0.94720457188327      0.92654014640526
  C   1.29561488497076     -1.20788186816258     -0.40165679237592
  N   1.84599975313195     -2.01242205628447     -1.05749933424542
  N   1.52857048917654      1.03113770442355      0.23844487296456
  H   1.28315336063801      1.77339753140979      0.88291349905325
  H   2.52389891854279      0.85172168063667      0.27638041074129
  N   -1.65770844015794     -0.93824962362199      0.25602318771572
  O   -2.83056374872945     -0.59815736503845      0.37889568209998
  O   -1.22099583314377     -2.07295933300092      0.12170856060776
  N   -0.84055216628148      0.82649474086914     -1.16196588475196
  O   -1.02937294309994      2.03559710344126     -1.19029930122332
  O   -0.73327899845513      0.05699518335908     -2.10957276534240
