15
Coordinates from ORCA-job run
  C   0.68461408996432     -0.03395212636048      0.66072428289908
  C   -0.78607236439126     -0.02211773654604      0.20602505805185
  Cl  0.75035519190545      0.69550847905902      2.29373903699768
  H   -1.45487412579606     -0.34954148422847      0.99964938048970
  C   1.09624000637957     -1.44265083657066      0.82161050498583
  N   1.45286583864335     -2.55772793252697      0.93332624604806
  N   1.49210622859290      0.76122815732150     -0.21401963672391
  H   1.50519177677168      0.34972092937907     -1.14099868712102
  H   2.43650815261470      0.83164039969878      0.14550323911358
  N   -1.02859255509660     -0.90675674297690     -0.97993813310699
  O   -0.08501383792293     -1.13182211855390     -1.73216704794108
  O   -2.18297660613936     -1.29899830844980     -1.10612125334496
  N   -1.19922664158251      1.36915307140406     -0.20474440612040
  O   -1.57340119459267      2.08946904783988      0.70979575467332
  O   -1.10972395935060      1.64684720151091     -1.39238433890076
