15
Coordinates from ORCA-job run
  C   0.76459328456800     -0.13320348698959      0.46433817272681
  C   -0.70229405918888      0.19915357732468      0.19182991734581
  Cl  0.78850885662111     -0.75231230397538      2.19004996518883
  H   -1.07011956996308      0.92763874688214      0.91232324448514
  C   1.32233571574834     -1.18449252700961     -0.38803682915346
  N   1.89520113672764     -1.96553389802934     -1.05299466549514
  N   1.50845024388131      1.05553279256355      0.26132520102898
  H   2.50602822308369      0.89389021184398      0.31519534749991
  H   1.23878460396187      1.79420107438854      0.90010747716391
  N   -1.64322971857814     -0.96791273010757      0.23391402062377
  O   -1.18524884372696     -2.09449491199874      0.10210664190299
  O   -2.82168069744241     -0.65009315380085      0.36375489133724
  N   -0.83910216520106      0.81237927674264     -1.17330150109230
  O   -1.04515222718084      2.01878075217062     -1.20189574348869
  O   -0.71407478331057      0.04546657999493     -2.12071614007381
