15
Coordinates from ORCA-job run
  C   0.80589826453095     -0.07937122852972      0.43882121057606
  C   -0.72291491008535     -0.07486482956010      0.29313654607184
  Cl  1.12264577384996      0.93805363944911      1.95150943880733
  H   -1.20183275650261     -0.57360134669263      1.13313423789145
  C   1.25709426294792     -1.42819220603930      0.79241752780679
  N   1.66433968501896     -2.49165511419738      1.08163821428952
  N   1.44724346234599      0.34354897964146     -0.73590333325951
  H   1.18196279104442      1.28369950701635     -0.99963885218724
  H   2.45149093718209      0.23422319960607     -0.69225333850558
  N   -1.10825188209665     -0.82038886568937     -0.96447310464583
  O   -1.43919366631834     -0.16297951094286     -1.94000021430335
  O   -1.02559143199931     -2.03736619673899     -0.86840311967901
  N   -1.31747506320834      1.29582389236362      0.20020063846542
  O   -0.67113148875430      2.17230143780926     -0.36253699011515
  O   -2.44428397795540      1.40076864250453      0.67235113878731
