15
Coordinates from ORCA-job run
  C   0.74299772130001     -0.16971240908964      0.42974576896514
  C   -0.48259745812655     -0.04216953131918     -0.49256160499850
  Cl  0.21182251898451     -0.18066994116662      2.16982821756960
  H   -0.19617107454039     -0.30882357095221     -1.50956354212404
  C   1.37193498952845     -1.47177258202647      0.18017589963844
  N   1.94160226138678     -2.47987583040320     -0.01867676220797
  N   1.66894631523247      0.85352939043658      0.08587595615644
  H   1.34719688947160      1.75354186216237      0.42095501870313
  H   2.58903608573002      0.65338678536110      0.45731862060876
  N   -1.06090616657337      1.33755732015864     -0.56431690551206
  O   -0.80143219336856      2.13988419032684      0.32543683105027
  O   -1.78673150295272      1.52286467505181     -1.53419867154365
  N   -1.59383344139375     -0.97171084740830     -0.08251178155818
  O   -2.57042736394625     -0.48537943586608      0.46939832718756
  O   -1.38143758073225     -2.15065007526570     -0.33690537193494
