15
Coordinates from ORCA-job run
  C   0.71339671353011      0.02102451158499      0.63061178152525
  C   -0.77238660448807     -0.07385662477258      0.23935047997333
  Cl  0.79720929255174      0.77142503329870      2.25353133077557
  H   -1.38279413264778     -0.43781536956305      1.06356029025794
  C   1.22745214675793     -1.35428498307153      0.78620138894379
  N   1.66234139116516     -2.44139289485919      0.89629181782046
  N   1.42603501863539      0.86007956893689     -0.28422804875654
  H   1.42754130858303      0.44123329608747     -1.20795357844507
  H   2.37785142776214      0.99922484894925      0.03316784816287
  N   -1.00333760497882     -0.98616086390708     -0.92799327630437
  O   -2.13280207105145     -1.45628490982368     -1.00194449110249
  O   -0.07760045951066     -1.15874918117022     -1.71543922818876
  N   -1.29791301061343      1.28091855092019     -0.16518638663466
  O   -1.68267584701494      1.98415833747120      0.75820412718533
  O   -1.28031756868035      1.54948067991871     -1.35817405521261
