15
Coordinates from ORCA-job run
  C   0.69026616889738     -0.12205519578522      0.58824872888690
  C   -0.71507690288710      0.29539255962154      0.14587833299116
  Cl  0.52061374876528     -0.65749058193696      2.28631328874641
  H   -1.08042577527804      1.07867362264736      0.80728810879478
  C   1.23658761584974     -1.25135537859918     -0.17820224609783
  N   1.77587703594656     -2.12218539861615     -0.75553822433096
  N   1.51307446794064      1.06612536195458      0.57679672433878
  H   1.83238024436877      1.24209724775696     -0.36969629100223
  H   2.31879195732254      0.92763109520993      1.17571149474257
  N   -1.69404253637212     -0.83879755698831      0.16859373838614
  O   -2.54147555064655     -0.81332958067718      1.05263121451600
  O   -1.54463505750640     -1.68754056365884     -0.70562151539818
  N   -0.75011082347689      0.83046320461851     -1.25925122767289
  O   0.27193898237227      0.76362735889058     -1.93462195097755
  O   -1.83276357529600      1.28774380556237     -1.60153017592314
