15
Coordinates from ORCA-job run
  C   0.57407399003137     -0.05423831448459      0.73267441917364
  C   -0.79064691581290      0.16257769682227      0.06066379025009
  Cl  0.27371106574063     -0.37353197690941      2.46356633505359
  H   -1.42849728891020      0.76845463674927      0.70351397328968
  C   1.31452378277401     -1.19597750778224      0.17717769726429
  N   1.98653677906577     -2.05341056805291     -0.26479314287018
  N   1.27940424612106      1.20834858076293      0.64019364648430
  H   1.97914316480860      1.26188748336484      1.37067057492293
  H   1.74417208278876      1.27696769257181     -0.25962013065210
  N   -1.53321790982152     -1.11298790144897     -0.26714896694368
  O   -1.32554800162424     -2.06783920246319      0.46875549912136
  O   -2.32298617913537     -1.04865129940971     -1.19970219533885
  N   -0.62784624107213      0.90029685114671     -1.22869412102529
  O   0.26767840930878      0.49382296609286     -1.96592853874512
  O   -1.38950098426264      1.83628086304034     -1.43032883998467
