15
Coordinates from ORCA-job run
  C   0.77587935770911     -0.10959556496543      0.48329471661692
  C   -0.73810105277907      0.02423718667512      0.26253978908202
  Cl  1.13309756589197      1.02607610524050      1.89949515594554
  H   -1.29725302676119     -0.33866293563803      1.12238887136176
  C   1.07608541516871     -1.45054972085205      0.99290007403317
  N   1.35371957208004     -2.51157780750219      1.41428894830842
  N   1.50119807226603      0.12550239983210     -0.69527751837359
  H   2.48771029912146     -0.07025092770641     -0.59098541363837
  H   1.33898665908589      1.05304573679730     -1.06572428409644
  N   -1.14494777566761     -0.80667516932311     -0.93354333523689
  O   -1.17721691907156     -2.01038767913907     -0.71672717905275
  O   -1.36667558110250     -0.22501892525834     -1.98509078412247
  N   -1.18917405778479      1.42842269778417      0.00685455186377
  O   -0.43925942175792      2.17528110593348     -0.61164462790474
  O   -2.31504910639853      1.69015349812198      0.41623103521363
