15
Coordinates from ORCA-job run
  C   0.82415659236655      0.19043784177623      0.31956090715971
  C   -0.51269312138588      0.38908512665605     -0.39427361611836
  Cl  1.32418561842447      1.87484612475575      0.84588156384884
  H   -0.40230872988069      1.08057121189467     -1.22777243424806
  C   0.75979831177581     -0.64404767634252      1.52033215185616
  N   0.84071621459096     -1.35364761544525      2.45323105310271
  N   1.70764339518797     -0.41698100862834     -0.60650947717503
  H   2.58464052833490     -0.68351977751829     -0.17755963132197
  H   1.87769448598545      0.16532342491050     -1.41791307642175
  N   -1.62510366514049      0.91470598834225      0.46280218513898
  O   -1.53998451164179      0.78493927646384      1.67625272348145
  O   -2.55420730495210      1.40298197581626     -0.17367079139960
  N   -0.98660087102626     -0.92023133130504     -0.95959337954341
  O   -1.40654415353681     -1.73502536677561     -0.14640017031005
  O   -0.89039278910217     -1.04743819460046     -2.17336800804958
