15
Coordinates from ORCA-job run
  C   0.69620079983053     -0.11516895799992      0.51113561666094
  C   -0.52462866740037     -0.06693833584090     -0.42337229413720
  Cl  0.24528190662071      0.06219714768475      2.22038246264603
  H   -0.22169865846836     -0.32746527822052     -1.44020498798967
  C   1.37120648799895     -1.41405465095878      0.34276830679402
  N   2.00905822573155     -2.38073402254431      0.13788724924826
  N   1.52286161185510      1.01583988026883      0.15836702590887
  H   2.29543931280133      1.09333732054315      0.80978251340675
  H   1.89411680503587      0.91377266668058     -0.78144531823128
  N   -1.07318687699763      1.32395503904378     -0.49041068080128
  O   -0.81244016893510      1.94088379976693     -1.51735770275242
  O   -1.70429357659011      1.71575942438163      0.48039048812719
  N   -1.63601979106429     -1.01610161494943     -0.06492966579871
  O   -1.33156811682622     -2.00363732673005      0.59068506315707
  O   -2.73132929359196     -0.74164509112578     -0.53567807623860
