15
Coordinates from ORCA-job run
  C   0.72546379535425     -0.17449948054518      0.45610452040421
  C   -0.46619451296922     -0.04497001906635     -0.50972058655699
  Cl  0.13045542333118     -0.19427702232011      2.17543306440000
  H   -0.14727318508139     -0.32066831718502     -1.51457510284224
  C   1.36763937245334     -1.47326634516584      0.22368675066468
  N   1.94904761693356     -2.47742438834898      0.03929621702965
  N   1.66025307546507      0.85292236497347      0.15080823805052
  H   2.56866135320396      0.65127050511690      0.54885951583590
  H   1.32708229165222      1.75026766372323      0.48187467978891
  N   -1.02884672484166      1.33881072552268     -0.60933864894525
  O   -0.82328318344305      2.13009480225598      0.30439656320111
  O   -1.68887513083708      1.53840913589864     -1.62239530148442
  N   -1.59806339448730     -0.96409892377516     -0.13272113770205
  O   -1.37094391818756     -2.14910377770391     -0.34128719445773
  O   -2.60412287854630     -0.46446692338039      0.34957842261371
