12
Coordinates from ORCA-job run
  C   -0.70105030776660     -0.20426517154842     -0.10953088940670
  C   0.71737875304109      0.32309130631091     -0.10318047296243
  Cl  -1.20214357606688     -0.46205836724932      1.63295770184577
  H   0.81003844442741      1.24595690499605      0.46690594310158
  H   -0.72199085866556     -1.19728257974201     -0.55332728276649
  H   1.04775294405764      0.46341387275050     -1.13372102582712
  N   -1.53662543004665      0.67977882262588     -0.83709928488474
  H   -2.46264510184280      0.29336059485881     -0.96146491121545
  H   -1.61996713917537      1.57757398012695     -0.37672426928152
  N   1.65204650819791     -0.66095281414851      0.51447150235374
  O   1.57743049391178     -1.81630946744202      0.10496719268363
  O   2.43977526992802     -0.24230708153882      1.35674579635974
