14

C	-0.36225	-0.007195	-1.477013
C	0.0	0.0	0.0
Cl	-2.169567	0.078846	-1.696522
H	1.096021	0.0	0.0
H	-0.08195	-0.970816	-1.908844
H	-0.349119	0.938651	0.443453
C	0.29624	1.129345	-2.22833
H	1.377059	1.050832	-2.080156
H	-0.040223	2.090079	-1.831303
H	0.065575	1.093937	-3.295023
N	-0.483203	-1.12038	0.794003
H	-1.452	-1.312773	0.566726
H	0.066121	-1.941707	0.572762
Cl	3.555336	0.0	0.0
