14

C	-0.48999	0.011181	-1.451096
C	0.0	0.0	0.0
Cl	0.001449	-1.530892	-2.240536
H	1.093005	0.0	0.0
H	0.035571	0.797336	-1.999286
H	-0.355399	-0.916	0.483791
C	-1.992437	0.159237	-1.611524
H	-2.283048	0.088118	-2.661446
H	-2.326322	1.130048	-1.236592
H	-2.509341	-0.630169	-1.059083
N	-0.418436	1.156226	0.78873
H	-1.402717	1.363549	0.680246
H	0.124059	1.967524	0.520608
Cl	3.611105	0.0	0.0
