16

C	-0.271184	-0.102599	-1.479656
C	0.0	0.0	0.0
Cl	0.200446	-1.678955	-2.048997
H	1.094717	0.0	0.0
N	-1.734469	0.111115	-1.915767
O	-1.958261	0.962963	-2.764066
O	-2.541221	-0.625428	-1.375899
N	0.535755	0.98673	-2.210782
O	1.042836	0.708329	-3.284165
O	0.547607	2.070315	-1.648764
C	-0.500176	-1.115742	0.768494
N	-0.849047	-2.002635	1.458175
N	-0.538199	1.247278	0.62789
O	0.085726	1.678686	1.589582
O	-1.581241	1.720017	0.176236
F	2.417998	0.0	0.0
