16

C	-0.469961	-0.011848	-1.441533
C	0.0	0.0	0.0
Cl	0.284889	1.277423	-2.321592
H	1.090205	0.0	0.0
N	-0.096386	-1.336205	-2.127279
O	-0.677734	-1.553973	-3.189646
O	0.82057	-1.970049	-1.621374
N	-2.003068	0.024885	-1.613156
O	-2.517698	1.027007	-2.079044
O	-2.556592	-0.955141	-1.133483
C	-0.513063	-1.09076	0.803375
N	-0.890157	-1.960511	1.499354
N	-0.466436	1.306549	0.616497
O	-1.682529	1.448272	0.751269
O	0.40604	2.076438	0.996379
F	2.475163	0.0	0.0
