13

C	0.0	0.0	0.0
C	-0.512905	0.228579	-1.420174
Br	1.961217	0.0	0.0
H	-0.230684	1.219673	-1.769727
H	-1.612744	0.118652	-1.363254
C	-0.396563	1.140676	0.831645
N	-0.57841	2.067642	1.531349
C	-0.416974	-1.255584	0.630532
N	-0.589375	-2.256705	1.222123
N	0.023209	-0.744904	-2.397368
O	0.216829	-0.325074	-3.537762
O	0.189137	-1.904074	-2.027196
Cl	-3.287986	0.0	0.0
