13

C	0.0	0.0	0.0
C	-0.601316	0.169353	-1.388397
Br	1.959815	0.0	0.0
H	-1.696106	0.278959	-1.241916
H	-0.169243	1.034492	-1.892686
C	-0.378659	1.182469	0.784929
N	-0.605886	2.159081	1.399708
C	-0.422141	-1.219109	0.693224
N	-0.651012	-2.19794	1.302643
N	-0.392899	-0.995216	-2.285381
O	-0.912524	-0.898012	-3.391354
O	0.259892	-1.956569	-1.885228
Cl	-3.42782	0.0	0.0
