13

C	0.0	0.0	0.0
C	-0.513619	0.029104	-1.440784
Br	1.958769	0.0	0.0
H	-0.275504	-0.901923	-1.952599
H	-1.607313	0.1639	-1.359863
C	-0.41692	1.13727	0.826638
N	-0.578473	2.067777	1.525737
C	-0.401549	-1.26886	0.61236
N	-0.559129	-2.339403	1.070441
N	0.051634	1.125561	-2.260475
O	0.378491	2.170948	-1.702941
O	0.111932	0.911557	-3.471841
Cl	-3.28566	0.0	0.0
