19

C	0.0	0.0	0.0
C	-0.503945	-0.271945	-1.430684
F	1.403932	0.0	0.0
H	-1.562225	-0.534437	-1.352437
C	-0.468682	1.36199	0.464224
H	-0.05117	2.152333	-0.162738
H	-0.12812	1.522139	1.49012
H	-1.561058	1.397329	0.439124
C	-0.440827	-1.087084	0.960915
H	-0.04432	-2.057149	0.659345
H	-1.531762	-1.129533	0.984842
H	-0.062975	-0.849149	1.959031
N	0.214449	-1.493132	-1.945203
O	1.277793	-1.315074	-2.534844
O	-0.290713	-2.59202	-1.714088
N	-0.332071	0.766966	-2.403893
H	-1.08632	1.433244	-2.30187
H	0.55874	1.230927	-2.281219
Br	-3.93225	0.0	0.0
