19

C	0.0	0.0	0.0
C	-0.337267	0.160807	-1.501192
F	1.400514	0.0	0.0
H	0.053998	-0.720382	-2.012906
C	-0.487942	1.118935	0.892485
H	-1.580621	1.123843	0.923522
H	-0.124375	2.085098	0.547376
H	-0.118341	0.937943	1.905549
C	-0.50482	-1.34498	0.472226
H	-1.596815	-1.361683	0.413821
H	-0.08524	-2.149098	-0.138532
H	-0.2066	-1.505579	1.511549
N	0.545994	1.27183	-2.06144
O	1.472102	0.942867	-2.801305
O	0.262884	2.427465	-1.759229
N	-1.675567	0.417356	-1.887468
H	-2.25344	0.835755	-1.166391
H	-2.15579	-0.429011	-2.155542
Br	-4.371356	0.0	0.0
