19

C	0.0	0.0	0.0
C	-0.471617	-0.144138	-1.449516
F	1.40472	0.0	0.0
H	-1.566432	-0.182612	-1.442441
C	-0.474233	1.331773	0.541565
H	-0.117481	1.441067	1.56956
H	-0.090811	2.148181	-0.069045
H	-1.567141	1.345357	0.53375
C	-0.456123	-1.145638	0.877872
H	-0.141569	-0.943167	1.904896
H	-1.545566	-1.217863	0.840546
H	-0.011536	-2.090075	0.560642
N	-0.020708	-1.516176	-1.965716
O	1.07221	-1.575883	-2.534788
O	-0.764559	-2.474756	-1.773676
N	0.032868	0.905392	-2.269155
H	1.039389	0.816534	-2.334458
H	-0.362443	0.849907	-3.198542
Br	-3.971999	0.0	0.0
