19

C	0.0	0.0	0.0
C	-0.153919	-0.086838	-1.554395
F	1.412386	0.0	0.0
H	0.381029	0.785882	-1.932426
C	-0.512003	1.301339	0.558271
H	-0.187926	1.406355	1.597804
H	-1.606194	1.29541	0.522482
H	-0.135129	2.148457	-0.019349
C	-0.525553	-1.200217	0.739126
H	-0.248007	-1.133986	1.794407
H	-1.618355	-1.206355	0.65926
H	-0.117641	-2.127198	0.332271
N	-1.534671	0.073367	-2.110621
O	-1.906512	1.226683	-2.307388
O	-2.158261	-0.948268	-2.375515
N	0.405345	-1.278438	-2.156522
H	-0.246055	-2.042981	-2.025113
H	1.272068	-1.490627	-1.680301
Br	-4.196239	0.0	0.0
