19

C	0.0	0.0	0.0
C	-0.320233	0.063063	-1.513315
F	1.401762	0.0	0.0
H	0.112374	-0.832308	-1.963633
C	-0.497247	1.170605	0.817377
H	-0.119455	2.11352	0.426036
H	-1.590198	1.185684	0.820869
H	-0.153769	1.04535	1.847996
C	-0.509291	-1.314995	0.547227
H	-0.097154	-2.15351	-0.02137
H	-1.601344	-1.332427	0.494658
H	-0.207262	-1.421505	1.592121
N	0.544272	1.16611	-2.125012
O	0.227107	2.330308	-1.898094
O	1.492032	0.817982	-2.828857
N	-1.657724	0.252052	-1.934245
H	-2.277078	0.660446	-1.240292
H	-2.090495	-0.617432	-2.206525
Br	-4.345646	0.0	0.0
