17

C	-0.101778	-0.050648	-1.550904
C	0.0	0.0	0.0
Br	0.07644	1.817936	-2.296845
H	1.092144	0.0	0.0
N	0.927842	-0.895916	-1.949072
H	1.786132	-0.654847	-1.393846
H	1.087493	-0.887904	-2.947385
N	-1.468963	-0.570928	-2.052385
O	-2.304681	0.195048	-2.51332
O	-1.642835	-1.778775	-1.876395
N	-0.445319	-1.158605	0.711484
H	0.340744	-1.789295	0.773034
H	-1.214566	-1.631061	0.256966
N	-0.711941	1.180293	0.548556
O	-1.937864	1.172909	0.40261
O	-0.074003	2.047486	1.136742
F	2.636076	0.0	0.0
