17

C	-0.679018	-0.043237	-1.360102
C	0.0	0.0	0.0
Br	0.177521	-1.59249	-2.362166
H	1.094984	0.0	0.0
N	-2.060015	-0.170463	-1.231176
H	-2.234336	-0.967583	-0.628876
H	-2.52937	-0.24921	-2.12238
N	-0.348492	1.118293	-2.287564
O	-1.263718	1.501599	-3.015538
O	0.796149	1.532936	-2.287425
N	-0.407138	-1.194582	0.734363
H	0.457299	-1.692655	0.919698
H	-0.763159	-0.889713	1.633571
N	-0.46811	1.216363	0.715476
O	-0.615581	2.2494	0.063482
O	-0.633091	1.149073	1.937954
F	2.49818	0.0	0.0
