17

C	-0.216331	0.022556	-1.513425
C	0.0	0.0	0.0
Br	0.519249	1.635605	-2.29693
H	1.107213	0.0	0.0
N	0.491874	-1.093671	-2.088078
H	1.455153	-0.943468	-1.765821
H	0.161662	-1.902126	-1.562579
N	-1.691924	-0.108645	-1.907131
O	-2.199015	-1.17578	-1.551746
O	-2.283701	0.787577	-2.488257
N	-0.369207	-1.249231	0.595045
H	0.23463	-1.417064	1.386766
H	-1.341627	-1.29191	0.867478
N	-0.580033	1.152002	0.742611
O	-1.316403	1.946138	0.152466
O	-0.307079	1.218113	1.942111
F	2.548972	0.0	0.0
