17

C	-0.465239	-0.002483	-1.451627
C	0.0	0.0	0.0
Br	-2.487703	0.115183	-1.5367
H	1.090805	0.0	0.0
N	0.167625	0.915067	-2.316251
H	-0.169069	0.797052	-3.274484
H	0.008306	1.872231	-1.987973
N	-0.129868	-1.369332	-2.048871
O	0.963047	-1.818572	-1.736015
O	-0.882072	-1.829556	-2.905921
N	-0.507833	-1.129307	0.687163
H	-1.463615	-0.98631	0.997042
H	0.073069	-1.322492	1.493684
N	-0.427588	1.309058	0.644535
O	-0.215536	2.358062	0.033876
O	-0.805567	1.257483	1.815941
F	2.504733	0.0	0.0
