17

C	-0.579362	-0.047132	-1.403227
C	0.0	0.0	0.0
Br	0.378146	-1.435107	-2.395797
H	1.088784	0.0	0.0
N	-1.965084	-0.347766	-1.458923
H	-2.442334	0.412994	-0.985707
H	-2.270007	-0.378252	-2.424492
N	-0.241297	1.24914	-2.1921
O	0.744216	1.887214	-1.855963
O	-0.996684	1.516024	-3.127952
N	-0.381778	-1.139793	0.78565
H	-1.13876	-1.658219	0.364442
H	0.437699	-1.717559	0.898002
N	-0.500345	1.231184	0.700549
O	-0.001371	1.489971	1.786603
O	-1.386994	1.921391	0.162591
F	2.522864	0.0	0.0
