17

C	-0.102924	0.10311	-1.563545
C	0.0	0.0	0.0
Br	-1.755738	0.929278	-2.220902
H	1.09284	0.0	0.0
N	1.034153	0.70798	-2.16763
H	1.840548	0.431094	-1.559566
H	0.931411	1.708119	-2.034966
N	-0.123284	-1.378372	-1.997385
O	0.982016	-1.894952	-2.094757
O	-1.194598	-1.965886	-2.111235
N	-0.564027	-1.100225	0.680326
H	0.091388	-1.866904	0.682928
H	-1.460307	-1.39246	0.320362
N	-0.469298	1.299582	0.568559
O	-1.324061	1.295011	1.452077
O	0.037862	2.320465	0.100541
F	2.605221	0.0	0.0
