14

C	-0.344101	0.115378	-1.477569
C	0.0	0.0	0.0
F	-0.38528	1.491933	-1.798316
H	1.098516	0.0	0.0
H	-0.321939	-0.992875	0.330931
N	0.635455	-0.517428	-2.27136
H	0.340809	-1.340159	-2.765659
H	1.527502	-0.606896	-1.782925
C	-1.697452	-0.387845	-1.807465
N	-2.759788	-0.807417	-2.080175
N	-0.665301	1.021443	0.806859
H	-0.280926	1.912846	0.509433
H	-0.34053	0.886023	1.760606
H	2.998126	0.0	0.0
