14

C	-0.250778	0.257219	-1.485256
C	0.0	0.0	0.0
F	-1.550688	0.774137	-1.712176
H	1.103655	0.0	0.0
H	-0.421692	-0.957167	0.313636
N	0.702083	1.211259	-1.94068
H	1.614954	1.000382	-1.509982
H	0.787434	1.207974	-2.948783
C	-0.240219	-1.010228	-2.26441
N	-0.230719	-1.971117	-2.940981
N	-0.451311	1.090221	0.854223
H	0.270481	1.800929	0.849391
H	-1.285447	1.507292	0.459431
H	2.898024	0.0	0.0
