14

C	-0.570906	0.024591	-1.406709
C	0.0	0.0	0.0
F	-0.023753	-1.061656	-2.12388
H	1.096459	0.0	0.0
H	-0.366245	0.890544	0.518759
N	-1.99123	-0.06807	-1.36738
H	-2.349893	-0.292982	-2.287609
H	-2.192722	-0.821748	-0.715207
C	-0.185958	1.236948	-2.162075
N	0.079202	2.177157	-2.811293
N	-0.525217	-1.214319	0.659673
H	0.183688	-1.930042	0.523243
H	-0.545268	-1.037491	1.656469
H	2.970433	0.0	0.0
