14

C	0.0	0.0	0.0
C	-0.475522	-0.02172	-1.433472
Cl	1.786351	0.0	0.0
H	-0.06476	0.824045	-1.986944
H	-0.122236	-0.952329	-1.887366
H	-1.574375	0.007342	-1.349821
N	-0.415976	1.304795	0.670025
O	-0.529671	2.293226	-0.044368
O	-0.52967	1.300123	1.889586
C	-0.475523	-1.177657	0.81758
H	-0.122231	-2.088775	0.325733
H	-0.064765	-1.134671	1.827434
H	-1.574375	-1.092742	0.792454
F	-2.811899	0.0	0.0
