14

C	0.0	0.0	0.0
C	-0.510662	0.169449	-1.408403
Cl	1.786449	0.0	0.0
H	-0.137054	1.092169	-1.850256
H	-0.164982	-0.683134	-1.999486
H	-1.608418	0.166577	-1.280426
N	-0.397144	1.21371	0.837263
O	-0.50301	2.288983	0.259079
O	-0.504176	1.054123	2.047465
C	-0.509665	-1.25532	0.661172
H	-1.607063	-1.128825	0.630588
H	-0.117023	-1.351568	1.67277
H	-0.183731	-2.109841	0.061786
F	-2.860609	0.0	0.0
