11
Coordinates from ORCA-job run
  C   -0.13475899025342      0.22295368883876      0.32143882136612
  C   1.15688802181265     -0.50716477531692      0.02359924156515
  F   -0.06430885281844      0.74478388702249      1.60405190435194
  H   2.00074838159154      0.16547220118892      0.17654122994151
  H   1.23271185723529     -1.35110264510543      0.71009821404776
  H   1.17393256092848     -0.86683194711364     -1.00717956569003
  C   -0.29713032459523      1.39563636102259     -0.58250333037309
  N   -0.45193985967339      2.27990100246332     -1.33977123673639
  N   -1.24824878402567     -0.67510377318572      0.29120485868652
  H   -1.24317058592238     -1.23504949998448     -0.55079790062923
  H   -2.12572342427943     -0.17349449982990      0.35331776346975
