13

C	-0.540857	-0.035546	-1.413686
C	0.0	0.0	0.0
Br	-0.275529	-1.765185	-2.279737
H	1.093105	0.0	0.0
H	0.041755	0.655225	-2.03296
H	-0.282232	1.006465	0.372223
N	-1.976703	0.23302	-1.408454
H	-2.330096	0.207964	-2.358096
H	-2.103731	1.178261	-1.057998
N	-0.514053	-1.080175	0.820842
H	-1.459326	-0.884713	1.122246
H	0.081189	-1.192169	1.630052
Cl	3.580311	0.0	0.0
