13

C	-0.54579	0.019796	-1.421562
C	0.0	0.0	0.0
Br	-0.182514	-1.718067	-2.279891
H	1.093925	0.0	0.0
H	0.033786	0.717892	-2.035305
H	-0.378271	-0.894059	0.501429
N	-1.964592	0.254364	-1.40497
H	-2.286408	0.549398	-2.318183
H	-2.09621	1.007315	-0.734328
N	-0.490476	1.215713	0.694467
H	0.291412	1.85654	0.773068
H	-0.752835	0.970453	1.64054
Cl	3.561669	0.0	0.0
