13

C	-0.380102	-0.124322	-1.474373
C	0.0	0.0	0.0
Br	-0.304211	1.760282	-2.330271
H	1.095347	0.0	0.0
H	-1.433228	-0.361522	-1.635357
H	-0.378221	0.926428	0.430653
N	0.452379	-1.062301	-2.100281
H	1.433334	-0.871548	-1.906676
H	0.287385	-1.152964	-3.091958
N	-0.46813	-1.141604	0.78173
H	-0.007571	-1.973104	0.432406
H	-1.46703	-1.266583	0.650236
Cl	3.564115	0.0	0.0
