13

C	-0.447039	-0.078389	-1.450107
C	0.0	0.0	0.0
Br	-0.285304	1.696867	-2.311537
H	1.102207	0.0	0.0
H	-1.511355	-0.304952	-1.533195
H	-0.310703	-0.960755	0.435468
N	0.321969	-1.017055	-2.230023
H	0.084651	-1.954412	-1.917814
H	1.307605	-0.869117	-2.015637
N	-0.651342	1.065192	0.764102
H	-0.354179	0.963153	1.728809
H	-0.255138	1.944388	0.449053
Cl	3.550954	0.0	0.0
