13

C	-0.57173	0.049823	-1.413292
C	0.0	0.0	0.0
Br	-0.164413	-1.621228	-2.339954
H	1.094147	0.0	0.0
H	-0.061968	0.826226	-1.986767
H	-0.367581	-0.902429	0.499409
N	-2.006054	0.278932	-1.490062
H	-2.471339	-0.52165	-1.071932
H	-2.157039	1.065053	-0.860445
N	-0.482154	1.21388	0.700295
H	0.31727	1.822042	0.836694
H	-0.809947	0.964403	1.624454
Cl	3.545772	0.0	0.0
