17

C	-0.275831	0.031035	-1.508781
C	0.0	0.0	0.0
Br	-2.173832	0.52075	-1.923353
H	1.106326	0.0	0.0
N	0.586431	1.005854	-2.110489
H	1.533305	0.874934	-1.743426
H	0.597398	0.912629	-3.118345
C	-0.145328	-1.321064	-2.080342
N	0.012967	-2.377928	-2.573594
N	-0.577176	-1.195099	0.605719
H	0.074603	-1.963908	0.484226
H	-0.649702	-1.038524	1.604428
C	-0.475168	1.255804	0.703109
H	0.039655	1.339232	1.664493
H	-0.237044	2.138617	0.109751
H	-1.554625	1.214653	0.871936
Br	3.541423	0.0	0.0
