17

C	-0.264224	0.023782	-1.517495
C	0.0	0.0	0.0
Br	-2.140569	0.549418	-1.92667
H	1.106564	0.0	0.0
N	0.612219	0.90702	-2.258867
H	0.458994	1.855462	-1.932142
H	1.570655	0.657797	-1.995163
C	-0.122282	-1.333335	-2.060946
N	0.009042	-2.42711	-2.46988
N	-0.596822	-1.179357	0.618815
H	-0.596823	-1.042404	1.623491
H	0.008182	-1.975378	0.442893
C	-0.462635	1.253789	0.716662
H	0.032631	1.302765	1.690434
H	-0.18951	2.159343	0.172323
H	-1.545703	1.23812	0.859416
Br	3.546677	0.0	0.0
