17

C	-0.287811	-0.037597	-1.527764
C	0.0	0.0	0.0
Br	0.026115	1.813966	-2.370797
H	1.098595	0.0	0.0
N	0.542794	-1.021728	-2.100399
H	1.510828	-0.869155	-1.80815
H	0.473465	-1.061351	-3.108453
C	-1.702601	-0.283882	-1.812234
N	-2.847107	-0.503475	-1.970271
N	-0.455355	-1.234453	0.623839
H	-0.027642	-2.02465	0.155713
H	-1.464659	-1.320273	0.539146
C	-0.579134	1.183976	0.741813
H	-1.667264	1.239996	0.614077
H	-0.137865	2.12271	0.413739
H	-0.362306	1.043073	1.801682
Br	3.573453	0.0	0.0
