17

C	-0.290459	0.002427	-1.507565
C	0.0	0.0	0.0
Br	-2.218775	0.334647	-1.869796
H	1.106605	0.0	0.0
N	0.473112	0.974179	-2.265693
H	1.456568	0.830338	-2.018181
H	0.212484	1.901553	-1.947319
C	-0.01774	-1.33186	-2.060236
N	0.223753	-2.404442	-2.474071
N	-0.562322	-1.192737	0.63411
H	0.05411	-1.974449	0.431388
H	-0.514629	-1.058352	1.638375
C	-0.481435	1.24405	0.719117
H	-0.194394	2.15644	0.193685
H	-0.007957	1.283014	1.704381
H	-1.567057	1.224477	0.84114
Br	3.526592	0.0	0.0
