13

C	-0.540279	0.016326	-1.421436
C	0.0	0.0	0.0
Br	0.270028	1.474886	-2.412962
H	1.091265	0.0	0.0
H	-0.308467	0.938017	0.473166
N	-0.188982	-1.284671	-2.170697
O	-0.780175	-1.463221	-3.227348
O	0.648292	-2.004262	-1.657345
C	-1.990862	0.158685	-1.482558
N	-3.158674	0.295027	-1.478996
C	-0.563881	-1.113903	0.753383
N	-1.064534	-1.986405	1.358107
Cl	3.25421	0.0	0.0
