13

C	-0.53787	-0.021662	-1.423437
C	0.0	0.0	0.0
Br	0.229246	1.409716	-2.482999
H	1.091113	0.0	0.0
H	-0.331517	-0.909285	0.510739
N	-0.169926	-1.354789	-2.111649
O	0.572771	-2.108595	-1.50579
O	-0.669294	-1.533183	-3.213457
C	-1.992929	0.074195	-1.487391
N	-3.166272	0.153571	-1.501681
C	-0.515452	1.164867	0.707993
N	-0.9681	2.079681	1.288333
Cl	3.248417	0.0	0.0
