13

C	-0.436513	0.049078	-1.45013
C	0.0	0.0	0.0
Br	-2.376816	0.311916	-1.622161
H	1.095481	0.0	0.0
H	-0.331814	0.914148	0.495909
N	0.198572	1.285436	-2.113287
O	0.203058	2.30097	-1.437353
O	0.592762	1.15505	-3.262162
C	-0.081096	-1.141462	-2.204734
N	0.202068	-2.116829	-2.796411
C	-0.539463	-1.169345	0.671479
N	-0.992276	-2.104002	1.219195
Cl	3.194936	0.0	0.0
