13

C	-0.476301	0.034811	-1.447421
C	0.0	0.0	0.0
Br	0.213174	-1.451017	-2.452998
H	1.09304	0.0	0.0
H	-0.341693	0.910296	0.498387
N	-2.038915	0.024154	-1.463256
O	-2.535308	0.88293	-0.744197
O	-2.63224	-0.780227	-2.15947
C	-0.102095	1.284058	-2.100828
N	0.192069	2.289293	-2.635293
C	-0.535903	-1.163	0.692287
N	-1.00782	-2.083059	1.248543
Cl	3.213146	0.0	0.0
