13

C	-0.538647	-0.001976	-1.422878
C	0.0	0.0	0.0
Br	0.284336	1.440816	-2.426054
H	1.091149	0.0	0.0
H	-0.305486	0.947645	0.455906
N	-0.196749	-1.313773	-2.155505
O	-0.76595	-1.484208	-3.226995
O	0.609278	-2.05288	-1.613835
C	-1.987828	0.15151	-1.487389
N	-3.154551	0.29751	-1.485156
C	-0.569427	-1.096145	0.773678
N	-1.074652	-1.951796	1.398469
Cl	3.253987	0.0	0.0
