16
Coordinates from ORCA-job run
  C   -0.97451503327833      0.41284561057351     -0.21813718704769
  C   0.53645308062660      0.52501831265522      0.10698694334830
  Cl  -1.37229881358654      1.31784397307928     -1.67676326151237
  H   0.74567192927820      1.59597426089058      0.01987007988134
  C   -1.80970971838416      0.87145405580784      0.88424222122000
  N   -2.51978457658067      1.28772928219410      1.72250395716800
  N   -1.27442958209804     -1.08497070937732     -0.43973451631389
  O   -1.26456114048861     -1.74796140660697      0.59190122379725
  O   -1.40447406480428     -1.49742031500934     -1.57879846284401
  C   1.38252578464241     -0.24262226129340     -0.90762392164483
  H   2.43485059079761     -0.00754244055545     -0.73555188584976
  H   1.13739493789487      0.00922844995165     -1.94063821310371
  H   1.25729310260509     -1.32060857864255     -0.77420217061610
  N   0.74362050402411      0.16397362965530      1.49581879185465
  H   1.61301311596554      0.55663772919303      1.83184067220847
  H   0.76894988338620     -0.84057959251547      1.61828572945436
