16
Coordinates from ORCA-job run
  C   -1.03846475819072      0.27648991928873     -0.02125233004733
  C   0.47999757751974      0.55762273823299     -0.09406349190626
  Cl  -1.96789779342403      1.77219262974697     -0.05567742546696
  H   0.60038737181667      1.22661143934448     -0.95099660131812
  C   -1.36275765638122     -0.48696983262346      1.17587682739758
  N   -1.53976219959049     -1.07559873394543      2.17768167180000
  N   -1.40723784456925     -0.54568435307214     -1.26046695420519
  O   -1.23498875361913      0.01733947617519     -2.33167258759851
  O   -1.76619876654753     -1.70293386148712     -1.08161875126043
  C   1.26262921285906     -0.73327168729211     -0.32488457909559
  H   1.07744008135324     -1.45110247952187      0.47957842827060
  H   1.02342265873885     -1.21015818874319     -1.27714295550272
  H   2.32837513778164     -0.49596306074872     -0.32985496814802
  N   0.83430333844454      1.27122584948696      1.11644681915996
  H   1.56276530149328      1.94860184630732      0.94200179362403
  H   1.14798709231535      0.63259829885140      1.83704510429694
