16
Coordinates from ORCA-job run
  C   -1.03844840082625      0.27469837720053     -0.03503980529411
  C   0.48057179517945      0.55590082781539     -0.09287292030834
  Cl  -1.96700496200925      1.77085434161463     -0.08867716094478
  H   0.61069587599521      1.21725563489699     -0.95429234015320
  C   -1.37658896847801     -0.48011607746731      1.16359766185118
  N   -1.56574737144030     -1.05950780023251      2.16856217949545
  N   -1.39334170909885     -0.55444760362411     -1.27308338736844
  O   -1.21118179036278      0.00339267708536     -2.34538275245984
  O   -1.75326799235721     -1.71108293220549     -1.09177126469974
  C   1.26621331765543     -0.73665427568259     -0.30300655532602
  H   1.03349113324585     -1.22644690139596     -1.25036348715408
  H   2.33165782797244     -0.49785002565129     -0.30391894776065
  H   1.07639274892609     -1.44407333872511      0.50969638245646
  N   0.82192676270252      1.27849404071707      1.11627286505044
  H   1.54156387841560      1.96508392660362      0.94165168498270
  H   1.14206785448007      0.64649912905077      1.83962784763298
