16
Coordinates from ORCA-job run
  C   -0.89733754876614     -0.30682974050297      0.20577623145288
  C   0.49499051381280      0.18805695317530     -0.23625360220002
  Cl  -1.13165939116183     -0.14572381233285      1.94281253076207
  H   0.50066251963582      0.03617183092457     -1.31989963056730
  C   -1.13326039307832     -1.68557340468742     -0.20273920991253
  N   -1.27340402762830     -2.80477201263943     -0.53356802867296
  N   -1.92131651690687      0.57528750140441     -0.55089881608357
  O   -1.86635519412450      0.43122308903428     -1.76499534141268
  O   -2.64472556967722      1.31879099814280      0.07982472766623
  C   1.61429601243965     -0.63016396291142      0.39629121428313
  H   2.56998285827780     -0.29698450823152     -0.01444914423030
  H   1.63983642048241     -0.48565168406597      1.47836313043173
  H   1.51028488774959     -1.69858981515463      0.19135219594733
  N   0.53347558929972      1.61854987380633      0.00246636352725
  H   1.18531304636157      2.06429490231750     -0.62883517313213
  H   0.81921679328382      1.82091379172101      0.95275255214088
