15

C	0.0	0.0	0.0
C	-0.510595	0.09609	-1.444839
Cl	1.78812	0.0	0.0
H	-1.608052	0.098512	-1.335111
C	-0.356608	1.243012	0.723815
N	-0.57572	2.185388	1.390668
N	-0.50089	-1.204396	0.585728
H	-0.228268	-1.247965	1.561744
H	-1.526744	-1.127784	0.543664
C	-0.114372	-1.104138	-2.199385
N	0.178585	-1.990133	-2.913838
N	-0.089112	1.338019	-2.064072
H	0.829752	1.242474	-2.476513
H	-0.7481	1.599614	-2.784479
Cl	-3.497315	0.0	0.0
