16

C	0.0	0.0	0.0
C	-0.230669	-0.068054	-1.564507
Br	2.023276	0.0	0.0
H	0.562423	0.541339	-2.010849
N	-0.505699	1.18873	0.486552
H	-0.906648	1.208032	1.407969
H	-0.196434	2.063296	0.101969
C	-0.541568	-1.185953	0.753163
H	-0.299586	-1.083957	1.814277
H	-1.632943	-1.174652	0.62381
H	-0.116785	-2.120135	0.386929
C	-1.45845	0.531743	-2.113698
N	-2.167667	1.089902	-2.86798
C	-0.032523	-1.423328	-2.07973
N	0.161173	-2.498859	-2.509414
Br	-3.923534	0.0	0.0
