16

C	0.0	0.0	0.0
C	-0.512498	-0.244774	-1.456496
Br	1.954454	0.0	0.0
H	-1.61814	-0.251508	-1.333739
N	-0.468997	1.239882	0.540604
H	-1.487996	1.165443	0.616317
H	-0.244076	2.012942	-0.077271
C	-0.446534	-1.148456	0.890814
H	-0.034682	-2.098311	0.547083
H	-0.098976	-0.950162	1.905237
H	-1.538791	-1.187348	0.880601
C	-0.086117	-1.521424	-2.025109
N	0.23758	-2.562025	-2.464517
C	-0.146155	0.860047	-2.34044
N	0.149221	1.774634	-3.015654
Br	-3.743071	0.0	0.0
