16

C	0.0	0.0	0.0
C	-0.531696	0.105856	-1.446519
Br	2.015653	0.0	0.0
H	-1.638553	0.068814	-1.295129
N	-0.484149	1.113539	0.705321
H	-0.063903	1.99253	0.439338
H	-0.487757	0.986967	1.705565
C	-0.462076	-1.295625	0.632574
H	-1.557619	-1.285563	0.622785
H	-0.099362	-1.351072	1.662076
H	-0.077741	-2.157497	0.086204
C	-0.101641	-0.998737	-2.30078
N	0.220197	-1.888205	-2.99697
C	-0.185297	1.389701	-2.054425
N	0.063571	2.435318	-2.527974
Br	-3.82253	0.0	0.0
