16

C	0.0	0.0	0.0
C	-0.24698	0.255996	-1.561316
Br	1.957793	0.0	0.0
H	0.529597	-0.313367	-2.081528
N	-0.531759	0.952621	0.900232
H	-1.548596	0.809694	0.928595
H	-0.341082	1.900978	0.596466
C	-0.479525	-1.394691	0.348249
H	-1.572035	-1.402005	0.282313
H	-0.174995	-1.631856	1.368854
H	-0.058522	-2.136242	-0.33465
C	-0.001156	1.665416	-1.875822
N	0.245248	2.788636	-2.117483
C	-1.489504	-0.198401	-2.207035
N	-2.233294	-0.623403	-3.014298
Br	-3.789441	0.0	0.0
