16

C	0.0	0.0	0.0
C	-0.245885	0.289687	-1.54631
Br	1.949362	0.0	0.0
H	0.470767	1.081969	-1.80032
N	-0.540521	1.0027	0.852939
H	-0.387893	1.931241	0.475096
H	-1.555291	0.834612	0.891172
C	-0.48897	-1.368981	0.425748
H	-1.575434	-1.385868	0.302002
H	-0.025018	-2.160716	-0.162994
H	-0.244523	-1.511907	1.479758
C	-1.521578	0.860525	-2.014114
N	-2.243406	1.513009	-2.677181
C	0.115282	-0.857561	-2.384674
N	0.42898	-1.764072	-3.063114
Br	-3.792399	0.0	0.0
