14
Coordinates from ORCA-job run
  C   -0.70451533154052      0.16680128413964     -0.50495877380206
  C   0.57098356217364      0.68720214499460      0.15874173444986
  H   -0.52098525692339     -0.15440654529391     -1.53215020658450
  H   0.31455650408092      1.01669517882503      1.16872187064894
  H   0.88919847596794      1.57011303311164     -0.40336209067884
  C   -1.78516536637868      1.14749129477542     -0.46736036501969
  N   -2.62495119542587      1.96768294144236     -0.45157086459494
  N   -1.14434772782312     -1.07808593427883      0.23005952518157
  O   -1.53340470428314     -0.92473439813162      1.38175481729368
  O   -1.01787387140550     -2.14143861996337     -0.36840725914741
  C   1.67343138102238     -0.36512350721656      0.18825815524189
  H   2.59449516586732      0.07049677941569      0.57913383365856
  H   1.40747459419495     -1.20581308761102      0.83198475044999
  H   1.88110377047305     -0.75588056420907     -0.81084512709708
