14
Coordinates from ORCA-job run
  C   -0.74561245165382      0.07221821053375     -0.23413821378159
  C   0.68883883905971     -0.43578271938676     -0.07708290270093
  H   -0.85899555822411      0.65375864090678     -1.15158613722115
  H   0.72731282332261     -1.06934393987719      0.81317583192343
  H   0.90772237266079     -1.06248445646076     -0.94706663260954
  C   -1.17964514884040      0.85984939711261      0.91550883651506
  N   -1.48214751006901      1.52559195008131      1.83395443014487
  N   -1.65556589442597     -1.12184214062649     -0.39908815990947
  O   -1.96235584784481     -1.73329464666410      0.61759738898664
  O   -1.95367045272526     -1.41388969216526     -1.55284039896871
  C   1.68388749838193      0.71413193973181      0.02601529641997
  H   1.63693232444530      1.35825556264004     -0.85552657041702
  H   2.70122197221709      0.32639187584477      0.10169997159859
  H   1.49207703369592      1.32644001832950      0.90937726001984
