14
Coordinates from ORCA-job run
  C   -0.73489291948547      0.09458358778691     -0.25801120239543
  C   0.67004524001093     -0.46983365954092     -0.03809121890661
  H   -0.79812287179376      0.63541388224351     -1.20461939301113
  H   0.65530796895904     -1.06305439551193      0.88013106396359
  H   0.88199249682597     -1.14477231679507     -0.87299456298261
  C   -1.16160600902284      0.95542727695288      0.84075890005387
  N   -1.46142763573657      1.68195578199428      1.71286257761485
  N   -1.69482874405409     -1.06365644934624     -0.39150185773188
  O   -1.98521710179018     -1.39111094251063     -1.53757335471923
  O   -2.04739674938058     -1.61667325565744      0.64349490370251
  C   1.71480848535277      0.63700811443791      0.04132872365357
  H   1.53038647639436      1.29743024360566      0.89098203153598
  H   2.71010669778575      0.20580675768173      0.16224116682002
  H   1.72084466593466      1.24147537465935     -0.86900777759749
