14
Coordinates from ORCA-job run
  C   -0.74966791697559      0.05929715307911     -0.22683391469079
  C   0.69394329333729     -0.42613654833590     -0.08056833916561
  H   -0.88226908892147      0.62720846362508     -1.15012110671469
  H   0.75102240262167     -1.04990170516345      0.81555048390032
  H   0.91192294923031     -1.05815459435311     -0.94695196927711
  C   -1.18223740520670      0.85431618707652      0.91819735091790
  N   -1.48334281746707      1.52724572547139      1.83193502605946
  N   -1.64321948285296     -1.15014024344870     -0.36671718587720
  O   -1.95449106138894     -1.45796040205721     -1.51265404180608
  O   -1.92413396300011     -1.75658954985854      0.66037514709880
  C   1.67385251790028      0.73849692905387     -0.00050741183314
  H   2.69677747737981      0.36439537199673      0.06918378335494
  H   1.60928324847911      1.37159932702236     -0.88882710353475
  H   1.48355984686438      1.35832388589186      0.87793928156793
