18

C	-0.323396	0.03505	-1.511725
C	0.0	0.0	0.0
F	-0.078575	-1.264632	-1.97865
H	1.099863	0.0	0.0
C	-1.764405	0.34885	-1.862012
H	-1.8731	0.294714	-2.947031
H	-2.430354	-0.382677	-1.398468
H	-2.046137	1.34647	-1.517818
N	0.581525	0.899653	-2.221717
H	0.325831	1.863477	-2.038494
H	1.515422	0.754418	-1.821184
C	-0.513679	-1.212892	0.765495
H	-0.154254	-1.171339	1.797049
H	-1.606782	-1.275431	0.778054
H	-0.108887	-2.112789	0.302086
C	-0.444726	1.247762	0.598691
N	-0.819044	2.261308	1.064962
H	2.813214	0.0	0.0
