18

C	-0.24308	-0.043845	-1.514649
C	0.0	0.0	0.0
F	-1.605979	-0.288243	-1.771183
H	1.096862	0.0	0.0
C	0.14824	1.260738	-2.168332
H	1.198198	1.466874	-1.928286
H	0.027261	1.155404	-3.249133
H	-0.474093	2.08094	-1.799972
N	0.49486	-1.120524	-2.138988
H	1.467624	-1.003321	-1.839498
H	0.175995	-1.997005	-1.737862
C	-0.473617	-1.24592	0.744825
H	-1.5374	-1.435531	0.584791
H	0.104073	-2.112769	0.419316
H	-0.291152	-1.128257	1.815162
C	-0.526043	1.203594	0.617467
N	-0.935566	2.182269	1.125527
H	2.77515	0.0	0.0
