18

C	-0.428063	-0.012273	-1.465757
C	0.0	0.0	0.0
F	-0.188431	1.255382	-1.996487
H	1.095403	0.0	0.0
C	0.433278	-0.973443	-2.267564
H	0.242015	-0.816506	-3.333644
H	1.486369	-0.788091	-2.03226
H	0.195679	-2.01152	-2.019661
N	-1.867432	-0.194638	-1.606076
H	-2.098502	-0.044173	-2.584278
H	-2.096721	-1.157668	-1.389217
C	-0.420596	-1.260148	0.760743
H	0.011638	-1.223785	1.763137
H	-1.505751	-1.355808	0.853368
H	-0.009701	-2.145577	0.271175
C	-0.516793	1.18502	0.668361
N	-0.935657	2.139092	1.212106
H	2.850032	0.0	0.0
