18

C	-0.457894	-0.051255	-1.466744
C	0.0	0.0	0.0
F	-0.086337	1.17153	-2.027082
H	1.095625	0.0	0.0
C	0.274454	-1.139403	-2.221718
H	-0.087266	-2.132786	-1.94341
H	0.098557	-0.990064	-3.28864
H	1.340676	-1.065519	-1.98855
N	-1.889261	-0.143214	-1.691771
H	-2.349469	0.573164	-1.136715
H	-2.217115	-1.044267	-1.365252
C	-0.398333	-1.241499	0.801227
H	-1.480806	-1.402916	0.837863
H	-0.030914	-1.136831	1.824406
H	0.090133	-2.121128	0.377024
C	-0.536323	1.194291	0.633124
N	-1.025762	2.134485	1.143352
H	2.814971	0.0	0.0
