16
Coordinates from ORCA-job run
  C   0.68464446313307     -0.18241685754095     -0.17879988908890
  C   -0.80828392701574      0.12253161351472     -0.01452183552464
  Br  1.04274082466550     -0.96004437994741     -1.92753939685212
  H   -0.86029996404970      0.55553922049107      1.01585855509487
  N   1.04541241772667     -1.19379668554867      0.80569111435020
  H   1.97378999034445     -1.55319491538535      0.61756115530790
  H   1.04837900136644     -0.76567309186976      1.72733242036433
  N   1.40696028455226      1.08184441886513     -0.13213588108075
  H   2.37094545584653      0.94741080192366     -0.41339027412359
  H   1.39737853433528      1.42807035609882      0.82324667051561
  N   -1.57990161607609     -1.09461898893974     -0.12529292579384
  H   -1.17779087614830     -1.79116164110729      0.48981749322546
  H   -2.53884514798964     -0.92390518476618      0.15157493271907
  N   -1.23571009222260      1.07089817242720     -1.01802646608902
  H   -0.59929576118980      1.85839948321764     -1.01275362965350
  H   -2.17012358727833      1.40011767856708     -0.80862204337107
