16
Coordinates from ORCA-job run
  C   0.72971539427812     -0.15523815315334     -0.02484080118719
  C   -0.75848292743685      0.19446932523723      0.12469316500484
  Br  1.03250182623218     -0.73608043195733     -1.94820086668442
  H   -0.83979308465206      0.48925587052673      1.18426868154245
  N   1.04642353094844     -1.32724429610594      0.76800958312404
  H   1.28619339636047     -0.99939322998851      1.69894049020320
  H   1.84361955663338     -1.81856245399965      0.38533524565734
  N   1.49426699787222      0.98116372257087      0.31662083033053
  H   2.47442590683110      0.85923265913643      0.09743148536549
  H   1.11476975220631      1.79700544819206     -0.15177624227333
  N   -1.58220549249893     -0.94551464820997     -0.22406833743754
  H   -1.15094998098713     -1.78143153350883      0.15629797045751
  H   -2.50010050513743     -0.84019235318122      0.19104213967427
  N   -1.05499499982538      1.38010246196746     -0.65959440963725
  H   -1.89034469049067      1.82949232977455     -0.30559263780248
  H   -1.24604468033379      1.07393528269946     -1.60856629633747
