16
Coordinates from ORCA-job run
  C   0.73943676979177     -0.10018814359641     -0.02329896799148
  C   -0.76924324295133      0.15203996806066      0.11676083632813
  Br  1.02867576635379     -1.14929288078905     -1.73901830792866
  H   -0.83979954827439      0.72494634109977      1.05644497276979
  N   1.18409080994873     -0.80563389307227      1.11562399300743
  H   2.13738279439151     -1.12891014848258      1.01387816268020
  H   0.55488495192748     -1.57948721504659      1.30072965780110
  N   1.43480919350289      1.15418297942173     -0.23673526388386
  H   2.30162637129547      1.00702971468966     -0.73705312321348
  H   1.65212814407817      1.53239347614684      0.68049725351738
  N   -1.44840176978592     -1.11039671989409      0.34868278685301
  H   -1.62618816556995     -1.52844866727976     -0.55928904579145
  H   -2.34275734347603     -0.94580121972683      0.79378649929618
  N   -1.27016357170367      0.86980666135840     -1.03805361552167
  H   -2.14306113784050      1.32581944352141     -0.80131951123110
  H   -0.59342002168801      1.58194030358910     -1.29163632669151
