16
Coordinates from ORCA-job run
  C   0.74715530054001      0.13559331007398      0.18858390564533
  C   -0.65847928133532      0.18690191675899     -0.39350497529417
  Br  1.48087569549920     -1.83599513030392     -1.60814863617916
  H   -0.55079334486610      0.31318094764243     -1.47505756804774
  N   0.85722035531178     -0.49873878240099      1.34672403267732
  H   0.13440199329061     -1.19953848050963      1.47507811189095
  H   1.77156943983551     -0.70302930979955      1.71882972755898
  N   1.63832151461650      1.04961555145887     -0.20099039790891
  H   2.60179016781662      0.88333337087168      0.04977297285926
  H   1.52904763313635      1.34871716140593     -1.15784677224329
  N   -1.29671238707746      1.37483561618152      0.14143227399812
  H   -2.14958158076350      1.56321039075240     -0.37158769345317
  H   -1.54044572489214      1.21558814762004      1.11325062173034
  N   -1.32513704466002     -1.05448836390054     -0.02042388553519
  H   -0.92404628389165     -1.80244754150062     -0.58435424682991
  H   -2.31418645256035     -0.97773880435059     -0.22275747086877
