16
Coordinates from ORCA-job run
  C   0.70578902375289     -0.20525970058053     -0.13742849586691
  C   -0.79052105641213      0.11094751186216     -0.37542996224609
  Br  1.20672444601047     -1.62047266374624     -1.52688868588684
  H   -0.84644851527055      0.48738100750896     -1.40887837057631
  N   0.84215346597825     -0.79643774319508      1.14572601456041
  H   1.80440546525786     -0.89320219841531      1.44281015204747
  H   0.32461418068307     -0.20692547666928      1.79338221159173
  N   1.49725971677910      0.96501164166626     -0.34797662842384
  H   2.44084373249166      0.83106571163738     -0.00564436791459
  H   1.55088152789267      1.20944484860200     -1.32985104440742
  N   -1.13546287096654      1.09881163291307      0.64213398445484
  H   -0.68258927100901      1.98438649091766      0.45619234754167
  H   -2.14025322505466      1.21083239189684      0.65797422650316
  N   -1.65078814768281     -1.02880962040569     -0.19885665854719
  H   -1.16180428984831     -1.77084171612737      0.28461187731214
  H   -1.96580418260196     -1.37593211786486     -1.09287660014224
