13

C	-0.57188	-0.026344	-1.397846
C	0.0	0.0	0.0
F	-1.943293	0.367038	-1.311453
H	1.097142	0.0	0.0
H	-0.614063	-1.044878	-1.788513
H	-0.332251	0.944204	0.447287
N	0.145153	0.80864	-2.289854
H	0.384029	1.694911	-1.861101
H	-0.376455	0.964317	-3.139441
N	-0.541373	-1.12905	0.781751
H	0.190539	-1.828291	0.84307
H	-0.705138	-0.820051	1.730598
Cl	3.659178	0.0	0.0
