13

C	-0.536244	0.010123	-1.422071
C	0.0	0.0	0.0
F	-0.291626	-1.249074	-1.977331
H	1.096939	0.0	0.0
H	0.036675	0.703316	-2.052419
H	-0.377108	-0.912515	0.46797
N	-1.945992	0.257616	-1.421167
H	-2.141389	0.843964	-0.616666
H	-2.240646	0.725887	-2.26614
N	-0.524045	1.168791	0.743932
H	0.1036	1.945204	0.55679
H	-0.416421	0.976614	1.732748
Cl	3.615717	0.0	0.0
