13

C	-0.42217	-0.089478	-1.447024
C	0.0	0.0	0.0
F	-0.226763	1.178988	-2.049709
H	1.103148	0.0	0.0
H	-1.492613	-0.292887	-1.548546
H	-0.379256	0.929969	0.428242
N	0.331154	-1.108183	-2.087904
H	0.138317	-1.140653	-3.081428
H	1.323783	-0.939996	-1.935092
N	-0.571985	-1.147909	0.725605
H	-0.204189	-1.975957	0.266697
H	-0.160912	-1.149734	1.652881
Cl	3.622308	0.0	0.0
