13
Coordinates from ORCA-job run
  C   -0.77441494123489     -0.64156065239975      0.36978615155442
  C   0.45486734203169     -0.60976395959336     -0.51067847402346
  Cl  -1.93426580737337     -1.86629963532443     -0.15260335417042
  H   0.12645270274940     -0.47786575668358     -1.54421415031683
  H   -0.54659698229118     -0.81399154252397      1.41977261159357
  H   0.93218183604887     -1.59061656587998     -0.43745396219927
  N   -1.43025093436786      0.71600481635460      0.32851316840381
  O   -1.42623800359744      1.34911235680748      1.38174113413580
  O   -1.85108587370386      1.10270550961583     -0.75407172675893
  C   1.42236039294862      0.49656408909977     -0.09948850540523
  H   0.99383387952524      1.48613785812114     -0.26913467770096
  H   2.33822186310165      0.42907574634017     -0.68904625738780
  H   1.69493452616312      0.42049773606608      0.95587804227529
