13
Coordinates from ORCA-job run
  C   -0.82076717181426      0.02178650922348     -0.27931103310263
  C   0.53616417451634      0.03087983298524      0.39109556236018
  Cl  -1.07282262426292      1.43134359063710     -1.31511874027532
  H   0.63275746095144      0.96592257153223      0.94723902683240
  H   -0.99781986080672     -0.87187720370561     -0.87465002482813
  H   0.53750291148073     -0.78878581575392      1.11868053478212
  N   -1.88908198196088      0.00050057467869      0.78597885880099
  O   -1.93494559659866      0.95290625445700      1.55381616584971
  O   -2.59343192110309     -1.00570534103718      0.82334554968146
  C   1.67832392273059     -0.14824208803911     -0.60160442886662
  H   2.63239478202181     -0.18800474669370     -0.07320538634675
  H   1.56932104242608     -1.07826274532667     -1.16496090783043
  H   1.72140486241953      0.67853860704245     -1.31130517705699
