13
Coordinates from ORCA-job run
  C   -0.86968086157490     -0.66457842808810      0.19165407294704
  C   0.62295072375102     -0.52034980193906      0.44198047643747
  Cl  -1.23439358442290     -1.49080056426700     -1.31758005728037
  H   1.05322942217214     -1.52439283458414      0.40066188093651
  H   -1.36626844750954     -1.19836153226171      1.00006091673065
  H   0.73970967918614     -0.15353349843791      1.46566945653990
  N   -1.47798449362881      0.72386362483638      0.21395337161673
  O   -1.56349606955330      1.19766214185302      1.34413515554294
  O   -1.76014065652689      1.28368958583781     -0.83469078077272
  C   1.32362566056041      0.40885668931897     -0.54194001634315
  H   2.39915282257197      0.39958733218032     -0.35694035005078
  H   1.15450971660023      0.10052382079411     -1.57437016871521
  H   0.97878608837444      1.43883346475732     -0.43359395758902
