13
Coordinates from ORCA-job run
  C   -0.57722166528760      0.03906407914823     -0.09342248906500
  C   0.45737431039417     -0.74097546338210      0.26267752229912
  H   0.24027348700783     -1.73836210300314      0.62226683327468
  N   -1.95032806105865     -0.51492779102703     -0.03435556966293
  O   -2.09181451100204     -1.70573165817013      0.21584689716456
  O   -2.87288535182766      0.27611578940545     -0.24713411586900
  N   -0.52370860409197      1.33182670597736     -0.58161184998482
  H   -1.43606551340056      1.76080531117565     -0.63121451561431
  H   0.15659324195874      1.91156135149449     -0.11506150138230
  C   1.86877320127864     -0.25147315282229      0.16904950354902
  H   2.56681512529129     -1.08643426716870      0.09909707619297
  H   2.15758794182824      0.33736472280166      1.04805563445192
  H   2.00460639890957      0.38116647557056     -0.71319342535391
