13
Coordinates from ORCA-job run
  C   -0.58563388349969     -0.00381740430766     -0.01579399728120
  C   0.52641823645648     -0.41749188560837      0.61503506486886
  H   0.41322565253648     -0.93382532544850      1.55930501803653
  N   -1.90810093098659     -0.32091945360340      0.57341980135001
  O   -1.95291864976694     -1.05749267621984      1.55112671564512
  O   -2.89037474431202      0.18687028478260      0.02627971609605
  N   -0.66422339181848      0.66220956291986     -1.22454036593416
  H   0.04168116020413      1.37237122323482     -1.34266517858662
  H   -1.59545614258188      0.99915744914912     -1.41945809022324
  C   1.88401060396230     -0.17073521035491      0.03441270876496
  H   2.24993668653017      0.83800878950990      0.26119816097539
  H   2.61382725186494     -0.87452219577194      0.43589820713644
  H   1.86760815141111     -0.27981315828169     -1.05421776084814
