13
Coordinates from ORCA-job run
  C   -0.58280203083858      0.04982470641735     -0.03632003534468
  C   0.46563559285099     -0.75905674689617      0.19267815895141
  H   0.27551074666634     -1.81849490703438      0.30407133255946
  N   -1.94619132591362     -0.52980363187204     -0.06796946429106
  O   -2.85885624411321      0.22786414102669     -0.40731686503684
  O   -2.09020604569043     -1.70652619851850      0.24055829574776
  N   -0.56367766826870      1.42238423140370     -0.19775031870060
  H   0.21582738357749      1.75658742402262     -0.74287702634155
  H   -1.45006563853938      1.78511215731731     -0.51635064131707
  C   1.85707554231911     -0.21500042592757      0.28875751092950
  H   2.30501878496493     -0.05710793975028     -0.69986128993564
  H   2.50842750669866     -0.90172870766097      0.83020015699450
  H   1.86430339628639      0.74594589747225      0.81218018578481
