13
Coordinates from ORCA-job run
  C   -0.58411596045853      0.02744566912263     -0.03184386076654
  C   0.48863895428014     -0.59501744918429      0.48532920695026
  H   0.32258157749696     -1.34894357584476      1.24369620139452
  N   -1.93747898013741     -0.38517265762324      0.40938661072672
  O   -2.04340902152977     -1.36296364527466      1.13965962285186
  O   -2.88149792795326      0.29650788940055      0.00159594264880
  N   -0.59646484510088      1.00776013449137     -1.00689395486555
  H   0.13600616656946      1.69257508197553     -0.90132695755170
  H   -1.50867737830016      1.42514812021499     -1.11927485106072
  C   1.87525911234246     -0.25634416213830      0.03400235926348
  H   2.56101822086662     -1.08162334343909      0.22876027329312
  H   1.89459453775183     -0.04217478634681     -1.03874225666175
  H   2.27254554417254      0.62280272464610      0.55565166377749
