13
Coordinates from ORCA-job run
  C   -0.58461965410448      0.03246755405990      0.00585292388297
  C   0.50053869883101     -0.73096810341166     -0.20725038185213
  H   0.35042945968784     -1.78709792360334     -0.38950300665363
  N   -1.92837367731344     -0.58743879553673     -0.07903972160787
  O   -2.88427533372789      0.12452290033882      0.23951713087317
  O   -2.01516110836428     -1.74960164313259     -0.45638651161439
  N   -0.61837609923163      1.39303448199015      0.24927315554718
  H   0.10719580772665      1.71123659795965      0.87277823864199
  H   -1.53650434271157      1.71246323476925      0.52081786461165
  C   1.87808720729032     -0.14554035952497     -0.19219589003710
  H   1.88027763581882      0.85783980731992     -0.62834180109008
  H   2.57108006444769     -0.76544008150797     -0.76217287067990
  H   2.27870134165096     -0.06647766972041      0.82565086997815
