13
Coordinates from ORCA-job run
  C   -0.58221237074734      0.05590327351416     -0.02642881847372
  C   0.46949535590928     -0.77869627254256      0.03010927805600
  H   0.28379629620880     -1.83824326757028     -0.08820392401215
  N   -1.94249840020677     -0.51112769383348     -0.18573708007335
  O   -2.85912044973203      0.29663677537136     -0.35724601642949
  O   -2.08018344254822     -1.72729480052521     -0.13656986777762
  N   -0.56961355074586      1.43235085797258      0.10448292105997
  H   0.20013751188377      1.87704862865475     -0.37123221423213
  H   -1.46130229761937      1.84730680001072     -0.12267597376599
  C   1.85867614622878     -0.26459441571651      0.24601788796015
  H   2.32471883560213      0.06295536782132     -0.69111680843925
  H   2.49934420011332     -1.03922450874598      0.66902267787805
  H   1.85676216565351      0.58797925558913      0.93157793824953
