13
Coordinates from ORCA-job run
  C   -0.58395630810095      0.03527363453212     -0.02904558096429
  C   0.48731852102275     -0.73596182853406      0.22284223145619
  H   0.31675368422037     -1.72929545768037      0.61694098234952
  N   -1.93991153188673     -0.52213301218354      0.19005403028048
  O   -2.88410228967878      0.26189399106923      0.06461701901879
  O   -2.04680223086398     -1.70870799532222      0.47457287929534
  N   -0.59095561156876      1.32069286727117     -0.53757632601032
  H   0.13368594662105      1.91047093427976     -0.15866627264792
  H   -1.50498995356550      1.74677439654952     -0.49556837950248
  C   1.87673638447100     -0.24212302221643     -0.03540697108114
  H   1.91017848065032      0.37209284637257     -0.94025259059351
  H   2.25616854863164      0.36700893366544      0.79387277751430
  H   2.56887636004756     -1.07498628780319     -0.16438379911496
