13
Coordinates from ORCA-job run
  C   -0.58454489718563      0.03002595955029     -0.01934563470302
  C   0.50150971325973     -0.75757207349573      0.05754684216527
  H   0.35085798940191     -1.81489372383910      0.23205960275931
  N   -1.92899058879209     -0.58637178717064      0.07672097748314
  O   -2.01340029552480     -1.80816806184990      0.10080738729895
  O   -2.88779010316566      0.18854616848016      0.12415553288351
  N   -0.61731657562623      1.39404180801160     -0.24224993201537
  H   0.09922988580847      1.90265297322923      0.25212401224149
  H   -1.53853247429990      1.78378873261418     -0.10723277759937
  C   1.88062972167543     -0.19421740475979     -0.08960794467573
  H   1.89921867286153      0.59917107832449     -0.84280693627560
  H   2.25185334170714      0.23154914599828      0.85046529196209
  H   2.58727560988009     -0.96755281509306     -0.39263642152466
