13
Coordinates from ORCA-job run
  C   -0.46678712271802      0.50927796760038      0.01185136074462
  C   0.85213094808472      0.25025816199255     -0.07805124505813
  H   1.47102865040025      1.12600416167125     -0.26606333518212
  N   -1.44237814813037     -0.57378348048680      0.22103387875451
  O   -2.58514906626354     -0.37056391271259     -0.19498285978135
  O   -1.06619830310270     -1.60326387967180      0.77572432827721
  N   -1.09334089365238      1.74692642101657     -0.02106523238890
  H   -1.99371697525324      1.71206292849338     -0.47695574230629
  H   -0.50190730271808      2.47638779567017     -0.38882071783493
  C   1.56311958208070     -1.06217618104126      0.07246626363384
  H   1.64147866571593     -1.35687361191000      1.12193284260485
  H   2.57179024955984     -0.97855787201735     -0.33482600819698
  H   1.04892971599689     -1.87469849860450     -0.44224353326633
