13
Coordinates from ORCA-job run
  C   -0.58428783404539     -0.01737306193963      0.03340765071098
  C   0.54677367886886     -0.67572189869890     -0.27150677126126
  H   0.47347607383968     -1.72941760261429     -0.50682759813774
  N   -1.87629641389713     -0.74161479724682     -0.02308717646567
  O   -1.88884240956734     -1.88451089897020     -0.46370732455689
  O   -2.86802906684004     -0.13072083593062      0.38358986820003
  N   -0.71535465850519      1.32129365591758      0.35311638030975
  H   -1.63951266564768      1.54723937762657      0.69027065690278
  H   0.01585397534946      1.66694672077829      0.95516712696356
  C   1.87086157404604      0.02267925025609     -0.28490313867656
  H   1.77079044704163      1.03983817210092     -0.67542930196063
  H   2.58745009364655     -0.51239132867381     -0.90891035442913
  H   2.30711720571055      0.09375324739481      0.71881998240077
