17

C	-0.176813	0.057759	-1.533789
C	0.0	0.0	0.0
Cl	0.054736	-1.698432	-2.169336
H	1.102706	0.0	0.0
C	-1.541619	0.480526	-2.031493
H	-2.301482	-0.223315	-1.691769
H	-1.554679	0.509293	-3.124486
H	-1.767828	1.468974	-1.632922
N	0.869866	0.904847	-1.969185
H	1.74685	0.63381	-1.481642
H	0.974178	0.896975	-2.974766
C	-0.652491	-1.115243	0.654848
N	-1.151156	-2.005038	1.239676
N	-0.505783	1.279474	0.567721
H	-0.224961	1.278055	1.544842
H	0.08411	1.983172	0.126444
F	2.660853	0.0	0.0
