17

C	-0.213577	0.098489	-1.528665
C	0.0	0.0	0.0
Cl	-0.067532	-1.675593	-2.206175
H	1.094789	0.0	0.0
C	-1.575972	0.572862	-1.977704
H	-1.748805	1.552643	-1.525436
H	-2.354761	-0.122461	-1.660046
H	-1.609958	0.652308	-3.066498
N	0.84162	0.907988	-1.984671
H	0.927694	0.907521	-2.99181
H	1.721594	0.645043	-1.507193
C	-0.626556	-1.139687	0.636519
N	-1.174068	-1.989455	1.239317
N	-0.428747	1.265665	0.635291
H	0.426848	1.72668	0.926862
H	-0.967459	1.070023	1.471242
F	2.637922	0.0	0.0
