17

C	-0.379115	-0.04132	-1.49616
C	0.0	0.0	0.0
Cl	0.139924	1.559193	-2.184455
H	1.102606	0.0	0.0
C	0.463574	-1.110359	-2.162294
H	1.493749	-0.957541	-1.8268
H	0.373273	-1.047312	-3.248582
H	0.128655	-2.099714	-1.833358
N	-1.793241	-0.165853	-1.786373
H	-2.068434	-1.106229	-1.517368
H	-2.270372	0.476542	-1.157568
C	-0.500702	-1.2268	0.602047
N	-0.920267	-2.220513	1.069869
N	-0.633223	1.157157	0.669754
H	-0.602512	0.984849	1.669048
H	0.002473	1.932038	0.511195
F	2.615653	0.0	0.0
