17

C	-0.143919	0.026168	-1.548127
C	0.0	0.0	0.0
Cl	0.116507	-1.748053	-2.134333
H	1.099727	0.0	0.0
C	-1.507949	0.396509	-2.095286
H	-2.266583	-0.283735	-1.708466
H	-1.747411	1.423266	-1.812065
H	-1.514581	0.334715	-3.186764
N	0.891677	0.875122	-1.996838
H	1.764643	0.630064	-1.486183
H	1.013649	0.825747	-3.001358
C	-0.661805	-1.122332	0.641499
N	-1.214555	-2.001095	1.194419
N	-0.387158	1.249709	0.652238
H	-1.251882	1.617204	0.275246
H	0.35238	1.912027	0.459935
F	2.640906	0.0	0.0
