17

C	-0.068067	-0.098646	-1.528901
C	0.0	0.0	0.0
Cl	-1.788419	-0.308034	-2.107708
H	1.108295	0.0	0.0
C	0.51656	1.163479	-2.126691
H	0.573729	1.052896	-3.210279
H	-0.073049	2.036152	-1.853441
H	1.51923	1.248033	-1.695918
N	0.716845	-1.230596	-1.988253
H	0.328002	-2.079437	-1.586257
H	1.627705	-1.076806	-1.533226
C	-0.493107	-1.218576	0.637471
N	-0.917788	-2.16547	1.192961
N	-0.542614	1.224386	0.558955
H	-0.024767	1.45293	1.398117
H	-1.519143	1.10638	0.803046
F	2.634164	0.0	0.0
