17

C	-0.225411	-0.146103	-1.525283
C	0.0	0.0	0.0
Cl	0.015543	-1.897125	-1.934452
H	1.0977	0.0	0.0
C	-1.609491	0.24761	-1.996143
H	-2.370018	-0.379596	-1.524417
H	-1.787404	1.292388	-1.727841
H	-1.672257	0.136477	-3.080327
N	0.80271	0.599047	-2.219908
H	0.596981	1.577115	-2.029991
H	1.675491	0.402189	-1.703144
C	-0.641179	-1.002284	0.830751
N	-1.217052	-1.731546	1.554078
N	-0.360221	1.372565	0.393731
H	-1.240596	1.395125	0.894861
H	0.37026	1.701281	1.014189
F	2.613959	0.0	0.0
