19

C	-0.368109	-0.038014	-1.481016
C	0.0	0.0	0.0
F	-0.070656	1.274084	-1.989819
H	1.105336	0.0	0.0
N	0.447869	-1.007147	-2.120927
H	1.422463	-0.855772	-1.863608
H	0.353794	-0.933415	-3.126695
C	-1.83758	-0.235867	-1.782342
H	-2.016436	-0.081582	-2.850885
H	-2.148812	-1.245788	-1.514986
H	-2.419026	0.491833	-1.21553
C	-0.479967	-1.236732	0.74003
H	-0.162887	-2.140527	0.218366
H	-0.039908	-1.25541	1.741818
H	-1.569158	-1.229976	0.843401
N	-0.575232	1.201038	0.617691
H	-0.239387	1.228123	1.575542
H	-0.153992	1.998504	0.153383
Br	3.70187	0.0	0.0
