19

C	-0.485583	0.034619	-1.453499
C	0.0	0.0	0.0
F	-0.114259	-1.177988	-2.046748
H	1.10135	0.0	0.0
N	-1.933423	0.113717	-1.596022
H	-2.232683	0.805537	-0.911909
H	-2.310656	-0.779404	-1.293142
C	0.181316	1.148627	-2.229826
H	-0.073437	1.034209	-3.284987
H	-0.190698	2.118838	-1.887999
H	1.26486	1.099483	-2.089531
C	-0.507901	-1.217606	0.748974
H	-1.591337	-1.165492	0.903368
H	-0.022394	-1.275359	1.727046
H	-0.264273	-2.128743	0.202764
N	-0.504822	1.231791	0.652206
H	0.188598	1.958737	0.500732
H	-0.503668	1.072287	1.654473
Br	3.717925	0.0	0.0
