19

C	-0.478305	0.016451	-1.459794
C	0.0	0.0	0.0
F	-0.290358	-1.270934	-1.97762
H	1.09602	0.0	0.0
N	-1.894368	0.296032	-1.630186
H	-2.421718	-0.37584	-1.080085
H	-2.053926	1.211494	-1.222205
C	0.343605	0.976213	-2.286529
H	0.219606	1.989862	-1.901565
H	0.009035	0.93224	-3.324987
H	1.398243	0.705223	-2.207467
C	-0.480634	-1.220166	0.772727
H	-0.070735	-1.190248	1.78555
H	-1.576218	-1.245485	0.849627
H	-0.145662	-2.140992	0.295644
N	-0.431202	1.271936	0.612881
H	-1.208965	1.100378	1.241668
H	0.335842	1.629913	1.170383
Br	3.696132	0.0	0.0
