19

C	-0.326024	0.010714	-1.498299
C	0.0	0.0	0.0
F	-1.729029	0.1859	-1.621766
H	1.097323	0.0	0.0
N	0.278879	1.117595	-2.202739
H	0.199611	1.943948	-1.619515
H	1.276806	0.921506	-2.274581
C	0.044047	-1.277084	-2.20017
H	-0.592778	-2.093785	-1.860539
H	1.088459	-1.522229	-1.989476
H	-0.092915	-1.142908	-3.275176
C	-0.539305	-1.216247	0.736861
H	-1.627575	-1.281239	0.63136
H	-0.300143	-1.109287	1.795598
H	-0.091044	-2.144261	0.376308
N	-0.456842	1.216726	0.679574
H	-1.332995	1.530098	0.274896
H	0.236329	1.949872	0.593636
Br	3.653356	0.0	0.0
