19

C	-0.354759	0.053384	-1.486175
C	0.0	0.0	0.0
F	-1.768617	0.108234	-1.577883
H	1.097143	0.0	0.0
N	0.147527	1.246043	-2.115965
H	0.04187	1.984459	-1.423779
H	1.148419	1.118035	-2.241482
C	0.11093	-1.167137	-2.249879
H	1.170634	-1.343776	-2.049625
H	-0.463166	-2.046147	-1.955596
H	-0.037916	-0.990509	-3.316615
C	-0.514507	-1.241949	0.717434
H	-1.603912	-1.315104	0.628138
H	-0.067154	-2.155481	0.319952
H	-0.251723	-1.185245	1.777416
N	-0.439471	1.254303	0.621697
H	0.160055	1.449982	1.413655
H	-1.390947	1.155516	0.956785
Br	3.629083	0.0	0.0
