19

C	-0.321287	-0.023321	-1.506529
C	0.0	0.0	0.0
F	-0.08437	1.31125	-1.98245
H	1.099341	0.0	0.0
N	0.55854	-0.938735	-2.137079
H	1.515201	-0.77552	-1.823928
H	0.515466	-0.838536	-3.143748
C	-1.764499	-0.301249	-1.876677
H	-2.431338	0.404128	-1.375191
H	-1.895399	-0.174366	-2.955445
H	-2.040241	-1.31958	-1.60513
C	-0.487151	-1.256084	0.702747
H	-0.180742	-2.149729	0.157133
H	-0.054042	-1.284129	1.703704
H	-1.579321	-1.257454	0.804261
N	-0.473188	1.18072	0.709934
H	-1.471769	1.291735	0.557923
H	-0.018413	1.990305	0.304897
Br	3.691931	0.0	0.0
