12
Coordinates from ORCA-job run
  C   -0.81662964512475      0.19471738713103     -0.01390145535967
  C   0.44505652933150     -0.68619928427986     -0.10591502860822
  Br  -0.73916713634371      1.55842477307748     -1.46940544955003
  H   0.32413321900819     -1.46104625016667      0.66221402888598
  H   -1.68584386391799     -0.41320667618264     -0.26531389442804
  N   -0.93823615615604      0.71045031716848      1.29518597059738
  H   -0.20372862116683      1.37365754110660      1.51442781670968
  H   -1.83527424252989      1.15437455594450      1.43973294590290
  C   1.64190572399421      0.09108392051778      0.22931030773933
  N   2.57034423546397      0.73331770051315      0.55107955712090
  C   0.57803495779947     -1.34338974221348     -1.40745794271031
  N   0.65940499964187     -1.91218424261637     -2.43095685629990
