12
Coordinates from ORCA-job run
  C   -0.76117194351222      0.29304493691196      0.00395291857301
  C   0.47682558673949     -0.61180638690494     -0.17013064935211
  Br  -0.68695169246995      1.76241850924329     -1.25690150937627
  H   0.40098575533711     -1.39926255262415      0.59339753039323
  H   -1.64621706317802     -0.28762222989485     -0.28278112571656
  N   -0.75522881719801      0.81118604535525      1.35048991447107
  H   -1.07004236879087      0.09442500677635      1.99623690517674
  H   -1.37412344853375      1.60751187741506      1.43301782439691
  C   1.72217032165087      0.12169413462788      0.07174285433032
  N   2.73627823014028      0.67936002755881      0.26517083292584
  C   0.48891935929793     -1.26618958727632     -1.48154073548159
  N   0.46655608051714     -1.80575978118833     -2.52365476034058
