13

C	0.0	0.0	0.0
C	-0.531084	-0.06173	-1.428076
Br	1.961848	0.0	0.0
H	-0.254923	0.834544	-1.979143
H	-1.657277	-0.120604	-1.174503
C	-0.409209	1.281856	0.583329
N	-0.595439	2.337952	1.064163
C	-0.432637	-1.0926	0.876604
N	-0.586568	-1.946835	1.669148
N	-0.052861	-1.217744	-2.188424
O	0.168164	-2.267283	-1.586811
O	0.043979	-1.077014	-3.410241
F	-2.547689	0.0	0.0
