13

C	0.0	0.0	0.0
C	-0.559671	0.112866	-1.411255
Br	1.961235	0.0	0.0
H	-0.277898	-0.746224	-2.017309
H	-1.697972	0.125622	-1.116645
C	-0.430534	1.067103	0.909994
N	-0.610334	1.882803	1.73689
C	-0.409312	-1.304962	0.529978
N	-0.57795	-2.397402	0.929005
N	-0.160386	1.321418	-2.129354
O	0.259045	2.289618	-1.492599
O	-0.335857	1.311137	-3.350814
F	-2.583176	0.0	0.0
