13

C	0.0	0.0	0.0
C	-0.519779	-0.022443	-1.435381
Br	1.961623	0.0	0.0
H	-0.247308	0.893758	-1.954149
H	-1.64635	-0.09829	-1.201741
C	-0.413126	1.265471	0.613535
N	-0.586595	2.316781	1.109874
C	-0.439289	-1.118699	0.84087
N	-0.589266	-2.007911	1.59531
N	-0.023837	-1.148522	-2.229626
O	0.08303	-0.966485	-3.444695
O	0.1935	-2.218099	-1.66045
F	-2.534421	0.0	0.0
