13

C	0.0	0.0	0.0
C	-0.196705	-0.214503	-1.534726
Br	1.970393	0.0	0.0
H	0.319859	-1.130806	-1.800298
H	0.282263	0.636843	-2.035031
C	-0.340535	1.326881	0.476961
N	-0.559625	2.406688	0.917918
C	-0.378322	-1.09352	0.881095
N	-0.373533	-1.997393	1.63405
N	-1.55994	-0.340713	-2.150144
O	-2.055923	0.679482	-2.641818
O	-2.040694	-1.468338	-2.253639
F	-2.072003	0.0	0.0
