13

C	0.0	0.0	0.0
C	-0.622281	-0.351641	-1.33793
Br	1.952966	0.0	0.0
H	-0.39342	0.418705	-2.082475
H	-0.2874	-0.764575	0.72079
H	-1.729503	-0.306384	-1.044328
C	-0.502294	1.352965	0.468617
H	-0.122467	1.588715	1.466029
H	-1.596256	1.238357	0.466159
H	-0.181707	2.138795	-0.222496
C	-0.243365	-1.656164	-1.849373
N	0.04972	-2.719686	-2.256266
F	-2.914052	0.0	0.0
