13

C	0.0	0.0	0.0
C	-0.625662	-0.127614	-1.375756
Br	1.953004	0.0	0.0
H	-1.732221	-0.137567	-1.078655
H	-0.284199	-0.875722	0.582872
H	-0.407675	0.756064	-1.984232
C	-0.509175	1.250577	0.690367
H	-1.602904	1.133782	0.66126
H	-0.188155	2.146283	0.148795
H	-0.137573	1.311484	1.716482
C	-0.243282	-1.326155	-2.100094
N	0.043413	-2.298645	-2.695614
F	-2.921755	0.0	0.0
