13

C	0.0	0.0	0.0
C	-0.383842	0.119881	-1.478509
Br	1.955223	0.0	0.0
H	0.063322	-0.722736	-2.018275
H	-0.331371	-0.946339	0.417476
H	0.11013	1.015802	-1.874099
C	-0.440365	1.171143	0.858126
H	-0.039113	1.081482	1.871466
H	-1.533508	1.108691	0.847575
H	-0.081016	2.110334	0.425173
C	-1.803553	0.194536	-1.899958
N	-2.572924	0.31052	-2.791342
F	-2.656185	0.0	0.0
