13

C	0.0	0.0	0.0
C	-0.621608	0.102036	-1.380783
Br	1.954355	0.0	0.0
H	-0.360272	-0.759334	-2.001846
H	-0.292822	-0.966107	0.409887
H	-1.730021	0.068611	-1.085464
C	-0.491711	1.106539	0.914797
H	-1.585551	1.003801	0.879866
H	-0.108018	0.973912	1.92953
H	-0.172293	2.084427	0.544159
C	-0.283946	1.326037	-2.086865
N	-0.030752	2.3149	-2.67034
F	-2.911043	0.0	0.0
