16

C	-0.543046	-0.018575	-1.426054
C	0.0	0.0	0.0
Cl	-2.360095	0.299151	-1.397066
H	1.093371	0.0	0.0
N	0.05647	1.078972	-2.314428
O	-0.339177	1.060232	-3.476094
O	0.901474	1.814759	-1.837704
N	-0.201582	-1.214787	-2.064488
H	-0.560208	-1.235796	-3.009815
H	-0.468182	-2.037083	-1.541534
C	-0.452001	-1.210243	0.672905
N	-0.812748	-2.232515	1.126615
N	-0.427077	1.181663	0.826249
O	-0.380635	1.018167	2.040308
O	-0.728628	2.218058	0.251068
Cl	3.108337	0.0	0.0
