16

C	-0.455627	0.003917	-1.444327
C	0.0	0.0	0.0
Cl	0.107964	-1.558504	-2.182706
H	1.0931	0.0	0.0
N	-1.985617	-0.069848	-1.623628
O	-2.479791	0.652969	-2.483082
O	-2.581588	-0.83136	-0.882715
N	-0.002588	1.165891	-2.079144
H	-0.460947	1.31887	-2.967826
H	1.007135	1.176414	-2.164201
C	-0.474744	-1.080601	0.832282
N	-0.759454	-1.943076	1.581541
N	-0.416845	1.322697	0.606319
O	0.481186	2.040755	1.025242
O	-1.618653	1.576315	0.622787
Cl	2.683098	0.0	0.0
