16

C	-0.466066	0.008656	-1.470356
C	0.0	0.0	0.0
Cl	-2.184763	0.37076	-1.566579
H	1.094252	0.0	0.0
N	0.326045	1.08258	-2.263719
O	1.527966	0.853531	-2.294803
O	-0.260854	2.007247	-2.801241
N	-0.204999	-1.196382	-2.188979
H	-0.793499	-1.952022	-1.863118
H	0.774948	-1.44612	-2.110923
C	-0.520192	-1.161748	0.679489
N	-0.894682	-2.147454	1.204833
N	-0.427324	1.259045	0.682879
O	-1.097137	1.184989	1.710979
O	0.025508	2.286602	0.182902
Cl	2.676071	0.0	0.0
