16

C	-0.402141	-0.04016	-1.484452
C	0.0	0.0	0.0
Cl	-2.084042	-0.524413	-1.70479
H	1.090087	0.0	0.0
N	-0.186524	1.353761	-2.109089
O	0.868402	1.875184	-1.776286
O	-0.996682	1.775081	-2.918143
N	0.464958	-0.904776	-2.227527
H	0.22785	-1.871883	-2.04278
H	1.427517	-0.736855	-1.919279
C	-0.406693	-1.233741	0.657348
N	-0.720033	-2.247052	1.162019
N	-0.52849	1.153204	0.796012
O	-0.224711	1.167262	1.982016
O	-1.216957	1.987824	0.213729
Cl	3.147445	0.0	0.0
