16

C	-0.489952	-0.006491	-1.445105
C	0.0	0.0	0.0
Cl	-2.327636	0.052927	-1.519998
H	1.088571	0.0	0.0
N	-0.00568	1.226672	-2.214652
O	0.647692	2.060211	-1.610568
O	-0.280608	1.226922	-3.408231
N	0.054182	-1.096888	-2.123845
H	-0.012186	-1.971565	-1.62653
H	-0.285432	-1.161355	-3.072631
C	-0.449155	-1.224617	0.649144
N	-0.81948	-2.23323	1.124836
N	-0.451315	1.150654	0.861238
O	-0.043334	1.099984	2.017261
O	-1.160852	2.025832	0.380315
Cl	3.136265	0.0	0.0
