16

C	-0.467442	-0.111597	-1.463166
C	0.0	0.0	0.0
Cl	-2.226485	-0.27235	-1.533347
H	1.092169	0.0	0.0
N	-0.039925	1.143536	-2.261627
O	-0.888071	1.945446	-2.615994
O	1.160469	1.189953	-2.481977
N	0.153927	-1.211736	-2.131689
H	1.160926	-1.141311	-1.980839
H	-0.184211	-2.08015	-1.734145
C	-0.448852	-1.179776	0.723797
N	-0.794049	-2.174345	1.246176
N	-0.44154	1.240564	0.711155
O	-0.251573	2.293515	0.111975
O	-0.901163	1.126339	1.843679
Cl	3.131667	0.0	0.0
