17
Coordinates from ORCA-job run
  C   -0.53963973073076      0.42931751357399     -0.39563334485404
  C   0.87959929064465     -0.14229804633042     -0.26022879641485
  Cl  -0.49925996278062      1.50907581417070     -1.83635134109954
  H   1.26767014165685     -0.48135812817051     -1.21788591111946
  C   -1.52899626574023     -0.68842987781954     -0.71949512646604
  H   -1.19774215772901     -1.28621401662951     -1.57236895669795
  H   -2.48985993262191     -0.23927944482087     -0.97598828131170
  H   -1.66739060794266     -1.33351781450096      0.14859862984610
  N   -0.84169316350991      1.25377579700923      0.74215212047116
  H   -1.74643973052418      1.69261772321022      0.62139573326927
  H   -0.84864603437159      0.68559014163040      1.58190988045025
  N   0.95667739792320     -1.31358214446569      0.67322299627264
  O   1.79239080088766     -2.16492766018514      0.38016689399078
  O   0.22230399279094     -1.32405663308228      1.65735382552175
  N   1.84972897232757      0.88395238879060      0.27108456407110
  O   2.36623382633276      1.59802952354774     -0.57746645375666
  O   2.02406316338724      0.91930486407203      1.48153356782718
