17
Coordinates from ORCA-job run
  C   -0.55219366409422      0.59817909770686      0.00747153734012
  C   0.90725949126406      0.21556110920409      0.28870406446518
  Cl  -0.45991710363792      2.26943509064515     -0.64569088534123
  H   1.39085017339797      1.00379819140656      0.86015893962649
  C   -1.28107225983980     -0.25933053795129     -1.01361245505628
  H   -2.29988748235296      0.12133556117962     -1.10713745434119
  H   -1.31286628535164     -1.29472737345804     -0.67617328295625
  H   -0.80793733650747     -0.22113400767760     -1.99423627237636
  N   -1.17169474068374      0.68536367321105      1.31899861155927
  H   -1.55825867689797     -0.21900867316157      1.56443307371225
  H   -1.91948687568740      1.36735329875217      1.29845247156585
  N   1.71515182847790     -0.01311192361985     -0.95271115721273
  O   2.44929247046335      0.90262042111566     -1.30545415282072
  O   1.55729111120284     -1.09465516370829     -1.51378054574996
  N   1.05937428428337     -1.04559786518670      1.09537342235433
  O   2.17771744736749     -1.20728252277153      1.57104410595449
  O   0.10537761859616     -1.80879837568631      1.20315997927674
