17
Coordinates from ORCA-job run
  C   -0.64396520693984      0.27872787107833     -0.34882419591890
  C   0.68625952476745     -0.15929860077782      0.30280463989826
  Cl  -0.42941587591192      0.34782015411726     -2.12411486176593
  H   0.51112474048613     -0.39792563734935      1.35242847994029
  C   -1.72741446591358     -0.74256422237830     -0.03803501578482
  H   -1.49392290521229     -1.72164462573493     -0.44942596489228
  H   -2.65614029784490     -0.37502307557695     -0.47379764388885
  H   -1.85517404597198     -0.84163323065350      1.04455651029588
  N   -1.08404315625456      1.56758670327570      0.10578272843657
  H   -1.36166045711008      1.54484269804621      1.07885208342523
  H   -0.39728250592800      2.28937865838034     -0.06360097944173
  N   1.78539122878588      0.86661404108535      0.31210925576898
  O   1.73334543784387      1.81586070894034     -0.46095568257428
  O   2.67742352530362      0.63196217526255      1.12192998223305
  N   1.28490004154933     -1.39722120574539     -0.30673264385566
  O   0.78176105752069     -2.45303503224892      0.06385670781893
  O   2.18881336083019     -1.25244737972091     -1.11883339969473
