17
Coordinates from ORCA-job run
  C   -0.63522571461275      0.40071523723278     -0.34933971245393
  C   0.83847610774294     -0.05390187192594     -0.24769873238780
  Cl  -0.56890397715305      1.67417267129526     -1.63436484041893
  H   1.20105244676009     -0.45096845626134     -1.19216300066490
  C   -1.47037733784982     -0.75590037333281     -0.87419230980425
  H   -2.47370021376181     -0.38190140995807     -1.07706684548726
  H   -1.53462070189292     -1.55370621081720     -0.12949853216341
  H   -1.04995465600263     -1.16904563150888     -1.79097039250693
  N   -1.24427111544192      0.94548954703393      0.81204393338753
  H   -0.64146238973199      1.59974863163868      1.29066511895419
  H   -1.55417672309416      0.22060976223260      1.44477825297940
  N   0.96325402727310     -1.15262143520904      0.76305915195219
  O   1.01967123914027     -2.29308334719412      0.31067805484441
  O   0.94927031531581     -0.82933143317352      1.94757560383750
  N   1.81474284463739      1.01509779610623      0.14651252412762
  O   2.93417469896652      0.89610661906622     -0.34469385113911
  O   1.45205114970494      1.88851990477524      0.92667557694367
