17
Coordinates from ORCA-job run
  C   -0.64143923709018      0.27802567486533     -0.14061211715656
  C   0.77230148241610     -0.19957783680270      0.21131337078479
  Cl  -0.78610268222576      0.44972359234176     -1.95181162349432
  H   0.78606325985526     -0.53347862513932      1.24792828134973
  C   -1.67110429975606     -0.75601812312168      0.28920322155018
  H   -1.60790030139548     -0.90900674056131      1.36885674517839
  H   -1.52781033351996     -1.70481440773348     -0.22103533725408
  H   -2.66470122687063     -0.37791867999598      0.03992237470791
  N   -0.85758230335376      1.48942041237811      0.57601740735794
  H   -1.84409747241814      1.71292147177930      0.60405871043897
  H   -0.35014836812551      2.26103719028285      0.16201110789941
  N   1.85131159776823      0.83970673454704      0.10981299105848
  O   1.66416156649913      1.83551764397249     -0.57953650847256
  O   2.86925052088512      0.56501733315081      0.73691341872502
  N   1.23295604683301     -1.36321736644256     -0.62189201609922
  O   2.00415086370092     -1.13704503361321     -1.54430672876006
  O   0.77169088679772     -2.45029323990746     -0.28984329781402
