17
Coordinates from ORCA-job run
  C   -0.61119063937358      0.35754630713002     -0.13218963267334
  C   0.78738815060332     -0.10525298856943      0.30410326557097
  Cl  -0.51764049557028      0.98029259924285     -1.85001408926653
  H   0.78077237843684     -0.23413761271573      1.38696474422699
  C   -1.56817299501093     -0.82488027877137     -0.13137586177222
  H   -1.29373067504759     -1.56146261141385     -0.88491362553434
  H   -1.58184047015327     -1.29005980135788      0.85665924298470
  H   -2.57085868625515     -0.46350564079423     -0.36645138740983
  N   -1.06326549187216      1.33759258772310      0.79517238459539
  H   -2.02235832141272      1.59180750621194      0.59400973654915
  H   -0.48236307734247      2.16576586578822      0.76567421967787
  N   1.89581995720989      0.87354741627688      0.01107388819904
  O   2.97032699780601      0.42387038223801     -0.35766105988319
  O   1.63658176303769      2.04655281791773      0.25450799291499
  N   1.14236065708472     -1.43378560197317     -0.27931130665048
  O   1.17436590835753     -2.36577224831736      0.52305115091265
  O   1.32280503950213     -1.49711869861572     -1.48829966244181
