17
Coordinates from ORCA-job run
  C   -0.65266168762101      0.43078134181013     -0.05724498628692
  C   0.66209887667902     -0.34715965036736      0.16783853525924
  Cl  -0.26451538779493      2.12664469248049     -0.47581140888282
  H   0.44291107892952     -1.41357877790586      0.23162827875789
  C   -1.41886420965067     -0.18430037625221     -1.21844189294155
  H   -2.35957976607033      0.35797824162772     -1.31086477527737
  H   -0.86615344166024     -0.11679521673236     -2.15245832829588
  H   -1.63216386739292     -1.23860920455814     -1.01601501998602
  N   -1.49975700743531      0.43191549463554      1.10265255598618
  H   -1.86614643922052     -0.49191761747776      1.29520500406183
  H   -1.03672484974100      0.81836465633942      1.91374097109702
  N   1.41330781858894     -0.02578245569008      1.43043293748765
  O   1.16629469277321      1.01112197614099      2.03474967204854
  O   2.24940426003616     -0.86966434243221      1.73890705861785
  N   1.65629647119152     -0.19769163394075     -0.95065569169219
  O   2.56161251442370      0.61240776800996     -0.80327276645313
  O   1.44364094396484     -0.90371489568754     -1.93139014350030
