17
Coordinates from ORCA-job run
  C   -0.55545313768468      0.26555655159349     -0.32371664972703
  C   0.75545094516043     -0.25399383620926      0.30306365466485
  Cl  -0.34970206071363      0.46515106396379     -2.08482768921508
  H   0.55499483526228     -0.61038818491343      1.31592937999129
  C   -1.72559626249247     -0.67673096390722     -0.07739835487080
  H   -1.85845367206315     -0.81704419888361      1.00041611521287
  H   -1.57953962311088     -1.64550635089964     -0.54753789946615
  H   -2.62860271866048     -0.21549392851356     -0.48158182291022
  N   -0.74290384766903      1.58991359485798      0.24616940254842
  H   -1.12945211448178      1.51093630701650      1.18160337081119
  H   -1.39083158972661      2.11964134445620     -0.32356600840607
  N   1.74968562696512      0.85504041974070      0.44564883586028
  O   1.99290052984359      1.19162411956224      1.60151797924753
  O   2.20692864428642      1.33672212548342     -0.57835376199383
  N   1.41085150863258     -1.40992935276549     -0.41085564155509
  O   2.63070571960117     -1.39964078833361     -0.49622327712244
  O   0.65901721685114     -2.30685792224849     -0.77028763306971
