17
Coordinates from ORCA-job run
  C   -0.60942771976935      0.37046581287682      0.00177176057023
  C   0.68341868575615     -0.44403225473678      0.13040453421307
  Cl  -0.19112567694994      2.12476320914431     -0.27922337313367
  H   0.44430197543621     -1.50352088217944      0.04947813568003
  C   -1.40714923775980     -0.09297262673086     -1.20779038908449
  H   -1.66373679931490     -1.14865513440004     -1.09470718229387
  H   -2.32639673384256      0.49394725749834     -1.26095298110394
  H   -0.85591271494695      0.04953784399064     -2.13352961446080
  N   -1.36397944228876      0.13702158300359      1.18642703873336
  H   -0.97337101762265      0.63116957533551      1.97857934390814
  H   -2.32643098748645      0.42043531605595      1.05506346607975
  N   1.41594805805475     -0.29497390647593      1.43227455066716
  O   2.20319166624472     -1.20540385382138      1.66948725558366
  O   1.20890753264270      0.69212022060187      2.12856574617059
  N   1.68556812501263     -0.14545731248041     -0.94980420376600
  O   1.44766335679062     -0.66871436561528     -2.03349150178750
  O   2.62653093004358      0.58526951793309     -0.67155258597570
