17
Coordinates from ORCA-job run
  C   -0.67508317597699      0.23688177761099     -0.31921412783754
  C   0.71055266606235     -0.11875739199587      0.26382054886458
  Cl  -0.58060939719396      0.21080813232378     -2.10612363593439
  H   0.61343649850658     -0.30113781021985      1.33462284777225
  C   -1.69717867818875     -0.80030005543959      0.12018853302951
  H   -1.74790907729043     -0.84329959714176      1.21273961685108
  H   -1.45650969942141     -1.79259247266549     -0.25368952220595
  H   -2.66586938026368     -0.48823126705360     -0.26942667329135
  N   -1.13124681399371      1.53418074538817      0.09277113665980
  H   -0.48365023821817      2.26774341305380     -0.15962282269029
  H   -1.34767907389839      1.55731045347149      1.08115957372671
  N   1.76951910556709      0.94141366198880      0.14114884362219
  O   2.72157237950947      0.78322640143174      0.89957148696815
  O   1.63085479714122      1.84291701535403     -0.67710643566821
  N   1.31215068612790     -1.36983601332746     -0.31480370143317
  O   2.15388412435705     -1.24317746477373     -1.19404186483250
  O   0.87376527717384     -2.41814952800547      0.14800619639914
