17
Coordinates from ORCA-job run
  C   -0.53874971066944      0.39622894292473     -0.42993321894352
  C   0.88700201668678     -0.14080121192103     -0.23485766604330
  Cl  -0.48777246514685      1.39095429108169     -1.93029057630515
  H   1.29997073676662     -0.52725817350852     -1.16369257445285
  C   -1.50232873764477     -0.75623203946438     -0.70625570926037
  H   -1.64542471849239     -1.35299975082744      0.19505975365813
  H   -2.46601365969961     -0.34012360411785     -1.00450290428091
  H   -1.14514764944811     -1.39558363358772     -1.51746280835439
  N   -0.87737238859133      1.27966930615842      0.65184442688985
  H   -0.89127606365947      0.76155372238728      1.52328671662114
  H   -1.78659432484913      1.69478995624639      0.48849065078791
  N   0.96473698946995     -1.25529984584475      0.76565361583374
  O   1.81622458757630     -2.11014702392753      0.53470170961749
  O   0.21427535127713     -1.21999648416482      1.73698074120004
  N   1.82911365935545      0.93174681107335      0.25390846474534
  O   1.97692796315832      1.04207852043485      1.46338489883948
  O   2.35242841391055      1.60242021705734     -0.62531552055263
