17
Coordinates from ORCA-job run
  C   -0.54435973869606      0.46743399603964     -0.34252563862155
  C   0.84479576807456     -0.18852387312709     -0.33641148498784
  Cl  -0.56167369099258      1.56653138515919     -1.76909088349876
  H   1.12925447090139     -0.53191882370315     -1.32825727531122
  C   -1.62221052732545     -0.58532720478713     -0.59261407331425
  H   -1.72407245045288     -1.23533470758046      0.27692913526758
  H   -1.40071466771566     -1.18740943097514     -1.47742957332126
  H   -2.57328327835014     -0.07723840177949     -0.76020986233222
  N   -0.69891115955954      1.28937999079276      0.82619703810388
  H   -1.58287276626886      1.78217507222601      0.78817300045805
  H   -0.66717500201030      0.70934445463998      1.65722112935602
  N   0.92809633320807     -1.37944183664274      0.57101842530384
  O   0.28678618440768     -1.35992052283064      1.61802646327443
  O   1.67391376151543     -2.27883629286414      0.19151889917827
  N   1.91599834794501      0.76962015501676      0.12270022038998
  O   2.40263449769283      1.46442355369135     -0.75882013953424
  O   2.19179391762648      0.77604248672429      1.31457461958929
