17
Coordinates from ORCA-job run
  C   -0.59414092986082      0.49670835957954     -0.04159623442721
  C   0.85906858580561      0.18853795377675      0.33196122882016
  Cl  -0.47950279515583      2.19830514859187     -0.75328465629790
  H   1.23542054996810      0.93192399664089      1.03029149094300
  C   -1.26237950812645     -0.38041675724327     -1.08088822544829
  H   -1.28948524223827     -1.41188785112581     -0.73174869421572
  H   -2.28332015454047     -0.01664651677816     -1.21921720718906
  H   -0.74732862909077     -0.33710222382741     -2.03491117370248
  N   -1.31579247851819      0.44789414240789      1.17670125810359
  H   -0.99821357813409      1.12938874153904      1.85519429908173
  H   -2.31007181082591      0.55796811001911      1.02691579783243
  N   1.83166347162613      0.18318359836120     -0.80733835818502
  O   2.83103973333331      0.87968710878703     -0.64239700409885
  O   1.57820497937598     -0.51542460580056     -1.78180667028904
  N   0.95945411967482     -1.13418987618584      1.04303803392402
  O   0.74545192430263     -2.14913360545679      0.39152701239320
  O   1.23993176240423     -1.06579572328549      2.23555910275544
