17
Coordinates from ORCA-job run
  C   -0.58065693574702      0.57035627158761     -0.03053890863860
  C   0.86512936979362      0.25305099455143      0.37538415409997
  Cl  -0.51778051901380      2.26079187966111     -0.63476016345811
  H   1.25532620667564      1.05018133722084      1.00305626751760
  C   -1.16684779404687     -0.29540812727411     -1.13332530130116
  H   -2.19174610123015      0.03483119687998     -1.31255730807391
  H   -0.60880221513369     -0.20637544515676     -2.06483108202295
  H   -1.17370182589775     -1.33987735339522     -0.82357957782668
  N   -1.32038406223773      0.59007484680159      1.22003235668863
  H   -1.68497432094460     -0.33724492268163      1.40587698099364
  H   -2.09372808526126      1.23932712348441      1.14959310766319
  N   1.79140896345888      0.09216123495212     -0.79194789906457
  O   1.74662798283397     -0.98590667743247     -1.37937989575765
  O   2.49863188042006      1.05477727630931     -1.06650566385477
  N   1.00716937602460     -1.01748457250995      1.16898187021714
  O   0.09055668956934     -1.83233247457782      1.16837192239679
  O   2.08177139073677     -1.13192258842042      1.74812914042145
