17
Coordinates from ORCA-job run
  C   -0.62863512502397      0.33588424319768     -0.01976185632811
  C   0.69717180540274     -0.41543978267940      0.15116429165220
  Cl  -0.29666822222981      2.12697781664860     -0.13071363749568
  H   0.52872304738400     -1.47622344864709     -0.02937705993743
  C   -1.30142131822575     -0.07071858366592     -1.32221455932739
  H   -1.50262840370848     -1.14424180562243     -1.31081894710230
  H   -0.68963035486767      0.17495800345127     -2.18621160690063
  H   -2.24715651923978      0.46863426230944     -1.40576202766530
  N   -1.45690568245645     -0.03351888421050      1.07803507380599
  H   -1.15981814355133      0.41637230092991      1.93453648584266
  H   -2.42174663792706      0.20659568508920      0.89003580901922
  N   1.31671976818070     -0.33320890399490      1.51633701405932
  O   0.99754803656823      0.58176472504153      2.26661315191273
  O   2.13611373796335     -1.21642430755931      1.74711524625333
  N   1.75982157488863      0.02289126036063     -0.81743181955314
  O   2.63004096736622      0.77930455052005     -0.40833957454661
  O   1.63947146947642     -0.42460713116877     -1.95320598368888
