17
Coordinates from ORCA-job run
  C   -0.56368114926912      0.49384798572685     -0.26622888696745
  C   0.83552968830117     -0.12905041058558     -0.38294471218170
  Cl  -0.64767700640310      1.75527508554390     -1.54945494068477
  H   1.09177014796015     -0.34496897645176     -1.41749426272358
  C   -1.63091070231392     -0.54405605763699     -0.60782302189245
  H   -2.59563160367330     -0.03983686315918     -0.68418715336649
  H   -1.42818187353373     -1.03155296080724     -1.56474346706964
  H   -1.69253473326776     -1.29516896856564      0.18029365034176
  N   -0.69345038918966      1.16656385799359      0.99670364972236
  H   -1.58861500023564      1.63741542293334      1.04818559340129
  H   -0.61836298085628      0.49391704836961      1.75161535093308
  N   0.96997997873715     -1.41768426977715      0.37178192752511
  O   0.36526545063965     -1.53603168046657      1.43403534302829
  O   1.71676618610749     -2.24996656458785     -0.13690549484845
  N   1.90584989812477      0.78944756558194      0.15319401685647
  O   2.35294983845702      1.59212400113291     -0.65471129182652
  O   2.21993425041510      0.66172578475583      1.32868369975269
