17
Coordinates from ORCA-job run
  C   -0.59269803947869      0.38894398341978     -0.22892483458513
  C   0.79105479464844     -0.25747540315632     -0.31749949122903
  Cl  -0.56293959393318      1.60941080954000     -1.63479953782451
  H   0.91042342902170     -0.80219121673879     -1.25102196573278
  C   -1.68891372232596     -0.60441347970783     -0.57669195093934
  H   -1.76747376392506     -1.36077945092681      0.20340195679543
  H   -2.63536589598176     -0.06512389202955     -0.65134502567056
  H   -1.49740688794450     -1.08576958452087     -1.53520548949422
  N   -0.81984333341327      0.95390752510868      1.03653173860465
  H   -1.76266237278060      1.30681463522531      1.12824391464816
  H   -0.14076678941290      1.66137508452087      1.28194701814975
  N   0.97819972346975     -1.24948575859123      0.80378766182081
  O   1.58706818133748     -0.88399465217077      1.79929285674846
  O   0.47179607334456     -2.34796955930615      0.60413287893027
  N   1.94833243369551      0.69402431112035     -0.24150248735720
  O   1.84124961394645      1.69646270057727      0.45524856651659
  O   2.94094614973201      0.34726394763606     -0.87459580938134
