17
Coordinates from ORCA-job run
  C   -0.54166971205542      0.60735693468597      0.02430592124499
  C   0.91316140596337      0.19432748251024      0.28612562792483
  Cl  -0.42665088059263      2.29033100516598     -0.59391591446720
  H   1.41485262983236      0.96225173128448      0.86947628822576
  C   -1.29205468956546     -0.21628299317994     -1.00899102861718
  H   -1.33864091287280     -1.25785758108762     -0.69291177926868
  H   -2.30502619131710      0.18295433009084     -1.08701062323288
  H   -0.82537758356306     -0.16558416456325     -1.99212951982490
  N   -1.15001224340299      0.67697170396022      1.34207480682998
  H   -1.88597380239004      1.37196711062609      1.34192148052667
  H   -1.54997753156775     -0.22568750765881      1.57161482884567
  N   1.70689857589433     -0.02299981924584     -0.96639549617563
  O   2.44971782770611      0.88943351794900     -1.30949880083607
  O   1.52964545136936     -1.09176976398921     -1.54578152895958
  N   1.04973743008411     -1.08539602627763      1.06578059266145
  O   2.16833580621501     -1.27510058934089      1.53038552240705
  O   0.08403442026259     -1.83491537092963      1.16494962271573
