17
Coordinates from ORCA-job run
  C   -0.64242602053901      0.44030716096251     -0.28197343764813
  C   0.80865529642634     -0.09173962285516     -0.32525667449477
  Cl  -0.62784744552293      1.73872237396969     -1.54109411796345
  H   1.06028636746892     -0.48839766580024     -1.30528683530177
  C   -1.58200261176029     -0.66007187760914     -0.74815038344408
  H   -1.27010024910452     -1.07190165917336     -1.70787490094430
  H   -1.61859434085285     -1.47131779323861     -0.01622367747558
  H   -2.57909625097172     -0.23197314401574     -0.84893646638549
  N   -1.11270335493835      0.98720230122576      0.94198849277935
  H   -1.39473526822222      0.26294418634421      1.58848461744731
  H   -0.43448256400189      1.60001768558721      1.37239334531717
  N   0.96642767881881     -1.21592064520011      0.65230124858279
  O   1.07953886361042     -0.91748585387233      1.83794308351245
  O   0.91711836533776     -2.34792025450167      0.17809982981095
  N   1.87089948566384      0.91863779474249     -0.00824564278215
  O   2.92803060170912      0.76323746198216     -0.61409546551891
  O   1.63103144687858      1.78565955145234      0.82492698450862
