17
Coordinates from ORCA-job run
  C   -0.58825776183197      0.50430804975733     -0.03569196411195
  C   0.85828207061451      0.17146453174658      0.34151575794526
  Cl  -0.44835876939264      2.21702582431248     -0.71399657150486
  H   1.23780138231175      0.89478605651834      1.05896292927242
  C   -1.26141882462439     -0.34480904926608     -1.09484988140453
  H   -2.27503804781424      0.03796941761544     -1.23586031745542
  H   -0.73737753897700     -0.29421020128647     -2.04358846668760
  H   -1.30867590320729     -1.38117163186504     -0.76278714878171
  N   -1.31797695264418      0.44114673334662      1.17765851980608
  H   -0.99721544496580      1.10775361437450      1.86939503243039
  H   -2.30994384917658      0.56567581614165      1.02343310053687
  N   1.84108335469659      0.17964168779277     -0.78928267268785
  O   1.58285564212465     -0.48388517842433     -1.78665525750059
  O   2.85305532175880      0.84978256249307     -0.59439292239962
  N   0.93974769566579     -1.16813157279258      1.02225161396622
  O   1.21242018271639     -1.13143702357020      2.21793087964565
  O   0.72001744274562     -2.16490963689409      0.34495736893124
