17
Coordinates from ORCA-job run
  C   -0.58350925508879      0.56821159371189     -0.02913308226305
  C   0.86009957055925      0.25443789342430      0.38701457525779
  Cl  -0.52504564816893      2.26616208361829     -0.61387639452670
  H   1.24146289627381      1.04753512296463      1.02522401540714
  C   -1.15295914877303     -0.28833670035772     -1.14775530663186
  H   -0.58862941405652     -0.18234394605491     -2.07373515752441
  H   -1.15297546220024     -1.33677557995020     -0.85138721317364
  H   -2.17937509608068      0.03488233787575     -1.33107949728307
  N   -1.33653658522028      0.57126830454476      1.21345962643372
  H   -2.12155088592086      1.20553616785634      1.13442600458341
  H   -1.68563654948722     -0.36348172248932      1.39223650998816
  N   1.79601876451859      0.10949024882719     -0.77496087627206
  O   2.49645096195716      1.07985522056522     -1.03876787100431
  O   1.76497779751975     -0.96531385556581     -1.36922484427524
  N   1.00253769357318     -1.02293813819277      1.16917078356144
  O   0.09017669608639     -1.84242061934792      1.15356798724061
  O   2.07349366450843     -1.13776841142972      1.75482074048207
