17
Coordinates from ORCA-job run
  C   -0.63294555027231      0.41895548447727     -0.33071059754794
  C   0.81205002187456     -0.12949853373528     -0.30301119812574
  Cl  -0.58445624008595      1.59555644446934     -1.70535880232918
  H   1.07436787706388     -0.61521479119096     -1.23914749340590
  C   -1.57864060972262     -0.70955104791797     -0.70875009229212
  H   -1.25881383154243     -1.20966641635302     -1.62281453244985
  H   -2.56921175653584     -0.28200302032977     -0.86239188574927
  H   -1.63399565282609     -1.45044251337740      0.09328074214313
  N   -1.11436536923641      1.08169058596742      0.82946561953654
  H   -1.41844698632096      0.42380221926215      1.53424005847732
  H   -0.43498341152694      1.72301217166699      1.21395104969994
  N   0.94234733449051     -1.16176077914610      0.77469751954164
  O   1.03664396905860     -0.75727738113175      1.93025755298982
  O   0.89226461730160     -2.33184577817375      0.40454320313113
  N   1.88182379738319      0.89443706852296     -0.06122858112199
  O   1.63894417115059      1.83839998676131      0.68255176928570
  O   2.94741761974661      0.67040630022857     -0.62957433178324
