17
Coordinates from ORCA-job run
  C   -0.65707171276466      0.56487283895506     -0.10264186049757
  C   0.78031161130452      0.26646012467801      0.37260798976855
  Cl  -0.53788089026103      2.24142280680483     -0.75508906353326
  H   1.13508868645902      1.05282814191392      1.03802579030238
  C   -1.17947275436788     -0.33988126565378     -1.20178071970854
  H   -2.19133915264054     -0.00969376164291     -1.43649268678803
  H   -0.56686863005048     -0.27634208923647     -2.09853675695005
  H   -1.20396363828827     -1.37550584678622     -0.86401900935012
  N   -1.58720113754961      0.60287829852347      0.99008088032246
  H   -1.75807602502772     -0.33122904984834      1.33956376932310
  H   -1.28050711753929      1.21201854819345      1.73889053603208
  N   1.78618989216016      0.16020433271910     -0.73652769555868
  O   2.53255730942922      1.11811270217163     -0.89843975395667
  O   1.76430298308369     -0.88165797431523     -1.38671049432069
  N   0.93387365277855     -1.02395141809843      1.14264323241839
  O   2.02644803633390     -1.15554814273527      1.68395524678896
  O   0.00660888694043     -1.82598824564282      1.17547059570769
