17
Coordinates from ORCA-job run
  C   -0.54201455125024      0.60710670462417      0.02070640055854
  C   0.91177312246012      0.19525614952402      0.29147149079227
  Cl  -0.42563143807031      2.28948261987296     -0.59854930212129
  H   1.40969395926840      0.96442587008073      0.87644313597713
  C   -1.28452515072352     -0.21868364265709     -1.01670215565292
  H   -2.29777303066706      0.17851341751414     -1.10148660613946
  H   -1.33145377525342     -1.26015031132991     -0.70045487467994
  H   -0.81158408700270     -0.16705154793283     -1.99682797441875
  N   -1.15846594298841      0.67692545564176      1.33458669915155
  H   -1.89387621106779      1.37240742490943      1.33023787442010
  H   -1.56000857922568     -0.22550074473254      1.56214336351867
  N   1.71256805611706     -0.02259399179556     -0.95625962493367
  O   2.45522819808859      0.89103889899371     -1.29664950456731
  O   1.54036272088331     -1.09216756012234     -1.53553858864180
  N   1.04369676283973     -1.08302895681839      1.07361382169907
  O   0.07634898930809     -1.83091552091843      1.16924680698049
  O   2.15966095728386     -1.27406426485385      1.54401903805733
