17
Coordinates from ORCA-job run
  C   -0.64307871067827      0.56194394766413     -0.08905763237943
  C   0.81429834435471      0.20756957267197      0.30792996625581
  Cl  -0.47332218359682      2.11123877762636     -0.98854765606671
  H   1.16597980862516      0.89934426494969      1.07453248547441
  C   -1.31694183409169     -0.46608027985786     -0.97658741121068
  H   -2.30058208827464     -0.07806391882105     -1.23891551549127
  H   -0.74120083605721     -0.65680863210707     -1.87843569842248
  H   -1.44832192570640     -1.40158768399944     -0.42786799886231
  N   -1.47923137868215      0.84025080096769      1.04639478253834
  H   -1.09866506013251      1.58635362109862      1.61679426470675
  H   -1.58513492725405      0.00434386729806      1.60740105043803
  N   1.80841332020117      0.28730284652489     -0.80805670237160
  O   1.59817596316316     -0.40783533694460     -1.79473980049032
  O   2.75321580290528      1.05003726537647     -0.63069268847066
  N   0.94462936968118     -1.18340650631488      0.89745215284950
  O   1.96261781055573     -1.81029832101901      0.63916531749357
  O   0.04014852498735     -1.54530428511397      1.64323108400904
