17
Coordinates from ORCA-job run
  C   -0.55399479870558      0.43022219948487     -0.06239879936714
  C   0.72879062377341     -0.39865547905918      0.13680341056712
  Cl  -0.15024824447116      2.11924112195380     -0.47094248970185
  H   0.47545005963973     -1.46066542964376      0.17744447002321
  C   -1.43180040127049     -0.13983572240626     -1.16957242426242
  H   -1.68629327776625     -1.17818862814767     -0.93234677909992
  H   -0.94459277694138     -0.10205667763978     -2.14051014616182
  H   -2.35533876739036      0.44060511002769     -1.21013640348529
  N   -1.19141011544540      0.45040292738314      1.24337631740500
  H   -1.63149220567432     -0.44571737353142      1.42880983472463
  H   -1.90568936807481      1.16810838056684      1.26117739930628
  N   1.36574056956795     -0.08414684982634      1.45492138397739
  O   1.90023593349181      1.00813103299142      1.56870615996706
  O   1.26764383222859     -0.95993580455620      2.30842574887529
  N   1.78260457723791     -0.28098451319225     -0.93542825486809
  O   1.39274794485939     -0.09552217711919     -2.08070462285476
  O   2.93764641494096     -0.47000211728570     -0.57762480504467
