17
Coordinates from ORCA-job run
  C   -0.59906790881824      0.49007789532105     -0.05204051314028
  C   0.85227284306769      0.19947443685054      0.34241293212175
  Cl  -0.49312516347031      2.18867614639377     -0.76974575387913
  H   1.21084763306771      0.94971828390381      1.04279409507016
  C   -1.24449541074750     -0.39972128738652     -1.09496463564325
  H   -1.26646742935069     -1.42905856646287     -0.73916197177011
  H   -0.71707164273586     -0.35813846614941     -2.04224885080686
  H   -2.26697974680766     -0.04694731145785     -1.24940498259992
  N   -1.33631583078961      0.43804594893809      1.15722417746583
  H   -1.03302838104388      1.12407262945850      1.83778821019492
  H   -2.32911617184291      0.54159012894745      0.99318216545085
  N   1.84155303390479      0.20074116824609     -0.78234758066889
  O   1.60609411351817     -0.49564059024301     -1.76290711926825
  O   2.83604398089031      0.90008998824723     -0.59987224576756
  N   0.95759370949351     -1.11957530896335      1.05924395794121
  O   1.21266563471785     -1.04469585477316      2.25701476231860
  O   0.76959673694663     -2.13870924087036      0.40603335298093
