17
Coordinates from ORCA-job run
  C   -0.62687816540781      0.41148181326158     -0.35348397158104
  C   0.81925390322334     -0.12962364640118     -0.28158579124984
  Cl  -0.55004624835541      1.56582913177588     -1.74502948827110
  H   1.10687032712156     -0.62639355185799     -1.20444077142929
  C   -1.55771648675345     -0.72788994390942     -0.73555248750611
  H   -2.54574613175159     -0.30722467976258     -0.92126958814998
  H   -1.63073773244991     -1.45513621801701      0.07747586299389
  H   -1.21292754853959     -1.24241773983253     -1.63239521103475
  N   -1.14011895146669      1.09091215563658      0.78349366565160
  H   -1.45186080390739      0.44272932201274      1.49396135206490
  H   -0.47500136332132      1.74557187247576      1.17041752948420
  N   0.92722835049012     -1.14656115541924      0.81298652022360
  O   0.89332282183779     -2.32205114252452      0.45862403367142
  O   0.98899953635527     -0.72499206263946      1.96474140337445
  N   1.87968483989934      0.90063716111170     -0.02557198596156
  O   1.61148130975735      1.86073109163270      0.68824174446637
  O   2.96419234326839      0.66439759245700     -0.55161281674677
