17
Coordinates from ORCA-job run
  C   -0.55128043498726      0.59885063538098      0.00846045634097
  C   0.90917531516356      0.21529876819616      0.28369043477187
  Cl  -0.46094491629826      2.26858092564591     -0.64852223779389
  H   1.39654318674573      1.00491582684643      0.84998203322161
  C   -1.28537929274416     -0.26047719790599     -1.00732607802162
  H   -2.30451565100095      0.12020980313977     -1.09697736432800
  H   -1.31585734752229     -1.29512503444553     -0.66751046184322
  H   -0.81682311123783     -0.22459945190547     -1.99023990430721
  N   -1.16444815760438      0.68871039568059      1.32270562497940
  H   -1.90750320395843      1.37582862143738      1.30691966400042
  H   -1.55508965208928     -0.21329097498627      1.57001737797662
  N   1.71029402238280     -0.01918258499976     -0.96071357963563
  O   1.55062823329954     -1.10364993657194     -1.51564193089057
  O   2.44098711796047      0.89586891613975     -1.32263421135112
  N   1.06294845520789     -1.04291507221839      1.09446277833862
  O   0.10958184609616     -1.80651129257171      1.20535312715045
  O   2.18168359058668     -1.20251234686191      1.56997427139130
