14
Coordinates from ORCA-job run
  C   -0.42200460494338      0.52001366594240      0.41212841378641
  C   0.61348018601272     -0.56394356838190      0.07285314664368
  Br  0.19659007694359      1.59450276027099      1.89549927328065
  H   0.79183728874160     -1.17523618236557      0.95719881880243
  C   -0.77528162310687      1.36294942422995     -0.71319680419023
  N   -1.07791587664698      2.04757944529727     -1.62135402735240
  N   -1.70700534199681     -0.20937171474018      0.90130029698308
  O   -1.52676125722830     -1.28373287562611      1.45417961550971
  O   -2.75747835114961      0.38292523354219      0.72881202644935
  N   1.93704082774366      0.08625789391299     -0.28330139289742
  O   2.85087804861721     -0.10272692119653      0.50929141885506
  O   1.96255234549733      0.73709607053558     -1.31986368626037
  C   0.15202671500519     -1.37081674636662     -1.04805080586430
  N   -0.23795843348934     -2.02449648505447     -1.94349629374564
