14
Coordinates from ORCA-job run
  C   -0.59200794439989      0.45569546628932      0.47606538482776
  C   0.81701565322341     -0.12888332022566      0.31360563390700
  Br  -1.10745007885805      0.32798655249937      2.34123862996997
  H   1.52257740641862      0.57277842088617      0.77325604706818
  C   -0.64041449972242      1.84962547805423      0.06950463484470
  N   -0.62181486937586      2.99131000083579     -0.21270781310716
  N   -1.62523029636724     -0.35094715944631     -0.33192487536201
  O   -1.33132619478412     -1.51440558462316     -0.55349365949002
  O   -2.64772775270551      0.24239467811910     -0.62688274326605
  N   1.21964876672848     -0.16734163057883     -1.16295995535107
  O   2.31258225447435     -0.65910490399387     -1.38938241339842
  O   0.43779044183421      0.32940380348279     -1.96292129482933
  C   1.01365973272082     -1.44857023921681      0.89633096727563
  N   1.24169738081321     -2.49894156208212      1.37027145691082
