14
Coordinates from ORCA-job run
  C   -0.47112929510690      0.47447222807003      0.41846927847773
  C   0.59447986891855     -0.58303872277981      0.08547284348480
  Br  -0.06970476400416      1.32824644571269      2.10506147413820
  H   0.64690796486515     -1.30236787509967      0.90260889824603
  C   -0.64820437701626      1.46838133608484     -0.62181240944807
  N   -0.80468824913527      2.27924463826451     -1.46037664287757
  N   -1.81442691506985     -0.28597005652532      0.61380604459191
  O   -1.71998331610072     -1.39825978709071      1.10961648136893
  O   -2.82560650516172      0.31529704380357      0.29678697828920
  N   1.95725050179054      0.07553468149210     -0.00828488164451
  O   2.14427297535437      0.80557035435763     -0.97364523211460
  O   2.73462836031779     -0.18274099096815      0.90161660523184
  C   0.27802800045502     -1.23289425328872     -1.17862812550640
  N   -0.00182425010653     -1.76047504203300     -2.19069131223748
