14
Coordinates from ORCA-job run
  C   -0.62613656497672      0.27011691358959      0.38015050151882
  C   0.76482481185316     -0.18234179180269     -0.09985819287080
  Br  -1.55315877632699     -1.14306311686005      1.28065801043523
  H   1.15990818763882      0.59730225578749     -0.76071867597364
  C   -0.48196703222323      1.42061838321526      1.25841071781550
  N   -0.36126085870515      2.35727983261832      1.96081018252225
  N   -1.42851396903781      0.79531203920610     -0.86476543151374
  O   -2.56251331083531      0.40302646743244     -1.02995365846808
  O   -0.79641492693061      1.60879848404802     -1.52039659306071
  N   0.64367020563228     -1.42719762334978     -0.96854331532267
  O   1.45759201035380     -2.31982896964047     -0.79223514180802
  O   -0.25173196557021     -1.38447105091819     -1.80170994320445
  C   1.65845405857027     -0.42150328427881      1.02076651827182
  N   2.37624813055768     -0.57504853904724      1.93838502165848
