14
Coordinates from ORCA-job run
  C   -0.60547635241945      0.45159307211194      0.45821572809782
  C   0.81165604060133     -0.12210792844837      0.33060125596880
  Br  -1.16590579975884      0.32517794115427      2.31025482499644
  H   1.50125786536622      0.58664622182240      0.80345963598109
  C   -0.65663606180934      1.84395199058594      0.04646247962673
  N   -0.65109127683604      2.98738980429664     -0.22907429845505
  N   -1.61111371326302     -0.36676767303192     -0.37266829317204
  O   -1.29867381751461     -1.52668526793264     -0.58783200437133
  O   -2.63349082359721      0.21464276504067     -0.69073699010420
  N   1.24738995607981     -0.16262110845940     -1.13634328480225
  O   0.48540031532142      0.33553171513165     -1.95429343334685
  O   2.34453688800343     -0.65607850753433     -1.33782116013388
  C   1.00541788387407     -1.43750247464103      0.92363056603552
  N   1.22572889595223     -2.47217055009584      1.43414497367920
