14
Coordinates from ORCA-job run
  C   -0.51677577725123      0.48726467779344      0.33757551900553
  C   0.60090205620006     -0.55578846001162      0.17421232990251
  Br  -0.26612054618824      1.48537813711748      1.97376708881711
  H   0.60303848932921     -1.21344772570817      1.04315275876619
  C   -0.64375469108662      1.38753887551947     -0.79155557089278
  N   -0.75939616477519      2.12016371713085     -1.70542419495025
  N   -1.85263016568485     -0.29524723471661      0.49651133691267
  O   -2.85778236042005      0.27503181800851      0.11105711240210
  O   -1.76348799643152     -1.38717090956952      1.03693728900395
  N   1.94926573379366      0.13864381435409      0.14850079570265
  O   2.17700116747361      0.85064457228775     -0.82090119681650
  O   2.67561216650308     -0.07891351727381      1.10981602508902
  C   0.41462010699479     -1.30436981966231     -1.06076220056782
  N   0.24050798154328     -1.90972794526955     -2.05288709237436
