14
Coordinates from ORCA-job run
  C   -0.67887537930714      0.13170513709219      0.36407123337089
  C   0.78768750663385     -0.02286685063805     -0.07823511213279
  Br  -1.32656054080105     -1.45737544562041      1.21490668601651
  H   1.03704189960024      0.83375652736660     -0.71445822958576
  C   -0.79235488373989      1.26893286713132      1.26366655041009
  N   -0.87754938464854      2.19585944409937      1.98383105375861
  N   -1.53555205292631      0.51003340191206     -0.89707551382608
  O   -2.56209805896490     -0.09888693610887     -1.10319693344004
  O   -1.06254131145631      1.44690066568175     -1.52113310678580
  N   0.94361836155582     -1.24802766326021     -0.96940544084313
  O   1.91372121830434     -1.96434420471502     -0.77950974405048
  O   0.08333875757906     -1.36588997814597     -1.83185690251835
  C   1.67908412778128     -0.10228411657407      1.06664428026840
  N   2.38903974038953     -0.12751284822070      2.00275117935793
