14
Coordinates from ORCA-job run
  C   -0.49222093288612      0.47576978345362      0.38883870114037
  C   0.64192094665853     -0.52402484218434      0.11082908500464
  Br  -0.08817086860892      1.52622837893046      1.96007651442477
  H   0.77915099142848     -1.15822067219024      0.98640463157545
  C   -0.79710342794811      1.33895816311819     -0.73518646162421
  N   -1.06327153622429      2.03504754818425     -1.64599623517567
  N   -1.76209808044211     -0.35813177365131      0.72763226799292
  O   -2.83141329450100      0.15355171483525      0.44722261703418
  O   -1.55800665325942     -1.42594308394811      1.28463141796654
  N   1.94498759550026      0.22417438510070     -0.09618682136912
  O   2.02230433059811      0.91450787269061     -1.10427985070630
  O   2.79138483785568      0.06577041689088      0.77417454614480
  C   0.33935734605279     -1.31239880167374     -1.07552144197937
  N   0.07317874577610     -1.95528908955621     -2.02263897042901
