14
Coordinates from ORCA-job run
  C   -0.58236698779271      0.45622363512137      0.48364078076272
  C   0.82556336595545     -0.12363737835987      0.29463233811280
  Br  -1.06000438618381      0.34081595315884      2.35914020445351
  H   1.53871555852063      0.58478800600135      0.73173688230313
  C   -0.64657321862099      1.84656639105522      0.06698383318472
  N   -0.64659699545032      2.98796775545977     -0.21672749105309
  N   -1.62733334791892     -0.36239162775723     -0.29763255034750
  O   -1.33048579505289     -1.52542179883073     -0.51772700270401
  O   -2.65949616603565      0.22227207753867     -0.57541164421523
  N   1.19313546417807     -0.17374383475171     -1.19059205663111
  O   2.27827438258041     -0.67194770124506     -1.43960888154322
  O   0.39590761755980      0.32282059228378     -1.97519155999316
  C   1.04132888935062     -1.43667149655925      0.88547199563014
  N   1.28193161891033     -2.46964057311513      1.39028515204028
