14
Coordinates from ORCA-job run
  C   -0.54933532748119      0.45580481494302      0.54492782405419
  C   0.83551183664292     -0.17222849341805      0.30198095170323
  Br  -0.91768587610427      0.41739793833106      2.43980104354728
  H   1.57752366385957      0.43735746471402      0.82351569502274
  C   -0.55834840940326      1.82535982466113      0.06141430159459
  N   -0.49526010983646      2.93961472277664     -0.31177374024573
  N   -1.65601022996032     -0.35482836134727     -0.18041127591090
  O   -2.29404555058735      0.24872852531761     -1.02772070112844
  O   -1.76858158553279     -1.51353201984157      0.17394636793500
  N   1.16686004294085     -0.04730786480083     -1.17821377948817
  O   0.42604078390978     -0.65533840921022     -1.94098523456373
  O   2.12719635275295      0.65665120031658     -1.45973648664039
  C   0.95385272795230     -1.56576971927356      0.70551862451040
  N   1.15128168084724     -2.67290962316857      1.04573640960994
