14
Coordinates from ORCA-job run
  C   -0.53220887676851      0.49852166785392      0.49974018942844
  C   0.79775819212120     -0.23918300912292      0.29746840059090
  Br  -1.05505129253154      0.34630131357534      2.36049611561323
  H   1.58335387451241      0.35270224558408      0.78115813511658
  C   -0.41787557193316      1.90582153532539      0.15725828803122
  N   -0.26922874825799      3.05096452487059     -0.06604693405081
  N   -1.65454446234073     -0.14391543844912     -0.33664798492013
  O   -1.49607647670553     -1.32064775977517     -0.61846736701955
  O   -2.60408823459923      0.57579817860968     -0.59137002651235
  N   1.18571973316769     -0.25702025295842     -1.18317490015307
  O   0.46983750433976      0.37172219705552     -1.95124981345870
  O   2.20760466872338     -0.87008650937920     -1.44371240734206
  C   0.84049802979400     -1.59742508428007      0.81995858982241
  N   0.94430166047823     -2.67555360890963      1.27458971485389
