14
Coordinates from ORCA-job run
  C   -0.62590330057989      0.29821758262672      0.35835339110729
  C   0.76409398029971     -0.19409132839796     -0.08410230673942
  Br  -1.56955485517901     -1.05076410380834      1.33724563672515
  H   1.17083328960141      0.54051651676804     -0.78811023694557
  C   -0.47689446554053      1.49809464036524      1.16692906632448
  N   -0.35321497934611      2.47419485259041      1.81284628691905
  N   -1.41646612197678      0.75316849266409     -0.92038941775387
  O   -2.55266262919756      0.36053424531278     -1.06852042612830
  O   -0.77404644296850      1.52051161665267     -1.62004812169336
  N   0.63728560289535     -1.48825945468669     -0.87694814702300
  O   -0.25159273624657     -1.48768276224511     -1.71819940430819
  O   1.44158072795621     -2.37580140754500     -0.64099797331694
  C   1.64798452746209     -0.37299458610783      1.05541760596885
  N   2.35855740282018     -0.47664430418902      1.98552404686383
