14
Coordinates from ORCA-job run
  C   -0.55645622976844      0.46023591305729      0.54022615651116
  C   0.82835135872787     -0.18124544575206      0.32835560684311
  Br  -0.98628168554778      0.39452899475033      2.41953671183968
  H   1.56423025520678      0.41992113624555      0.86785555437906
  C   -0.54470412446141      1.83757264628252      0.07962054426267
  N   -0.49103284831467      2.96489237498842     -0.25390389566633
  N   -1.63349511384737     -0.33615451109264     -0.24583989224957
  O   -2.16002449770103      0.25521691671126     -1.17532501349986
  O   -1.82522464463228     -1.47543769265347      0.13651262533188
  N   1.19142153123765     -0.05683877526210     -1.14528310298182
  O   0.55005762866363     -0.76154695724182     -1.91477568669904
  O   2.06991683245513      0.75158914792386     -1.41537730059552
  C   0.91357296261664     -1.57713151425604      0.73091238000521
  N   1.07866857536529     -2.69660223370110      1.04748531251938
