14
Coordinates from ORCA-job run
  C   -0.48851742625161      0.47671729508135      0.39278643530639
  C   0.63063958894575     -0.53774870528156      0.10785688957340
  Br  -0.08236781325553      1.49093562103411      1.98717247527459
  H   0.74779269734687     -1.19013679251049      0.97286540862779
  C   -0.76610323117937      1.36586700329254     -0.71805087050643
  N   -1.00860748903131      2.08509252776128     -1.61741538145192
  N   -1.77693938782954     -0.33934632311769      0.70298953128967
  O   -2.83368733560954      0.20264931577139      0.43181887566021
  O   -1.59858955819612     -1.42577970770951      1.23237788915501
  N   1.94885966374027      0.19080170788478     -0.07213639106482
  O   2.78356353318415      0.00080552079930      0.80312389773249
  O   2.04925114985182      0.89773493551777     -1.06669466825655
  C   0.32794291818248     -1.29879517108627     -1.09618197459111
  N   0.06476269010168     -1.91679722743700     -2.06051211674872
