14
Coordinates from ORCA-job run
  C   -0.65990683088736      0.25261141911003      0.33343529401703
  C   0.77543775932465     -0.15296906489733     -0.04847147801649
  Br  -1.58497646960411     -1.17899359538318      1.20683466553378
  H   1.18167452763514      0.62818904578287     -0.70068045794683
  C   -0.61407113110705      1.42474842238913      1.19361730105231
  N   -0.56687520568526      2.37813286645613      1.88199376800358
  N   -1.40265330263134      0.71930846781122     -0.96943786520303
  O   -0.76273155798502      1.54301467831676     -1.60439776284905
  O   -2.50828971517806      0.27876732683996     -1.19429150971681
  N   0.75760220417745     -1.41944337145728     -0.89407376910348
  O   1.58900067907345     -2.27744416001327     -0.64338155004485
  O   -0.08047621857480     -1.42688409288701     -1.78588170717677
  C   1.60466992316101     -0.33340236756287      1.13127535582392
  N   2.27159533828130     -0.43563557450515      2.09345971562669
