14
Coordinates from ORCA-job run
  C   -0.41198982495506      0.52572083896914      0.41674939466697
  C   0.57415162164002     -0.60310710712479      0.07566173235054
  Br  0.18642572087480      1.48785059811754      1.98275432754993
  H   0.66779408579810     -1.26546612701359      0.93596189274070
  C   -0.65177037021650      1.44123177465113     -0.68140803976889
  N   -0.86226991009167      2.18303176001605     -1.57054681745373
  N   -1.76183582022318     -0.14770039044875      0.80018295017925
  O   -2.76808603250273      0.50222407393719      0.57872734433708
  O   -1.67180429305719     -1.24519621915776      1.32911405587273
  N   1.95149324660915     -0.02024924783333     -0.17890979402497
  O   2.07316427101629      0.67266494464326     -1.18078255023205
  O   2.80634861614211     -0.29807615709862      0.65230405715999
  C   0.12510216005966     -1.32486458208544     -1.10660053361462
  N   -0.25672347109378     -1.90906415957203     -2.05220801976293
