14

C	0.0	0.0	0.0
C	-0.519321	0.038284	-1.416656
Br	2.017094	0.0	0.0
H	-1.631167	-0.07981	-1.255075
H	-0.296911	1.008123	-1.852657
N	-0.541325	1.177894	0.597963
H	-1.585585	0.96415	0.546506
H	-0.276178	1.216886	1.585542
C	-0.304019	-1.240074	0.742573
N	-0.4697	-2.155602	1.461798
N	-0.015495	-0.996715	-2.3306
O	0.174552	-2.128743	-1.888602
O	0.12793	-0.670185	-3.512825
H	-2.848293	0.0	0.0
