14

C	0.0	0.0	0.0
C	-0.519079	-9.5e-05	-1.43275
Br	1.966112	0.0	0.0
H	-1.624459	-0.140586	-1.266577
H	-0.312271	0.960755	-1.901229
N	-0.556608	1.10337	0.722263
H	-1.593356	0.87884	0.666732
H	-0.398447	1.947582	0.179421
C	-0.353882	-1.23448	0.727477
N	-0.547456	-2.209278	1.353752
N	0.022815	-1.035545	-2.326599
O	0.416584	-0.678005	-3.443519
O	0.01564	-2.200485	-1.924906
H	-2.873132	0.0	0.0
