14

C	0.0	0.0	0.0
C	-0.579432	-0.099655	-1.387048
Br	2.000764	0.0	0.0
H	-1.69784	-0.198476	-1.138537
H	-0.39421	0.817623	-1.939691
N	-0.535838	1.213813	0.534756
H	-1.576019	1.031802	0.462386
H	-0.312159	1.261206	1.525031
C	-0.302859	-1.174739	0.848613
N	-0.489664	-2.017421	1.648088
N	-0.130345	-1.225627	-2.202292
O	0.12146	-2.294929	-1.643562
O	-0.09413	-1.049885	-3.424935
H	-2.869452	0.0	0.0
