14

C	0.0	0.0	0.0
C	-0.510765	-0.07698	-1.419516
Br	2.017158	0.0	0.0
H	-0.280802	0.851447	-1.934841
H	-1.623639	-0.193443	-1.257691
N	-0.505611	1.234446	0.515216
H	-1.546683	1.075016	0.433331
H	-0.296876	1.285835	1.509631
C	-0.328383	-1.162621	0.843087
N	-0.491241	-1.993841	1.659305
N	0.019237	-1.174285	-2.231716
O	0.252802	-0.928608	-3.418935
O	0.15089	-2.279142	-1.705105
H	-2.840228	0.0	0.0
