14

C	0.0	0.0	0.0
C	-0.493708	0.016169	-1.452996
Br	1.979883	0.0	0.0
H	-1.606888	0.093997	-1.300388
H	-0.210945	-0.881762	-1.998923
N	-0.519562	1.002191	0.868519
H	-0.359643	1.898768	0.419785
H	-1.552444	0.810557	0.80567
C	-0.350214	-1.331179	0.53214
N	-0.531982	-2.408826	0.964574
N	0.010431	1.155198	-2.229257
O	0.46681	0.923554	-3.352875
O	-0.074049	2.286012	-1.739517
H	-2.874426	0.0	0.0
