14

C	0.0	0.0	0.0
C	-0.500506	-0.021547	-1.439598
Br	1.966176	0.0	0.0
H	-1.605313	-0.16604	-1.294488
H	-0.285556	0.933446	-1.916633
N	-0.547384	1.119489	0.702715
H	-0.363341	1.95692	0.153881
H	-1.586565	0.911406	0.6394
C	-0.353135	-1.225136	0.741268
N	-0.532328	-2.206281	1.36232
N	0.066257	-1.065307	-2.308489
O	0.07531	-2.222633	-1.887525
O	0.467767	-0.720209	-3.425978
H	-2.861071	0.0	0.0
