18

C	0.0	0.0	0.0
C	-0.332428	-0.035975	-1.537396
Cl	1.80779	0.0	0.0
H	0.07444	0.917982	-1.917427
C	-0.485067	1.281692	0.648669
H	-1.580534	1.259037	0.637417
H	-0.137793	1.33605	1.685675
H	-0.119784	2.162171	0.112878
N	-0.483211	-1.206226	0.621127
H	-1.489044	-1.237982	0.428098
H	-0.386678	-1.114506	1.628218
N	-1.738037	-0.215846	-1.758491
H	-2.425635	-0.009763	-0.994883
H	-2.032657	0.252421	-2.603058
N	0.327284	-1.095528	-2.307371
H	-0.139869	-1.951814	-2.028888
H	1.305786	-1.168544	-2.056798
H	-3.609577	0.0	0.0
