18

C	0.0	0.0	0.0
C	-0.512207	0.002191	-1.427991
Cl	1.900017	0.0	0.0
H	-1.608931	0.024025	-1.265186
C	-0.451902	1.21859	0.765158
H	-1.55245	1.184121	0.728149
H	-0.113247	1.160121	1.804335
H	-0.076067	2.130996	0.306487
N	-0.43372	-1.170566	0.619008
H	-0.267766	-1.990506	0.055321
H	-0.152428	-1.258843	1.581689
N	-0.173178	-1.272162	-2.067813
H	-0.813924	-1.437398	-2.834719
H	0.770279	-1.21892	-2.43825
N	-0.105708	1.214717	-2.11994
H	0.883088	1.161569	-2.342546
H	-0.629231	1.291484	-2.983327
H	-3.540128	0.0	0.0
