18

C	0.0	0.0	0.0
C	-0.534257	-0.025442	-1.419066
Cl	1.900242	0.0	0.0
H	-1.629022	0.003284	-1.234442
C	-0.446348	1.231606	0.746201
H	-0.073602	2.135611	0.269145
H	-1.546209	1.196532	0.717872
H	-0.101403	1.190374	1.783921
N	-0.425005	-1.16192	0.648954
H	-0.087353	-1.241476	1.595118
H	-0.258484	-1.983951	0.087138
N	-0.216914	-1.313771	-2.041819
H	0.694719	-1.260166	-2.483273
H	-0.911303	-1.517648	-2.750074
N	-0.13816	1.171551	-2.142708
H	-0.688935	1.241491	-2.989472
H	0.842775	1.109196	-2.395327
H	-3.523643	0.0	0.0
