18

C	0.0	0.0	0.0
C	-0.494025	-0.009963	-1.447257
Cl	1.815321	0.0	0.0
H	-1.585904	0.057729	-1.297558
C	-0.448031	1.265584	0.703003
H	-0.125733	1.224323	1.745579
H	-1.545255	1.270208	0.653062
H	-0.046523	2.15065	0.212923
N	-0.496537	-1.130629	0.730385
H	-1.513744	-0.947161	0.778132
H	-0.395243	-1.932128	0.112874
N	-0.215848	-1.309761	-2.070626
H	-0.928137	-1.501885	-2.762692
H	0.684935	-1.282086	-2.533397
N	-0.044006	1.165349	-2.180596
H	0.954339	1.090755	-2.348648
H	-0.514917	1.189048	-3.077066
H	-3.225028	0.0	0.0
