14

C	0.0	0.0	0.0
C	-0.35022	-0.098676	-1.501346
Cl	1.797299	0.0	0.0
H	0.130149	0.7493	-2.004058
H	-0.298336	0.975428	0.392635
H	0.154376	-0.996511	-1.879348
C	-0.595909	-1.102244	0.839232
H	-0.261388	-1.04089	1.876215
H	-1.685167	-0.988824	0.816911
H	-0.324998	-2.083633	0.439148
N	-1.73493	-0.145934	-1.898614
H	-2.249305	0.667003	-1.578555
H	-2.23078	-0.910591	-1.457932
Br	-4.478048	0.0	0.0
