14

C	0.0	0.0	0.0
C	-0.519929	-0.188638	-1.407877
Cl	1.803256	0.0	0.0
H	-1.611152	-0.158686	-1.317789
H	-0.283695	0.999736	0.33068
H	-0.228668	-1.191556	-1.759203
C	-0.517208	-1.055606	0.951558
H	-0.156156	-0.878254	1.966892
H	-0.190606	-2.050623	0.636431
H	-1.610291	-1.008054	0.942023
N	-0.088261	0.896355	-2.287989
H	0.861743	0.728591	-2.598909
H	-0.686277	0.91351	-3.104754
Br	-4.059418	0.0	0.0
