14

C	0.0	0.0	0.0
C	-0.49743	-0.140633	-1.432983
Cl	1.800396	0.0	0.0
H	-1.575949	-0.311711	-1.36554
H	-0.305273	0.971028	0.395038
H	-0.028211	-1.026546	-1.875052
C	-0.495424	-1.11649	0.894905
H	-0.176695	-2.085654	0.500609
H	-0.106254	-1.012097	1.910567
H	-1.587353	-1.068235	0.911053
N	-0.271411	1.008187	-2.303248
H	0.663934	1.368093	-2.156853
H	-0.927506	1.733737	-2.041251
Br	-3.952022	0.0	0.0
