14

C	0.0	0.0	0.0
C	-0.38825	0.290541	-1.46451
Cl	1.797829	0.0	0.0
H	0.080506	1.240175	-1.743222
H	-0.298949	0.833193	0.640098
H	0.091644	-0.48131	-2.077764
C	-0.559613	-1.298537	0.531193
H	-0.204525	-1.501657	1.542922
H	-0.269542	-2.132222	-0.114714
H	-1.650555	-1.219874	0.554383
N	-1.788718	0.344889	-1.805445
H	-2.262	-0.532264	-1.633792
H	-2.305555	1.006007	-1.238795
Br	-4.623865	0.0	0.0
