14

C	0.0	0.0	0.0
C	-0.505597	0.158979	-1.432545
Cl	1.801568	0.0	0.0
H	-1.582644	0.339794	-1.352643
H	-0.289351	0.889747	0.563685
H	-0.038393	1.046428	-1.871782
C	-0.515266	-1.238879	0.697119
H	-0.177017	-2.141962	0.184113
H	-1.609157	-1.194381	0.688022
H	-0.162038	-1.281375	1.729436
N	-0.295172	-0.977239	-2.322322
H	0.640922	-1.344768	-2.19972
H	-0.953723	-1.706597	-2.081693
Br	-3.993306	0.0	0.0
