16

C	0.0	0.0	0.0
C	-0.515507	0.003851	-1.428364
F	1.4139	0.0	0.0
H	-0.265062	0.943721	-1.917597
H	-1.612305	-0.146325	-1.336267
N	-0.43401	1.232023	0.564996
H	0.164575	1.986255	0.252195
H	-0.455485	1.190934	1.574042
C	-0.50118	-1.170393	0.801176
H	-0.138484	-2.105957	0.375485
H	-1.601078	-1.118715	0.767085
H	-0.137826	-1.082994	1.830239
N	0.125261	-1.053453	-2.244656
O	-0.231838	-2.219909	-2.079998
O	0.991933	-0.706873	-3.052094
H	-3.302897	0.0	0.0
