16

C	0.0	0.0	0.0
C	-0.47019	0.024399	-1.45655
F	1.39952	0.0	0.0
H	-1.569402	0.151521	-1.393446
H	-0.19605	-0.887216	-1.984168
N	-0.479523	1.074341	0.811339
H	-0.320251	1.944837	0.314615
H	-1.503112	0.932851	0.823331
C	-0.455456	-1.313244	0.600674
H	-0.005572	-2.153186	0.064417
H	-0.136993	-1.332918	1.644683
H	-1.549933	-1.347102	0.542689
N	0.127477	1.124663	-2.241586
O	-0.017923	2.281951	-1.839127
O	0.735661	0.831979	-3.275121
H	-3.11516	0.0	0.0
