16

C	0.0	0.0	0.0
C	-0.464076	-0.048679	-1.45882
F	1.393823	0.0	0.0
H	-1.562573	-0.150574	-1.41609
H	-0.146478	0.859119	-1.975009
N	-0.535718	1.1689	0.625531
H	-1.561576	0.994516	0.621656
H	-0.376276	1.973452	0.024712
C	-0.447051	-1.217249	0.778977
H	0.020029	-2.120102	0.38515
H	-0.152806	-1.072207	1.820282
H	-1.538116	-1.282152	0.706462
N	0.121077	-1.172583	-2.227358
O	1.098299	-0.934153	-2.944338
O	-0.389855	-2.287816	-2.101491
H	-3.133565	0.0	0.0
