16

C	0.0	0.0	0.0
C	-0.454428	-0.039047	-1.460463
F	1.394654	0.0	0.0
H	-1.553179	-0.123726	-1.424762
H	-0.113569	0.862063	-1.972111
N	-0.525954	1.168585	0.635179
H	-1.551856	0.993653	0.64962
H	-0.379992	1.972981	0.029811
C	-0.440647	-1.221793	0.77442
H	-0.152207	-1.073856	1.81708
H	-1.529755	-1.299824	0.695738
H	0.041948	-2.117742	0.383148
N	0.119566	-1.174627	-2.218772
O	1.109242	-0.954932	-2.92431
O	-0.412456	-2.280062	-2.095538
H	-3.102385	0.0	0.0
