16

C	0.0	0.0	0.0
C	-0.543503	0.071562	-1.411436
F	1.416082	0.0	0.0
H	-0.274695	-0.826247	-1.968473
H	-1.644182	0.196119	-1.291039
N	-0.439025	1.115157	0.760598
H	-0.301297	1.991031	0.277655
H	0.014454	1.120518	1.664417
C	-0.490322	-1.277378	0.637672
H	-1.590406	-1.240542	0.59512
H	-0.161079	-1.310021	1.681113
H	-0.091659	-2.151392	0.114967
N	0.04512	1.203744	-2.159036
O	0.909316	0.954263	-3.003564
O	-0.350079	2.34344	-1.895733
H	-3.382748	0.0	0.0
