17

C	-0.515812	0.017466	-1.415307
C	0.0	0.0	0.0
F	-1.872929	0.184933	-1.480485
H	1.092575	0.0	0.0
C	0.117466	0.972641	-2.332687
N	0.581335	1.664669	-3.160964
N	-0.235707	-1.379097	-2.003898
O	0.907832	-1.581623	-2.387724
O	-1.165215	-2.175211	-1.990141
C	-0.378297	-1.230754	0.794055
H	-0.039753	-1.074284	1.81655
H	0.166785	-2.091632	0.398942
H	-1.451929	-1.435351	0.789189
N	-0.376773	1.231439	0.647286
O	-0.498242	2.246216	-0.065598
O	-0.409309	1.255832	1.888274
H	2.431186	0.0	0.0
