17

C	-0.512495	0.056979	-1.417016
C	0.0	0.0	0.0
F	-1.855754	0.309712	-1.481734
H	1.093261	0.0	0.0
C	0.181062	0.979117	-2.324613
N	0.683503	1.661359	-3.138373
N	-0.323229	-1.348992	-2.017457
O	0.809853	-1.629561	-2.382852
O	-1.307158	-2.076778	-2.031603
C	-0.396944	-1.235574	0.774383
H	-0.020136	-1.118602	1.788789
H	0.101122	-2.105568	0.340474
H	-1.476789	-1.399754	0.801818
N	-0.36024	1.227919	0.664989
O	-0.403829	2.262641	-0.027715
O	-0.450016	1.223514	1.903807
H	2.432807	0.0	0.0
