17

C	-0.538189	0.051045	-1.401365
C	0.0	0.0	0.0
F	-1.895266	-0.155593	-1.449342
H	1.092064	0.0	0.0
C	-0.230982	1.23198	-2.219401
N	-0.066697	2.100598	-2.994114
N	0.104255	-1.130692	-2.154943
O	-0.543774	-2.169134	-2.21484
O	1.236728	-0.93393	-2.577402
C	-0.329793	-1.281323	0.739561
H	-1.399965	-1.402658	0.91728
H	0.200339	-1.2493	1.690172
H	0.046167	-2.139277	0.181693
N	-0.408607	1.164437	0.748193
O	-0.381139	1.085645	1.986086
O	-0.646587	2.220154	0.133459
H	2.426674	0.0	0.0
