17

C	-0.543656	-0.497389	-1.312995
C	0.0	0.0	0.0
F	-1.902396	-0.673319	-1.297552
H	1.090242	0.0	0.0
C	-0.185739	0.276306	-2.508576
N	0.052165	0.810548	-3.526999
N	0.060865	-1.901529	-1.539917
O	-0.62137	-2.86331	-1.204856
O	1.196412	-1.92065	-1.995147
C	-0.281247	-0.953322	1.149751
H	0.346351	-1.839813	1.031394
H	-1.331707	-1.243838	1.21954
H	0.033902	-0.454623	2.065109
N	-0.502569	1.327385	0.266433
O	-0.31076	1.789307	1.402065
O	-1.027951	1.974972	-0.660286
H	2.441924	0.0	0.0
