17

C	-0.504065	0.004119	-1.421113
C	0.0	0.0	0.0
F	-1.84899	0.243513	-1.504095
H	1.092172	0.0	0.0
C	0.190356	0.900124	-2.354243
N	0.705214	1.551832	-3.18504
N	-0.298438	-1.420611	-1.970821
O	0.838088	-1.701548	-2.325302
O	-1.274117	-2.159373	-1.956699
C	-0.396518	-1.207737	0.816911
H	0.10451	-2.091834	0.416295
H	-1.475769	-1.37361	0.847271
H	-0.022516	-1.053336	1.827288
N	-0.364343	1.249842	0.619271
O	-0.412847	2.258757	-0.110071
O	-0.453285	1.290143	1.857362
H	2.43218	0.0	0.0
