14

C	0.0	0.0	0.0
C	-0.287046	0.622897	-1.423698
Br	2.0513	0.0	0.0
H	0.570001	0.392275	-2.057371
H	-0.277666	1.701553	-1.229519
N	-0.612554	0.737534	1.035282
H	-0.480164	0.250283	1.916197
H	-1.644342	0.622845	0.762743
C	-0.291125	-1.444861	-0.006343
N	-0.493698	-2.60402	-0.011203
N	-1.485547	0.244602	-2.130002
H	-2.256205	0.226123	-1.433825
H	-1.377224	-0.715401	-2.438112
F	-2.893293	0.0	0.0
