14

C	0.0	0.0	0.0
C	-0.37864	0.27446	-1.50697
Br	2.052165	0.0	0.0
H	-0.681335	1.325889	-1.512139
H	0.52598	0.17781	-2.107915
N	-0.602499	0.931258	0.870384
H	-1.635066	0.775075	0.612166
H	-0.481774	0.622723	1.830443
C	-0.255043	-1.41613	0.330918
N	-0.441851	-2.542186	0.616053
N	-1.427616	-0.527741	-2.093275
H	-2.224001	-0.431045	-1.439103
H	-1.137056	-1.49949	-2.085754
F	-2.85098	0.0	0.0
