14

C	0.0	0.0	0.0
C	-0.456437	-0.206644	-1.454139
Br	1.961759	0.0	0.0
H	-1.525932	0.021954	-1.390278
H	0.081179	0.51903	-2.072154
N	-0.54791	1.174342	0.613202
H	-0.365064	1.951442	-0.01877
H	-1.580254	0.928044	0.534033
C	-0.373489	-1.174265	0.809144
N	-0.584145	-2.123232	1.467727
N	-0.167744	-1.560989	-1.931343
H	-0.217775	-1.566173	-2.943733
H	-0.917905	-2.157769	-1.597198
F	-2.77314	0.0	0.0
