14

C	0.0	0.0	0.0
C	-0.692717	0.239867	-1.307359
Br	2.066703	0.0	0.0
H	-0.355338	-0.490366	-2.052502
H	-1.798514	0.046849	-0.916126
N	-0.402183	0.943489	0.958265
H	-0.604221	1.811242	0.478973
H	0.24653	1.048294	1.720729
C	-0.25377	-1.375721	0.45584
N	-0.413091	-2.480076	0.822968
N	-0.571402	1.637225	-1.704677
H	0.173261	1.772306	-2.377814
H	-1.447477	1.931825	-2.116451
F	-2.93521	0.0	0.0
