14

C	0.0	0.0	0.0
C	-0.516105	-0.049071	-1.474243
Br	1.966905	0.0	0.0
H	0.297425	-0.320701	-2.153481
H	-1.291218	-0.817224	-1.478249
N	-0.508115	1.058113	0.81669
H	-0.392578	1.900762	0.257112
H	-1.531472	0.819742	0.776363
C	-0.322125	-1.296082	0.628508
N	-0.471093	-2.369731	1.081174
N	-1.079651	1.256471	-1.811109
H	-1.228474	1.287596	-2.813972
H	-1.99296	1.192379	-1.349737
F	-2.749744	0.0	0.0
