14

C	0.0	0.0	0.0
C	-0.281466	0.131821	-1.565836
Br	1.979625	0.0	0.0
H	-0.230663	1.215592	-1.743724
H	0.554831	-0.323238	-2.100337
N	-0.630233	0.945754	0.8479
H	-0.495504	1.86426	0.432267
H	-1.654662	0.685467	0.712449
C	-0.359489	-1.362449	0.421688
N	-0.580949	-2.483175	0.695276
N	-1.511024	-0.399014	-2.090791
H	-2.263789	-0.179896	-1.404172
H	-1.43586	-1.410843	-2.095373
F	-2.934999	0.0	0.0
