14

C	0.0	0.0	0.0
C	-0.472282	-0.250978	-1.442584
Br	1.944282	0.0	0.0
H	-1.564581	-0.220408	-1.317592
H	-0.1606	-1.265806	-1.722472
N	-0.574577	1.196745	0.518081
H	-0.375046	1.248723	1.513138
H	-1.60691	0.960741	0.397199
C	-0.332095	-1.20603	0.799956
N	-0.539766	-2.155429	1.461694
N	0.013778	0.770494	-2.357322
H	0.77812	0.421553	-2.917226
H	-0.733656	1.061474	-2.970041
F	-2.816566	0.0	0.0
