19

C	-0.525258	-0.033159	-1.444978
C	0.0	0.0	0.0
Br	-0.018754	1.657209	-2.338595
H	1.094374	0.0	0.0
C	0.146594	-1.156469	-2.218523
H	-0.148733	-1.135565	-3.270597
H	-0.146671	-2.109028	-1.775046
H	1.231493	-1.056853	-2.144323
C	-2.042983	-0.121472	-1.486987
H	-2.405839	-0.103777	-2.517365
H	-2.35771	-1.064641	-1.025478
H	-2.488346	0.719992	-0.950332
N	-0.372963	-1.280962	0.625467
H	-1.217976	-1.179747	1.174639
H	0.376229	-1.546734	1.249987
N	-0.453672	1.194835	0.714748
H	-1.191237	0.95497	1.365438
H	0.326551	1.563943	1.249027
Br	3.605413	0.0	0.0
