19

C	-0.516378	0.045797	-1.448283
C	0.0	0.0	0.0
Br	0.024341	-1.616999	-2.366794
H	1.094375	0.0	0.0
C	-2.034381	0.104162	-1.502548
H	-2.374181	1.031168	-1.028925
H	-2.471857	-0.755629	-0.98957
H	-2.384848	0.098094	-2.537338
C	0.1383	1.193153	-2.201349
H	1.224636	1.110786	-2.12485
H	-0.1528	1.180584	-3.255339
H	-0.172125	2.13423	-1.744697
N	-0.44552	-1.203471	0.697582
H	-1.276256	-1.011664	1.246197
H	0.289364	-1.499454	1.329187
N	-0.378253	1.274977	0.636079
H	-1.258421	1.170118	1.130258
H	0.336459	1.501647	1.319057
Br	3.609347	0.0	0.0
