19

C	-0.331502	0.001547	-1.492324
C	0.0	0.0	0.0
Br	-2.291918	0.002678	-1.785031
H	1.111757	0.0	0.0
C	0.238451	1.25301	-2.143072
H	0.091576	1.222916	-3.225304
H	-0.249205	2.150569	-1.759087
H	1.312175	1.294475	-1.927087
C	0.237255	-1.249457	-2.144897
H	-0.250936	-2.147023	-1.761638
H	1.311026	-1.291938	-1.929417
H	0.089964	-1.217912	-3.227024
N	-0.525405	-1.195386	0.663216
H	0.128513	-1.94764	0.4688
H	-0.456178	-1.047502	1.665551
N	-0.525368	1.193833	0.665976
H	0.125308	1.947869	0.468429
H	-0.449707	1.045898	1.667839
Br	3.640599	0.0	0.0
