19

C	-0.306719	0.030879	-1.503564
C	0.0	0.0	0.0
Br	-2.276998	0.219485	-1.793417
H	1.105575	0.0	0.0
C	0.370225	1.222249	-2.159811
H	0.195892	1.222179	-3.238558
H	0.003081	2.165291	-1.751568
H	1.445767	1.147345	-1.962353
C	0.128038	-1.270939	-2.151121
H	-0.034916	-1.246322	-3.231654
H	-0.423441	-2.109948	-1.726501
H	1.199193	-1.398723	-1.953941
N	-0.537515	-1.212916	0.625038
H	0.192736	-1.917716	0.614876
H	-0.68461	-0.963474	1.59591
N	-0.444774	1.159624	0.751171
H	-1.300917	1.531856	0.358314
H	0.272506	1.870605	0.727383
Br	3.612	0.0	0.0
