19

C	-0.481539	0.032635	-1.466568
C	0.0	0.0	0.0
Br	-0.111011	-1.733851	-2.294694
H	1.095382	0.0	0.0
C	-1.976605	0.278606	-1.586304
H	-2.281032	0.278176	-2.634576
H	-2.563891	-0.482922	-1.06594
H	-2.192501	1.252459	-1.14652
C	0.315118	1.062636	-2.249603
H	1.381753	0.853602	-2.160257
H	0.115525	2.042496	-1.814287
H	0.028075	1.069138	-3.304002
N	-0.471363	-1.131803	0.795749
H	0.290635	-1.79456	0.880921
H	-1.220895	-1.61532	0.316213
N	-0.413887	1.284226	0.604578
H	0.392777	1.646063	1.10358
H	-1.106407	1.052937	1.310716
Br	3.630061	0.0	0.0
