19

C	-0.445128	-0.049126	-1.47976
C	0.0	0.0	0.0
Br	0.087293	1.668553	-2.330437
H	1.101884	0.0	0.0
C	0.318993	-1.138147	-2.215621
H	1.393256	-1.016533	-2.052668
H	0.105382	-1.110138	-3.287126
H	0.012878	-2.1171	-1.831494
C	-1.950643	-0.16052	-1.654032
H	-2.293996	-1.139409	-1.302404
H	-2.453186	0.617115	-1.079443
H	-2.224769	-0.074548	-2.707781
N	-0.373012	-1.197224	0.742664
H	0.27949	-1.943213	0.543942
H	-1.319462	-1.49553	0.542446
N	-0.616349	1.126603	0.696375
H	-0.171031	1.980372	0.377578
H	-0.360988	1.003352	1.670292
Br	3.688225	0.0	0.0
