16
Coordinates from ORCA-job run
  C   -0.54668644923352      0.28382459600431     -0.15219632697068
  C   0.66250174108923     -0.08717916625231     -1.01684839483835
  Br  -1.79173225508710      1.24883183292795     -1.34429730845062
  H   1.04378138847659      0.82284249789736     -1.49783840321864
  H   0.32304410537857     -0.75431004062125     -1.81402532766359
  C   -0.15284223070868      1.22709391878766      0.97179436364877
  H   0.34506507829165      2.11888057363041      0.58259097090828
  H   0.52735795426193      0.70357142194760      1.64958855877462
  H   -1.02918592588667      1.54543205597145      1.53935038142354
  C   -1.25834592275235     -0.95033972808357      0.37255453427129
  H   -1.59839453743856     -1.58456350577169     -0.44924723762069
  H   -2.12594109660422     -0.67406282144826      0.97510002297103
  H   -0.55631632529052     -1.51782058278617      0.98738738762391
  N   1.66095098864259     -0.77533050054465     -0.19696627818304
  H   2.13672471670816     -1.48321255506002     -0.73922345271333
  H   2.36001877015289     -0.12265799659881      0.13127651003750
