16
Coordinates from ORCA-job run
  C   -0.36938732278338      0.28110834994067     -0.00694216734973
  C   1.07366278969081     -0.05813697512111     -0.37058345086019
  Br  -1.25386947450429      0.93833768878102     -1.65776506709418
  H   1.56346025952913     -0.36022935464047      0.56371725939534
  H   1.56632171343561      0.86301009013602     -0.71625446077756
  C   -0.40875744538687      1.41722549184633      1.00150945028386
  H   0.06693612314348      1.08727338228762      1.93158039333591
  H   -1.43764146594658      1.70489016430488      1.22492005076834
  H   0.12216533263417      2.29662052989007      0.63118219060793
  C   -1.13571270983478     -0.93630078538481      0.47662770637752
  H   -1.10748062271981     -1.73167566169833     -0.26547028188430
  H   -2.17268474529456     -0.67908218502207      0.70116981672214
  H   -0.66223725699429     -1.30692446243698      1.39282136542324
  N   1.16289874979293     -1.17355868058688     -1.30355199300790
  H   0.86666772795647     -0.86459730459810     -2.22173534594346
  H   2.12565834728197     -1.47696028769786     -1.37922546599698
