18

C	0.0	0.0	0.0
C	-0.555984	0.039592	-1.417375
F	1.401206	0.0	0.0
H	-1.65041	0.046655	-1.238985
C	-0.502941	1.155652	0.832912
H	-0.08465	1.098434	1.841771
H	-0.204437	2.084355	0.346863
H	-1.599708	1.069557	0.855522
C	-0.35212	-1.285457	0.652578
N	-0.485009	-2.325348	1.183931
C	-0.159744	-1.188425	-2.232084
H	0.930825	-1.276875	-2.298549
H	-0.556234	-2.105833	-1.792038
H	-0.562258	-1.098253	-3.245369
N	-0.160605	1.303311	-2.042825
H	-0.871846	1.567107	-2.712569
H	0.711376	1.175838	-2.543454
H	-3.301483	0.0	0.0
