18

C	0.0	0.0	0.0
C	-0.409021	0.011291	-1.497121
F	1.388168	0.0	0.0
H	0.467476	0.467775	-1.974677
C	-0.508736	1.1857	0.791585
H	-1.602614	1.134773	0.834497
H	-0.191542	2.113701	0.309665
H	-0.092511	1.150349	1.801468
C	-0.388254	-1.251574	0.68269
N	-0.602456	-2.239579	1.279205
C	-1.650684	0.827393	-1.833885
H	-2.528764	0.496986	-1.245493
H	-1.865785	0.69785	-2.900282
H	-1.496185	1.897363	-1.656998
N	-0.460298	-1.376276	-1.97254
H	-0.502878	-1.353803	-2.986005
H	-1.342704	-1.779047	-1.661291
H	-3.842788	0.0	0.0
