18

C	0.0	0.0	0.0
C	-0.43103	0.158684	-1.491187
F	1.397734	0.0	0.0
H	0.363394	-0.379238	-2.028469
C	-0.560057	1.010962	0.969322
H	-0.219032	0.785699	1.983568
H	-1.65586	0.941335	0.9195
H	-0.230082	2.014893	0.697172
C	-0.346854	-1.3724	0.438778
N	-0.503783	-2.482572	0.78902
C	-0.39252	1.623006	-1.910329
H	-1.242269	2.153927	-1.47771
H	-0.48913	1.67121	-2.996262
H	0.539379	2.113023	-1.609249
N	-1.705856	-0.415796	-1.862712
H	-2.464749	-0.143789	-1.190395
H	-1.651589	-1.427204	-1.786916
H	-3.603004	0.0	0.0
