18

C	0.0	0.0	0.0
C	-0.331229	0.012775	-1.518831
F	1.400906	0.0	0.0
H	0.383107	0.756152	-1.901255
C	-0.545863	1.180221	0.76196
H	-1.639277	1.090545	0.79782
H	-0.138227	1.195023	1.776065
H	-0.266546	2.104596	0.250252
C	-0.390017	-1.276969	0.624266
N	-0.574383	-2.338658	1.088213
C	-1.744542	0.437958	-1.867551
H	-1.92535	0.189053	-2.916627
H	-2.531951	-0.003671	-1.231613
H	-1.865718	1.518107	-1.747715
N	-0.000149	-1.254724	-2.170616
H	-0.708013	-1.939846	-1.921452
H	0.888394	-1.595079	-1.816764
H	-3.987916	0.0	0.0
