18

C	0.0	0.0	0.0
C	-0.529493	-0.012392	-1.432605
F	1.387954	0.0	0.0
H	-1.615793	-0.167965	-1.301817
C	-0.499075	1.184362	0.793583
H	-1.597549	1.154851	0.754085
H	-0.097742	2.091786	0.338264
H	-0.150244	1.116061	1.827243
C	-0.372786	-1.269745	0.669489
N	-0.512506	-2.302838	1.210215
C	0.102785	-1.135005	-2.238951
H	1.188329	-1.014415	-2.283331
H	-0.292222	-1.133571	-3.260152
H	-0.128084	-2.106826	-1.797319
N	-0.223069	1.288893	-2.053341
H	-0.241493	1.166395	-3.059767
H	-0.988233	1.918703	-1.831729
H	-3.284105	0.0	0.0
