18

C	0.0	0.0	0.0
C	-0.428164	0.028108	-1.500018
F	1.39649	0.0	0.0
H	0.363058	-0.561308	-1.985799
C	-0.567389	1.088716	0.874756
H	-0.244717	2.066927	0.515375
H	-0.22806	0.956155	1.905497
H	-1.663067	1.006185	0.827621
C	-0.346558	-1.330142	0.555327
N	-0.530402	-2.39421	1.016427
C	-0.375651	1.44944	-2.04784
H	0.560016	1.95499	-1.78791
H	-0.468729	1.402806	-3.134537
H	-1.220168	2.027766	-1.665388
N	-1.705261	-0.568273	-1.82114
H	-1.659712	-1.568893	-1.651862
H	-2.464547	-0.231961	-1.177571
H	-3.601018	0.0	0.0
