18

C	0.0	0.0	0.0
C	-0.411259	-0.072626	-1.501902
F	1.402668	0.0	0.0
H	0.352222	-0.73938	-1.927668
C	-0.572078	1.146659	0.791316
H	-0.243413	1.087449	1.831588
H	-1.667014	1.060056	0.742173
H	-0.246496	2.097227	0.366362
C	-0.348789	-1.291079	0.636494
N	-0.540581	-2.327942	1.152182
C	-0.26731	1.298065	-2.158017
H	-1.086166	1.951855	-1.846665
H	0.692099	1.768407	-1.913819
H	-0.336867	1.171714	-3.240153
N	-1.714229	-0.625205	-1.793339
H	-1.715993	-1.616984	-1.572206
H	-2.462642	-0.235031	-1.167996
H	-3.613217	0.0	0.0
