18

C	0.0	0.0	0.0
C	-0.521239	-0.028026	-1.440013
F	1.40847	0.0	0.0
H	-1.615975	-0.098953	-1.303686
C	-0.512267	1.1764	0.793499
H	-1.61222	1.098129	0.769531
H	-0.175741	2.108347	0.334551
H	-0.140495	1.130262	1.820247
C	-0.352275	-1.261308	0.690995
N	-0.508675	-2.297029	1.222753
C	0.010123	-1.225675	-2.213342
H	-0.393077	-1.189438	-3.226724
H	-0.291857	-2.166366	-1.746779
H	1.102902	-1.202336	-2.275105
N	-0.219922	1.202412	-2.172726
H	0.725422	1.503872	-1.958684
H	-0.857344	1.929033	-1.868956
H	-3.249778	0.0	0.0
