18

C	0.0	0.0	0.0
C	-0.589208	-0.056656	-1.405584
F	1.396433	0.0	0.0
H	-1.630785	-0.378316	-1.216394
C	-0.515669	1.167925	0.801207
H	-0.134284	1.120647	1.824461
H	-1.614061	1.08852	0.790668
H	-0.181183	2.088747	0.321243
C	-0.333373	-1.273399	0.692018
N	-0.436274	-2.281626	1.286054
C	0.161658	-1.043545	-2.282116
H	1.186633	-0.702128	-2.457256
H	0.195471	-2.03281	-1.816585
H	-0.346192	-1.145631	-3.248135
N	-0.577665	1.286646	-2.005771
H	-1.441334	1.731944	-1.702111
H	-0.665617	1.173223	-3.010728
H	-3.284883	0.0	0.0
