18

C	0.0	0.0	0.0
C	-0.33556	0.033677	-1.51566
F	1.408248	0.0	0.0
H	0.373972	0.783992	-1.892359
C	-0.538149	1.169681	0.783904
H	-0.123256	1.166665	1.795181
H	-1.631422	1.085608	0.827415
H	-0.258186	2.100734	0.284908
C	-0.386698	-1.284627	0.60962
N	-0.595521	-2.33649	1.087283
C	-1.752464	0.460071	-1.84763
H	-2.538164	-0.008765	-1.228355
H	-1.883392	1.533791	-1.689284
H	-1.930903	0.247958	-2.905576
N	-0.009945	-1.223746	-2.185142
H	-0.723646	-1.907158	-1.951379
H	0.876184	-1.575427	-1.837239
H	-4.031161	0.0	0.0
