18

C	0.0	0.0	0.0
C	-0.418448	0.094562	-1.498716
F	1.397384	0.0	0.0
H	0.363364	-0.491753	-2.001863
C	-0.567839	1.051031	0.918083
H	-1.663962	0.970977	0.864235
H	-0.242841	2.043661	0.601652
H	-0.233257	0.873978	1.943685
C	-0.346683	-1.354233	0.493099
N	-0.487071	-2.452305	0.884293
C	-0.327534	1.534543	-1.990348
H	-1.16187	2.118617	-1.595213
H	-0.40909	1.530329	-3.079003
H	0.616806	2.007564	-1.70291
N	-1.704829	-0.460568	-1.853118
H	-2.458663	-0.145293	-1.193869
H	-1.679064	-1.467096	-1.728784
H	-3.587629	0.0	0.0
