18

C	0.0	0.0	0.0
C	-0.429481	-0.028415	-1.499778
F	1.396765	0.0	0.0
H	0.361689	-0.63493	-1.963645
C	-0.560643	1.124852	0.833885
H	-0.231553	2.086398	0.437115
H	-1.656371	1.048767	0.79306
H	-0.21937	1.029335	1.868199
C	-0.348095	-1.307165	0.605573
N	-0.501301	-2.364362	1.093758
C	-0.382428	1.370687	-2.101175
H	-1.22593	1.961014	-1.736722
H	0.553313	1.888977	-1.867917
H	-0.482418	1.282034	-3.184318
N	-1.705746	-0.638833	-1.798337
H	-2.465638	-0.281285	-1.16819
H	-1.657578	-1.632797	-1.594125
H	-3.601659	0.0	0.0
