12

C	-0.429428	-0.033749	-1.425339
C	0.0	0.0	0.0
F	-0.054068	1.089898	-2.093375
H	1.090395	0.0	0.0
H	-0.379709	-0.88674	0.512023
H	-0.406905	0.908851	0.452521
C	0.049571	-1.211393	-2.169597
N	0.410279	-2.154	-2.768796
N	-1.972744	-0.078626	-1.530913
O	-2.555422	0.965707	-1.79167
O	-2.497117	-1.155612	-1.265287
F	2.599084	0.0	0.0
