12

C	-0.432328	-0.061587	-1.413816
C	0.0	0.0	0.0
F	-1.806313	-0.205761	-1.593237
H	1.090544	0.0	0.0
H	-0.386286	0.918934	0.447384
H	-0.397311	-0.875623	0.516507
C	-0.024301	1.107476	-2.208549
N	0.185704	2.097377	-2.803999
N	0.147627	-1.316657	-2.075419
O	0.874062	-1.180626	-3.054028
O	-0.201441	-2.376139	-1.570435
F	2.593034	0.0	0.0
