12

C	-0.428795	0.02263	-1.430761
C	0.0	0.0	0.0
F	-0.071966	-1.116922	-2.083974
H	1.09159	0.0	0.0
H	-0.410785	-0.903213	0.458498
H	-0.388182	0.885813	0.504977
C	-1.875601	0.230549	-1.664632
N	-3.035144	0.349946	-1.81495
N	0.264649	1.192479	-2.147489
O	-0.022448	2.300356	-1.709421
O	1.006978	0.93738	-3.079331
F	2.604579	0.0	0.0
