12

C	-0.460905	0.031394	-1.409781
C	0.0	0.0	0.0
F	-1.842366	0.049556	-1.550059
H	1.089049	0.0	0.0
H	-0.373179	0.902162	0.493852
H	-0.417321	-0.890871	0.476877
C	0.064016	1.170729	-2.180763
N	0.433412	2.139774	-2.730561
N	-0.032195	-1.254832	-2.126938
O	0.907828	-1.190667	-2.910901
O	-0.674228	-2.256585	-1.833516
F	2.59743	0.0	0.0
