12

C	-0.451629	0.006119	-1.409251
C	0.0	0.0	0.0
F	-1.833151	-0.052431	-1.569503
H	1.089041	0.0	0.0
H	-0.405168	-0.891593	0.482713
H	-0.375415	0.902495	0.489359
C	0.012354	1.171375	-2.179064
N	0.297131	2.156327	-2.750979
N	0.054172	-1.260163	-2.111732
O	0.892623	-1.138499	-2.995655
O	-0.446291	-2.308171	-1.720713
F	2.589375	0.0	0.0
