14

C	0.015008	-0.049036	-0.069256
C	-0.203326	0.157182	-1.587275
Cl	1.846234	0.199894	0.208602
H	0.009843	1.217089	-1.77515
H	0.534459	-0.43094	-2.144273
N	-0.71083	0.792432	0.804266
H	-1.767424	0.623292	0.628617
H	-0.542319	1.749352	0.50435
C	-0.237935	-1.461721	0.25841
N	-0.416197	-2.606921	0.44871
N	-1.54179	-0.163219	-2.03101
H	-1.661537	-1.169652	-2.002482
H	-2.235684	0.221647	-1.360115
F	-3.121701	0.539804	0.038462
