14

C	0.0	0.0	0.0
C	-0.60243	-0.010179	-1.403436
Cl	1.794049	0.0	0.0
H	-1.716499	-0.023131	-1.124642
H	-0.341582	0.903469	-1.944319
C	-0.406884	1.245961	0.663731
N	-0.604654	2.260523	1.221395
C	-0.47458	-1.205186	0.805373
H	-0.083478	-1.15483	1.823692
H	-1.569197	-1.133342	0.779267
H	-0.111716	-2.118807	0.328044
C	-0.193555	-1.171035	-2.172231
N	0.120435	-2.109024	-2.807686
F	-2.830113	0.0	0.0
