14

C	0.0	0.0	0.0
C	-0.609822	-0.002517	-1.400529
Cl	1.793964	0.0	0.0
H	-0.347153	0.910902	-1.940756
H	-1.724036	-0.009965	-1.114363
C	-0.403243	1.245992	0.666538
N	-0.603475	2.265275	1.214687
C	-0.477924	-1.204419	0.804188
H	-1.572495	-1.126463	0.780767
H	-0.122247	-2.1193	0.324253
H	-0.083991	-1.158034	1.821689
C	-0.219615	-1.165248	-2.175242
N	0.076152	-2.106085	-2.815306
F	-2.839103	0.0	0.0
