14

C	0.0	0.0	0.0
C	-0.382733	0.08063	-1.489281
Cl	1.796298	0.0	0.0
H	-0.092531	1.069665	-1.86001
H	0.257023	-0.640945	-2.010867
C	-0.443041	1.170145	0.756845
N	-0.611341	2.159667	1.368223
C	-0.407235	-1.314903	0.661132
H	0.015796	-1.366382	1.667356
H	-0.006121	-2.142642	0.068907
H	-1.498573	-1.305081	0.671459
C	-1.767193	-0.195915	-1.917115
N	-2.531377	-0.448841	-2.783118
F	-2.567544	0.0	0.0
