14

C	0.0	0.0	0.0
C	-0.340669	0.314488	-1.469323
Cl	1.796393	0.0	0.0
H	0.188271	-0.441062	-2.065397
H	0.13129	1.267938	-1.716712
C	-0.431884	1.077917	0.884895
N	-0.615738	1.989495	1.600253
C	-0.415162	-1.387346	0.468755
H	0.007743	-2.130426	-0.214488
H	-0.023466	-1.571351	1.472014
H	-1.506071	-1.373889	0.45173
C	-1.731812	0.375554	-1.942894
N	-2.539988	0.627747	-2.769305
F	-2.562476	0.0	0.0
