14

C	0.0	0.0	0.0
C	-0.374857	-0.033702	-1.492855
Cl	1.796362	0.0	0.0
H	0.251418	-0.807762	-1.950751
H	-0.061433	0.915734	-1.939452
C	-0.445062	1.223643	0.665017
N	-0.610227	2.238915	1.233787
C	-0.409142	-1.25947	0.758257
H	0.000205	-2.13005	0.237256
H	-1.500263	-1.252416	0.75923
H	0.004759	-1.231031	1.769083
C	-1.764139	-0.310795	-1.908032
N	-2.529777	-0.60107	-2.76062
F	-2.56843	0.0	0.0
