14

C	0.0	0.0	0.0
C	-0.60407	-0.018031	-1.400731
Cl	1.793152	0.0	0.0
H	-1.716559	0.015521	-1.126381
H	-0.353682	-0.967898	-1.883791
C	-0.396983	1.235304	0.690811
N	-0.596422	2.254655	1.238817
C	-0.494082	-1.215853	0.775727
H	-0.124874	-2.123518	0.28995
H	-0.125615	-1.185723	1.80296
H	-1.588891	-1.133213	0.727415
C	-0.182069	1.085675	-2.243471
N	0.14853	1.963602	-2.951651
F	-2.841841	0.0	0.0
