14

C	0.0	0.0	0.0
C	-0.611093	-0.051084	-1.397997
Cl	1.793755	0.0	0.0
H	-1.725359	-0.050611	-1.108699
H	-0.350923	0.84359	-1.969793
C	-0.405123	1.265685	0.627336
N	-0.603339	2.302163	1.142987
C	-0.473399	-1.17909	0.845114
H	-1.567777	-1.105273	0.824033
H	-0.117764	-2.108147	0.392742
H	-0.074375	-1.0998	1.858499
C	-0.22027	-1.239625	-2.132681
N	0.073194	-2.202765	-2.739878
F	-2.836535	0.0	0.0
