14

C	0.0	0.0	0.0
C	-0.612329	-0.1961	-1.384273
Cl	1.794049	0.0	0.0
H	-1.727448	-0.16306	-1.095458
H	-0.349929	0.633683	-2.046547
C	-0.401582	1.324548	0.49291
N	-0.602795	2.392039	0.938569
C	-0.476326	-1.081088	0.964087
H	-1.570466	-1.005674	0.935575
H	-0.07648	-0.898138	1.963767
H	-0.125933	-2.05387	0.611124
C	-0.225875	-1.45591	-1.991096
N	0.063632	-2.47731	-2.496782
F	-2.837709	0.0	0.0
