15

C	-0.2888	-0.034887	-1.488171
C	0.0	0.0	0.0
Cl	-0.196303	1.652457	-2.199239
H	1.094209	0.0	0.0
H	-0.315558	-0.97549	0.384109
N	0.576676	-0.960732	-2.080247
H	1.526384	-0.817006	-1.71069
H	0.556997	-0.911744	-3.089807
N	-1.730955	-0.459765	-1.826288
O	-2.543359	-0.497605	-0.90674
O	-1.974467	-0.757688	-2.991707
N	-0.551052	1.125243	0.721539
H	-1.291942	0.821159	1.335928
H	0.19052	1.538494	1.272884
H	2.895327	0.0	0.0
