15

C	-0.590897	0.080685	-1.400221
C	0.0	0.0	0.0
Cl	-0.350571	-1.484402	-2.225452
H	1.094454	0.0	0.0
H	-0.340765	-0.959841	0.400541
N	-1.95306	0.496935	-1.416897
H	-2.553313	-0.155189	-1.895016
H	-2.231263	0.685887	-0.459016
N	0.162405	1.147178	-2.233776
O	0.444998	2.161453	-1.6056
O	0.313757	0.986362	-3.4366
N	-0.575773	1.058114	0.851473
H	-0.358659	0.802307	1.808309
H	-0.042199	1.899304	0.657043
H	2.956977	0.0	0.0
