15

C	-0.616711	-0.006074	-1.382305
C	0.0	0.0	0.0
Cl	0.224317	-1.267652	-2.40252
H	1.091828	0.0	0.0
H	-0.369782	0.892111	0.509611
N	-2.014085	-0.184711	-1.32686
H	-2.391117	-0.414497	-2.237175
H	-2.171388	-0.929696	-0.653805
N	-0.392249	1.306035	-2.123308
O	-0.896363	1.385821	-3.240676
O	0.211463	2.200635	-1.545887
N	-0.495706	-1.212028	0.692093
H	0.247838	-1.90054	0.607031
H	-0.55162	-0.996128	1.679982
H	2.942666	0.0	0.0
