15

C	-0.568162	0.015784	-1.39864
C	0.0	0.0	0.0
Cl	-0.048424	1.443544	-2.307606
H	1.096882	0.0	0.0
H	-0.352531	-0.927586	0.463503
N	-0.244673	-1.14819	-2.123853
H	-0.696457	-1.178798	-3.027634
H	-0.452215	-1.974189	-1.581818
N	-2.134692	0.136315	-1.226793
O	-2.747009	1.142048	-1.547172
O	-2.641593	-0.879157	-0.747893
N	-0.541491	1.141258	0.754932
H	-0.501251	0.896607	1.736662
H	0.127274	1.896677	0.639935
H	2.958881	0.0	0.0
