15

C	-0.506975	0.048063	-1.407322
C	0.0	0.0	0.0
Cl	-2.455403	-0.251842	-1.352579
H	1.093231	0.0	0.0
H	-0.361508	-0.901313	0.496169
N	-0.178329	1.200488	-2.054719
H	-0.565325	1.314923	-2.977262
H	-0.272061	1.984392	-1.421031
N	-0.106335	-1.156704	-2.232147
O	-0.049936	-0.998728	-3.448497
O	0.10107	-2.203598	-1.633987
N	-0.371296	1.256719	0.655804
H	-1.185236	1.13785	1.243598
H	0.418872	1.52885	1.231569
H	2.821689	0.0	0.0
