15

C	-0.608999	-0.002108	-1.385263
C	0.0	0.0	0.0
Cl	0.229215	-1.272203	-2.39603
H	1.091834	0.0	0.0
H	-0.369292	0.892528	0.508687
N	-2.009626	-0.167741	-1.339858
H	-2.178539	-0.91099	-0.667123
H	-2.381403	-0.39908	-2.252599
N	-0.367755	1.308269	-2.126227
O	0.226486	2.202822	-1.539271
O	-0.850837	1.386733	-3.252836
N	-0.502435	-1.210591	0.688874
H	-0.5541	-0.997387	1.677566
H	0.234803	-1.905519	0.599975
H	2.943854	0.0	0.0
