18

C	0.0	0.0	0.0
C	-0.426735	-0.007973	-1.51089
Br	1.971204	0.0	0.0
H	0.420624	0.429933	-2.04974
C	-0.478135	1.229241	0.759821
H	-0.047047	1.238196	1.764332
H	-1.570593	1.164838	0.809874
H	-0.190543	2.12916	0.216607
C	-0.36996	-1.220234	0.717858
N	-0.572325	-2.214086	1.313001
N	-1.564572	0.875451	-1.70622
H	-2.367561	0.531862	-1.114436
H	-1.849342	0.792034	-2.679241
C	-0.625066	-1.4385	-2.021816
H	-0.753621	-1.409799	-3.109021
H	0.227857	-2.088407	-1.798043
H	-1.529586	-1.857788	-1.578289
H	-3.388355	0.0	0.0
