18

C	0.0	0.0	0.0
C	-0.582742	-0.013126	-1.426474
Br	1.972421	0.0	0.0
H	-1.673915	-0.034905	-1.194609
C	-0.529127	1.152515	0.833285
H	-0.196573	1.070416	1.870963
H	-1.629312	1.05795	0.770944
H	-0.196081	2.108758	0.42692
C	-0.326223	-1.276452	0.653022
N	-0.481708	-2.339831	1.13155
N	-0.255732	-1.197386	-2.207662
H	0.740915	-1.387614	-2.153463
H	-0.74495	-1.993226	-1.812344
C	-0.25424	1.239372	-2.220779
H	-0.624475	2.141986	-1.73168
H	0.823036	1.342129	-2.389947
H	-0.746053	1.150996	-3.191232
H	-3.234557	0.0	0.0
