18

C	0.0	0.0	0.0
C	-0.215889	0.042405	-1.572132
Br	1.979759	0.0	0.0
H	0.495172	-0.717833	-1.935158
C	-0.245367	1.297625	0.807881
H	-1.30751	1.465924	0.945688
H	0.252619	1.199002	1.778303
H	0.187281	2.141718	0.271972
C	-0.653897	-1.16654	0.575101
N	-0.676289	-2.231941	1.111961
N	0.132206	1.377198	-2.081926
H	0.006048	1.357311	-3.088639
H	1.119707	1.536371	-1.913597
C	-1.546645	-0.346128	-2.204288
H	-2.302793	0.419196	-2.049064
H	-1.92032	-1.286482	-1.804586
H	-1.355947	-0.470056	-3.286444
H	-2.083594	0.0	0.0
