18

C	0.0	0.0	0.0
C	-0.521305	0.006878	-1.456752
Br	1.972393	0.0	0.0
H	-1.617928	-0.005401	-1.284672
C	-0.499233	1.176738	0.817964
H	-1.600042	1.132612	0.741951
H	-0.107006	2.111426	0.413611
H	-0.185593	1.084692	1.860471
C	-0.355565	-1.271755	0.638024
N	-0.511849	-2.342112	1.099909
N	-0.159584	-1.171803	-2.230825
H	-0.633892	-1.980176	-1.842885
H	0.840826	-1.336559	-2.160732
C	-0.125729	1.260934	-2.221329
H	-0.534848	1.177061	-3.22971
H	0.962238	1.359018	-2.302234
H	-0.527312	2.164849	-1.760343
H	-3.197254	0.0	0.0
