16

C	-0.456416	-0.246834	-1.401195
C	0.0	0.0	0.0
Br	0.429541	-1.806822	-2.097768
H	1.115815	0.0	0.0
N	-1.997405	-0.439651	-1.50725
O	-2.640098	0.295397	-0.769665
O	-2.443543	-1.245199	-2.307734
N	-0.141192	0.900992	-2.377012
O	1.02268	1.242114	-2.433794
O	-1.076921	1.312348	-3.051841
C	-0.425578	-1.078906	0.855235
N	-0.751901	-2.004614	1.505266
N	-0.33881	1.286342	0.562794
O	-0.353002	1.363476	1.798244
O	-0.420323	2.253057	-0.208184
H	2.277955	0.0	0.0
