16

C	-0.460094	-0.007196	-1.428626
C	0.0	0.0	0.0
Br	0.288303	-1.535601	-2.320874
H	1.095369	0.0	0.0
N	-2.003841	-0.042324	-1.578595
O	-2.464698	-0.443132	-2.636704
O	-2.629998	0.395245	-0.622365
N	-0.030355	1.247432	-2.22527
O	-0.928979	1.966509	-2.637153
O	1.167587	1.386519	-2.380377
C	-0.453735	-1.17982	0.693382
N	-0.771118	-2.183185	1.220171
N	-0.30945	1.203072	0.742335
O	-0.247023	2.272448	0.12007
O	-0.430324	1.098744	1.968258
H	2.309452	0.0	0.0
