16

C	-0.490082	0.008261	-1.485818
C	0.0	0.0	0.0
Br	-2.419292	-0.263891	-1.588267
H	1.113037	0.0	0.0
N	-0.151551	1.281144	-2.166828
O	-0.555102	1.281864	-3.412358
O	1.127886	1.618959	-1.995927
N	0.198476	-1.104813	-2.24984
O	1.536267	-1.003603	-2.174135
O	-0.271875	-2.268444	-1.872269
C	-0.343696	-1.243041	0.856808
N	0.201919	-1.442683	1.898812
N	-0.466041	1.189785	0.748802
O	0.343144	1.45907	1.75529
O	-1.736343	1.100644	1.08125
H	2.488438	0.0	0.0
