12

C	0.0	0.0	0.0
C	-0.556587	0.019679	-1.409342
Br	1.925541	0.0	0.0
H	-0.213962	0.917293	-1.92959
H	-0.357283	-0.840252	0.589809
H	-1.65741	0.052436	-1.287482
N	-0.411188	1.242353	0.750345
O	-0.517466	2.278396	0.105225
O	-0.534164	1.12153	1.96194
C	-0.162413	-1.171911	-2.148618
N	0.146368	-2.130979	-2.752033
Cl	-3.455065	0.0	0.0
