12

C	0.0	0.0	0.0
C	-0.566173	0.390382	-1.346871
Br	1.928029	0.0	0.0
H	-0.236402	1.396561	-1.610591
H	-0.361814	-0.961435	0.358936
H	-1.665294	0.381974	-1.20878
N	-0.399638	1.01004	1.05228
O	-0.503763	2.178298	0.699228
O	-0.517325	0.579012	2.19162
C	-0.191389	-0.555137	-2.388096
N	0.072296	-1.305625	-3.252662
Cl	-3.460204	0.0	0.0
