14

C	-0.488033	0.047125	-1.476164
C	0.0	0.0	0.0
Cl	0.29507	1.417196	-2.305212
H	1.094468	0.0	0.0
C	-0.16675	-1.190396	-2.192376
N	0.059371	-2.175814	-2.791317
C	-1.941039	0.253269	-1.501821
N	-3.104674	0.418088	-1.488041
C	-0.496981	-1.233354	0.617405
N	-0.927214	-2.182254	1.162749
N	-0.437446	1.199573	0.68505
H	-1.23397	1.032191	1.284427
H	0.335288	1.560016	1.229631
Cl	3.199754	0.0	0.0
