14

C	-0.463931	0.015218	-1.471688
C	0.0	0.0	0.0
Cl	-2.273282	0.066207	-1.539814
H	1.096041	0.0	0.0
C	0.033393	1.218391	-2.14017
N	0.418696	2.189399	-2.67715
C	-0.032232	-1.184523	-2.19062
N	0.287924	-2.141836	-2.790895
C	-0.48144	-1.220994	0.652353
N	-0.884645	-2.160757	1.232272
N	-0.417033	1.226222	0.647501
H	0.338733	1.551591	1.236476
H	-1.257062	1.106918	1.195522
Cl	3.17168	0.0	0.0
