14

C	-0.459283	0.016716	-1.473124
C	0.0	0.0	0.0
Cl	-2.267087	0.071026	-1.547764
H	1.096003	0.0	0.0
C	0.044116	1.219049	-2.13972
N	0.431877	2.190886	-2.673651
C	-0.025321	-1.184015	-2.191006
N	0.299545	-2.140694	-2.791368
C	-0.481541	-1.223695	0.648359
N	-0.883652	-2.164548	1.227242
N	-0.421001	1.223877	0.647781
H	0.324932	1.539901	1.255454
H	-1.273959	1.105896	1.178006
Cl	3.171075	0.0	0.0
