14

C	-0.491065	-0.001337	-1.47094
C	0.0	0.0	0.0
Cl	0.053523	-1.484089	-2.307459
H	1.095943	0.0	0.0
C	-1.957791	0.046939	-1.500556
N	-3.132509	0.076246	-1.486041
C	0.033197	1.174874	-2.169924
N	0.41888	2.133638	-2.728507
C	-0.499843	-1.195667	0.68265
N	-0.957198	-2.107519	1.267103
N	-0.443404	1.240618	0.608746
H	-1.241454	1.115073	1.216645
H	0.32698	1.647525	1.124125
Cl	3.194605	0.0	0.0
