14

C	-0.464241	0.022767	-1.471515
C	0.0	0.0	0.0
Cl	-2.273145	0.077989	-1.538372
H	1.096027	0.0	0.0
C	0.035047	1.22825	-2.134234
N	0.415999	2.20389	-2.665863
C	-0.035318	-1.174459	-2.197022
N	0.282443	-2.129968	-2.802973
C	-0.481085	-1.224451	0.645796
N	-0.883511	-2.167374	1.220866
N	-0.417402	1.222421	0.6545
H	0.34031	1.544338	1.243203
H	-1.256847	1.099995	1.204928
Cl	3.172752	0.0	0.0
