14

C	-0.413127	0.014482	-1.510755
C	0.0	0.0	0.0
Cl	0.220029	-1.427767	-2.349525
H	1.095775	0.0	0.0
C	-1.875846	0.031775	-1.627596
N	-3.050565	0.070369	-1.661218
C	0.113441	1.22753	-2.142308
N	0.47653	2.226835	-2.642931
C	-0.53415	-1.218011	0.612676
N	-1.000593	-2.175876	1.107631
N	-0.431885	1.167365	0.722059
H	0.207109	1.933832	0.561322
H	-1.390798	1.435174	0.541469
Cl	3.200402	0.0	0.0
