14

C	-0.417918	-0.018745	-1.515793
C	0.0	0.0	0.0
Cl	0.346122	1.372989	-2.339052
H	1.095804	0.0	0.0
C	-0.005643	-1.254563	-2.180358
N	0.293284	-2.242825	-2.742271
C	-1.872545	0.132907	-1.624736
N	-3.039021	0.278366	-1.64538
C	-0.535515	-1.21945	0.610098
N	-1.009517	-2.187528	1.07769
N	-0.429663	1.160457	0.728995
H	0.196739	1.93135	0.544138
H	-1.391892	1.418518	0.549185
Cl	3.202888	0.0	0.0
