14

C	-0.491193	0.086675	-1.468266
C	0.0	0.0	0.0
Cl	0.053382	-1.344839	-2.392089
H	1.094496	0.0	0.0
C	-1.958054	0.136326	-1.494748
N	-3.132669	0.172743	-1.478128
C	0.032564	1.301642	-2.096718
N	0.419765	2.289693	-2.600446
C	-0.497785	-1.23387	0.612046
N	-0.927962	-2.178172	1.164603
N	-0.443177	1.202919	0.682163
H	0.328196	1.575806	1.220217
H	-1.238294	1.040187	1.284
Cl	3.19394	0.0	0.0
