14

C	-0.48794	0.03983	-1.476593
C	0.0	0.0	0.0
Cl	0.297435	1.404675	-2.312834
H	1.092617	0.0	0.0
C	-0.168746	-1.201131	-2.187356
N	0.054364	-2.190402	-2.781214
C	-1.94055	0.248363	-1.503151
N	-3.104775	0.408755	-1.488472
C	-0.500734	-1.2307	0.620226
N	-0.966157	-2.181078	1.13309
N	-0.437222	1.203327	0.678476
H	0.334234	1.565711	1.223859
H	-1.237539	1.041955	1.274669
Cl	3.199402	0.0	0.0
