14

C	-0.460543	-0.033836	-1.472499
C	0.0	0.0	0.0
Cl	-2.267709	0.012523	-1.549315
H	1.096709	0.0	0.0
C	0.038323	1.148416	-2.177764
N	0.425494	2.08567	-2.770012
C	-0.021529	-1.254702	-2.150037
N	0.317974	-2.236862	-2.699387
C	-0.479161	-1.201582	0.688566
N	-0.851791	-2.158903	1.260288
N	-0.4188	1.247504	0.602714
H	-1.264862	1.150343	1.146609
H	0.331715	1.591536	1.187968
Cl	3.182782	0.0	0.0
