13

C	0.0	0.0	0.0
C	-0.505515	0.409311	-1.366918
Br	1.939586	0.0	0.0
H	-0.170361	-0.281845	-2.136883
H	-0.267964	0.769839	0.726703
H	-1.602315	0.444927	-1.301565
N	-0.506217	-1.319348	0.272352
H	-0.277669	-1.564926	1.229232
H	-1.527534	-1.230189	0.222738
N	-0.047453	1.763608	-1.761815
O	-0.07549	2.647716	-0.908715
O	0.294091	1.928778	-2.933607
Cl	-3.552881	0.0	0.0
