13

C	0.0	0.0	0.0
C	-0.488215	-0.003156	-1.433171
Br	2.030628	0.0	0.0
H	-0.198686	0.904369	-1.957273
H	-0.2361	0.971448	0.429642
H	-1.584435	-0.11124	-1.375048
N	-0.52537	-1.013902	0.771395
H	-0.42488	-1.945059	0.407124
H	-0.421858	-0.924026	1.766
N	0.060046	-1.12733	-2.23488
O	0.034687	-2.254215	-1.739466
O	0.486212	-0.870764	-3.358821
Cl	-3.717098	0.0	0.0
