13

C	0.0	0.0	0.0
C	-0.470389	-0.034055	-1.445641
Br	1.958077	0.0	0.0
H	-0.145198	-0.937923	-1.959711
H	-0.294697	0.946401	0.448505
H	-1.56559	0.040328	-1.415743
N	-0.510281	-1.075581	0.79356
H	-1.519476	-0.90275	0.867725
H	-0.384152	-1.954113	0.300915
N	0.030967	1.111089	-2.247589
O	0.444096	0.877954	-3.384127
O	-0.024584	2.226893	-1.734284
Cl	-3.527914	0.0	0.0
