14

C	-0.286887	0.129939	-1.518876
C	0.0	0.0	0.0
Br	0.07714	-1.697487	-2.350203
H	1.107508	0.0	0.0
C	-1.695448	0.377561	-1.828382
N	-2.822806	0.600744	-2.075867
N	0.542781	1.152868	-2.000484
H	0.471611	1.28589	-3.000095
H	1.512124	1.004156	-1.706644
C	-0.559875	-1.185002	0.632647
N	-1.023711	-2.111929	1.185205
C	-0.466354	1.207343	0.681617
N	-0.858052	2.162285	1.242829
Cl	3.155388	0.0	0.0
