14

C	-0.501702	0.258803	-1.439497
C	0.0	0.0	0.0
Br	0.310805	2.002251	-2.031015
H	1.107028	0.0	0.0
C	0.021389	-0.750096	-2.361483
N	0.364878	-1.557903	-3.143181
N	-1.921008	0.2588	-1.495161
H	-2.252114	0.411027	-2.439914
H	-2.300679	0.974245	-0.884776
C	-0.467456	-1.314626	0.443625
N	-0.826275	-2.375311	0.799319
C	-0.515559	1.034924	0.891641
N	-0.984585	1.862197	1.582086
Cl	3.127493	0.0	0.0
