17

C	-0.386281	0.001629	-1.460763
C	0.0	0.0	0.0
F	0.069011	1.156767	-2.032848
H	1.095532	0.0	0.0
C	0.154131	-1.189292	-2.200181
H	-0.271283	-2.102368	-1.790421
H	1.234394	-1.190788	-2.030979
H	-0.072507	-1.090406	-3.264366
N	-1.910709	0.050911	-1.659989
O	-2.33293	0.653177	-2.639768
O	-2.604484	-0.55601	-0.846254
N	-0.319832	-1.250006	0.670363
H	-1.226042	-1.218064	1.115143
H	0.410924	-1.414737	1.35451
C	-0.496627	1.199447	0.671629
N	-0.905283	2.136528	1.253605
H	2.672239	0.0	0.0
