17

C	-0.38909	-0.001984	-1.463052
C	0.0	0.0	0.0
F	0.085721	1.139598	-2.040437
H	1.097369	0.0	0.0
C	0.130247	-1.209432	-2.193356
H	-0.095716	-1.118226	-3.2587
H	1.211648	-1.225423	-2.0297
H	-0.309947	-2.111882	-1.774843
N	-1.913017	0.068413	-1.648922
O	-2.581519	-0.692748	-0.9528
O	-2.363609	0.838527	-2.490213
N	-0.315742	-1.245668	0.679335
H	-1.220545	-1.216475	1.12809
H	0.416357	-1.401767	1.36554
C	-0.49649	1.202636	0.666179
N	-0.905721	2.140827	1.24675
H	2.663715	0.0	0.0
