17

C	-0.382573	0.042367	-1.459387
C	0.0	0.0	0.0
F	-0.161014	1.305551	-1.961746
H	1.09575	0.0	0.0
C	0.379219	-0.969848	-2.265447
H	1.439359	-0.813279	-2.038766
H	0.096884	-1.974108	-1.950666
H	0.172728	-0.829423	-3.326215
N	-1.895047	-0.159756	-1.678901
O	-2.63412	-0.206782	-0.697781
O	-2.268876	-0.23404	-2.848614
N	-0.345427	-1.295557	0.574514
H	-1.188307	-1.240088	1.127543
H	0.434848	-1.583425	1.154932
C	-0.48852	1.152073	0.748543
N	-0.870923	2.049641	1.405622
H	2.681103	0.0	0.0
