17

C	-0.506666	0.087178	-1.428239
C	0.0	0.0	0.0
F	-1.864518	0.340771	-1.463793
H	1.092866	0.0	0.0
C	0.235947	1.112315	-2.240742
H	-0.013	2.101957	-1.852338
H	-0.059795	1.05805	-3.291219
H	1.309273	0.939138	-2.124206
N	-0.336939	-1.284079	-2.058146
O	-1.336136	-1.980288	-2.187353
O	0.804114	-1.585161	-2.385699
N	-0.386628	-1.237715	0.655747
H	-1.238304	-1.142536	1.191966
H	0.378546	-1.502298	1.268421
C	-0.425983	1.207329	0.708192
N	-0.778864	2.157926	1.305143
H	2.674346	0.0	0.0
