17

C	-0.485616	0.10518	-1.437044
C	0.0	0.0	0.0
F	-1.81974	0.452806	-1.497528
H	1.092829	0.0	0.0
C	0.341679	1.063754	-2.248952
H	1.397104	0.812493	-2.11356
H	0.166784	2.072827	-1.869872
H	0.054186	1.022507	-3.302252
N	-0.401111	-1.285367	-2.044289
O	-1.447429	-1.893464	-2.234513
O	0.727422	-1.690331	-2.291654
N	-0.400823	-1.240768	0.64295
H	-1.234693	-1.132628	1.203387
H	0.371681	-1.533332	1.233284
C	-0.419792	1.20304	0.716468
N	-0.764208	2.1522	1.320308
H	2.680307	0.0	0.0
