14

C	-0.147286	0.002721	0.075264
C	-0.611814	-0.123022	-1.389105
Cl	1.581117	-0.582227	0.145682
H	0.24758	0.09797	-2.039986
H	-0.7475	-0.672906	0.670558
C	-0.249136	1.410938	0.607548
H	0.181165	1.468583	1.609854
H	0.259568	2.13273	-0.037671
H	-1.3189	1.616345	0.650499
C	-1.675138	0.826831	-1.74926
N	-2.234252	1.700501	-2.307039
C	-1.025536	-1.498554	-1.67787
N	-1.237233	-2.613252	-1.97798
F	-2.617039	-0.184749	-0.011421
