14

C	-0.128032	0.004226	0.065819
C	-0.595611	0.062742	-1.401821
Cl	1.618253	-0.529307	0.055636
H	0.253272	0.396251	-2.017664
H	-0.703894	-0.76425	0.56475
C	-0.271641	1.32377	0.783593
H	0.211954	2.14178	0.24226
H	-1.347171	1.487748	0.853288
H	0.160325	1.258743	1.784731
C	-1.689032	1.019212	-1.630411
N	-2.278021	1.941872	-2.064856
C	-0.968381	-1.273635	-1.872591
N	-1.145228	-2.346208	-2.31501
F	-2.591005	-0.24777	-0.043368
