14

C	-0.147214	0.012851	0.073531
C	-0.609949	-0.329563	-1.356283
Cl	1.579053	-0.560132	0.234445
H	0.250836	-0.210751	-2.031553
H	-0.750707	-0.564045	0.762111
C	-0.245786	1.48503	0.389176
H	0.182682	1.690438	1.372703
H	0.266179	2.101309	-0.355258
H	-1.315086	1.697275	0.398361
C	-1.670086	0.558557	-1.856326
N	-2.225103	1.340566	-2.540055
C	-1.027155	-1.731714	-1.436655
N	-1.242628	-2.878032	-1.566847
F	-2.617763	-0.177828	0.011147
