14

C	-0.147781	-0.012526	0.07474
C	-0.606227	0.127268	-1.390171
Cl	1.576153	-0.613792	0.04624
H	0.257412	0.454419	-1.988634
H	-0.755504	-0.778547	0.538461
C	-0.242983	1.279094	0.848875
H	-1.311621	1.481605	0.923297
H	0.273856	2.100615	0.344807
H	0.18229	1.153965	1.847163
C	-1.661865	1.133553	-1.579119
N	-2.212019	2.09671	-1.97501
C	-1.027288	-1.172019	-1.920386
N	-1.24526	-2.21401	-2.414523
F	-2.618687	-0.162798	-0.052196
