14
Coordinates from ORCA-job run
  C   -0.13825581123384     -0.04856281685937     -0.30380904901444
  C   -0.98789248923712     -0.80008149783945      0.70821273218145
  Cl  -0.88074042733205     -0.30974118149520     -1.93574554045908
  H   -2.01387124505060     -0.42712700715315      0.70713166139658
  H   -0.56888564120410     -0.66544274751362      1.71016964541054
  H   -1.00952400407004     -1.86754945351539      0.48067665081721
  C   1.27882299265174     -0.59632546665646     -0.35568402828363
  H   1.86788660178551     -0.07821653435605     -1.11482609947296
  H   1.27476614224738     -1.66222085051733     -0.59143706474723
  H   1.76160726865993     -0.45592280239490      0.61633330619461
  C   -0.14628904797647      1.44749968866798     -0.03439952097861
  H   0.29637100788628      1.64539319281819      0.94667239582065
  H   0.43175813200521      1.98144727727366     -0.79103033943442
  H   -1.16575347913182      1.83785019954107     -0.04126474943067
