18

C	0.0	0.0	0.0
C	-0.187554	0.038398	-1.551271
Cl	1.861456	0.0	0.0
H	0.333944	0.901214	-1.955478
C	-0.438371	1.334195	0.572979
H	-1.532138	1.316882	0.517507
H	-0.012885	2.17337	0.019529
H	-0.104971	1.373157	1.611428
N	-0.569131	-1.056592	0.725659
H	-1.604399	-0.810747	0.633774
H	-0.396515	-1.932514	0.248063
N	-1.589422	0.151644	-2.110575
O	-2.143608	-0.874491	-2.474081
O	-1.974895	1.300079	-2.279837
N	0.416722	-1.132226	-2.272834
O	0.342165	-2.251522	-1.778206
O	0.933863	-0.870691	-3.359463
F	-2.798411	0.0	0.0
