18

C	0.0	0.0	0.0
C	-0.583314	0.051339	-1.428405
Cl	1.79044	0.0	0.0
H	-1.676306	-0.114989	-1.225913
C	-0.449483	1.254769	0.746494
H	0.018753	2.154073	0.345667
H	-1.539269	1.278329	0.667713
H	-0.153273	1.122062	1.789084
N	-0.508996	-1.136687	0.71957
H	-1.533492	-0.975338	0.668172
H	-0.292119	-1.982104	0.20314
N	-0.006533	-0.967715	-2.353717
O	-0.033572	-2.135286	-1.972512
O	0.439165	-0.59604	-3.438557
N	-0.45217	1.358885	-2.133516
O	-1.462711	1.762825	-2.706097
O	0.633987	1.932136	-2.121781
F	-2.856527	0.0	0.0
