18

C	0.0	0.0	0.0
C	-0.591199	-0.011278	-1.419126
Cl	1.789542	0.0	0.0
H	-1.688538	0.109671	-1.212885
C	-0.429277	1.298226	0.680858
H	0.001766	2.175826	0.201003
H	-0.080832	1.237954	1.712964
H	-1.520272	1.316523	0.644585
N	-0.534593	-1.085612	0.775356
H	-1.55911	-0.914531	0.705498
H	-0.3052	-1.964031	0.327259
N	-0.418014	-1.277019	-2.197001
O	0.324392	-2.164435	-1.782288
O	-1.072711	-1.333983	-3.235844
N	-0.069041	1.062375	-2.310062
O	-0.593956	2.169146	-2.205845
O	0.865665	0.786608	-3.062386
F	-2.878795	0.0	0.0
