18

C	0.0	0.0	0.0
C	-0.216709	-0.041825	-1.550652
Cl	1.809807	0.0	0.0
H	0.30552	0.796008	-2.004271
C	-0.457156	1.358891	0.503674
H	-1.551476	1.327322	0.456012
H	-0.116091	1.458191	1.536025
H	-0.044651	2.172013	-0.097566
N	-0.571946	-1.020157	0.788262
H	-0.38652	-1.92036	0.362611
H	-1.603733	-0.791954	0.676177
N	-1.619315	0.049877	-2.108338
O	-2.002474	1.190827	-2.326817
O	-2.172964	-0.989712	-2.432205
N	0.378924	-1.249891	-2.21787
O	0.315438	-2.341424	-1.662708
O	0.878589	-1.046088	-3.325587
F	-2.810185	0.0	0.0
