18

C	0.0	0.0	0.0
C	-0.588509	0.056319	-1.409229
Cl	1.82461	0.0	0.0
H	-1.686601	0.160752	-1.21155
C	-0.400955	1.244221	0.79334
H	0.03639	2.160854	0.399761
H	-1.492227	1.271171	0.761634
H	-0.052367	1.102006	1.820472
N	-0.54323	-1.214571	0.545761
H	-1.568911	-1.006925	0.516304
H	-0.247202	-1.281835	1.514884
N	-0.384502	-1.18433	-2.218189
O	0.654705	-1.821199	-2.114687
O	-1.309309	-1.446159	-2.990091
N	-0.084888	1.182675	-2.241952
O	0.710881	0.937225	-3.148605
O	-0.516979	2.299147	-1.962377
F	-2.871202	0.0	0.0
