15

C	-0.552134	-0.021906	-1.415959
C	0.0	0.0	0.0
Cl	0.235424	1.350128	-2.354141
H	1.092103	0.0	0.0
H	-0.315309	0.955557	0.438485
C	-0.196856	-1.25168	-2.136238
N	0.037775	-2.250252	-2.708444
N	-1.982466	0.095722	-1.414242
H	-2.336452	0.166775	-2.360834
H	-2.23681	0.939034	-0.911108
C	-0.507285	-1.172353	0.834979
H	-0.166953	-2.119754	0.410538
H	-1.596497	-1.194665	0.907499
H	-0.08242	-1.098339	1.838788
Cl	3.506711	0.0	0.0
