15

C	-0.329272	0.169403	-1.481809
C	0.0	0.0	0.0
Cl	-0.050096	-1.455119	-2.358899
H	1.092977	0.0	0.0
H	-0.319784	0.93507	0.47325
C	-1.754718	0.443649	-1.719038
N	-2.900189	0.669796	-1.852934
N	0.476662	1.208396	-2.001338
H	1.441831	1.074491	-1.696419
H	0.43192	1.262586	-3.010305
C	-0.60783	-1.198871	0.700856
H	-0.191085	-2.12997	0.318453
H	-0.375299	-1.143633	1.767156
H	-1.697324	-1.230412	0.59008
Cl	3.449801	0.0	0.0
