15

C	-0.563618	-0.021732	-1.417852
C	0.0	0.0	0.0
Cl	0.105742	1.389271	-2.309685
H	1.093317	0.0	0.0
H	-0.321364	0.950524	0.443855
C	-0.167299	-1.244408	-2.132267
N	0.067383	-2.260879	-2.671158
N	-2.017467	0.070011	-1.520772
H	-2.315808	0.856814	-0.952121
H	-2.420625	-0.77271	-1.124438
C	-0.488697	-1.176038	0.840476
H	-1.574937	-1.186287	0.979382
H	-0.180965	-2.126652	0.397506
H	-0.024919	-1.118919	1.827191
Cl	3.487333	0.0	0.0
