15

C	-0.537563	-0.015943	-1.425674
C	0.0	0.0	0.0
Cl	0.24222	1.35914	-2.375985
H	1.09195	0.0	0.0
H	-0.333232	-0.938342	0.457092
C	-0.150618	-1.244501	-2.132226
N	0.077811	-2.239821	-2.711471
N	-1.967198	0.070224	-1.4561
H	-2.258973	0.928174	-1.005043
H	-2.299334	0.083053	-2.413231
C	-0.496792	1.184949	0.821346
H	0.046517	1.20114	1.76775
H	-1.565576	1.128049	1.051745
H	-0.286224	2.129253	0.314534
Cl	3.493227	0.0	0.0
