15

C	-0.539714	-0.003091	-1.42254
C	0.0	0.0	0.0
Cl	0.251983	1.366623	-2.370113
H	1.091888	0.0	0.0
H	-0.336301	-0.939862	0.45188
C	-0.166099	-1.234635	-2.127214
N	0.115555	-2.23568	-2.671218
N	-1.968931	0.098769	-1.446397
H	-2.308601	0.119446	-2.400315
H	-2.250008	0.955684	-0.986809
C	-0.492219	1.182843	0.827901
H	-1.558979	1.126522	1.064731
H	0.057188	1.194141	1.769654
H	-0.281889	2.128527	0.324204
Cl	3.495866	0.0	0.0
