15

C	-0.317198	-0.065678	-1.487743
C	0.0	0.0	0.0
Cl	-2.063951	-0.580941	-1.746983
H	1.097106	0.0	0.0
H	-0.319733	-0.957849	0.419916
C	-0.247683	1.265669	-2.121581
N	-0.159763	2.320012	-2.634334
N	0.541398	-1.03565	-2.095488
H	0.561338	-0.940236	-3.102693
H	1.484011	-0.924908	-1.717792
C	-0.597422	1.174737	0.748046
H	-0.203012	2.12105	0.372296
H	-0.33156	1.105455	1.804964
H	-1.688294	1.193947	0.668144
Cl	3.429967	0.0	0.0
