15

C	-0.534805	-0.005966	-1.422157
C	0.0	0.0	0.0
Cl	0.121432	1.405269	-2.322233
H	1.092982	0.0	0.0
H	-0.337666	0.941333	0.444232
C	-0.104351	-1.213013	-2.155638
N	0.134593	-2.219506	-2.71361
N	-1.98269	0.126058	-1.433235
H	-2.324184	0.063853	-2.386282
H	-2.37602	-0.646936	-0.908204
C	-0.484591	-1.192071	0.823963
H	0.026076	-1.175629	1.788155
H	-0.224664	-2.138361	0.342566
H	-1.562085	-1.176958	1.020151
Cl	3.493004	0.0	0.0
