13

C	0.0	0.0	0.0
C	-0.560502	-0.184325	-1.404978
Cl	1.779302	0.0	0.0
H	-1.644486	-0.313923	-1.245929
H	-0.334012	-0.808431	0.647407
H	-0.353199	0.945583	0.407667
C	-0.03485	-1.394567	-2.035242
N	0.384729	-2.349536	-2.575574
C	-0.342978	1.03682	-2.296149
H	0.717113	1.278581	-2.398502
H	-0.869756	1.885066	-1.854006
H	-0.760594	0.862965	-3.28989
Br	-3.685031	0.0	0.0
