13

C	0.0	0.0	0.0
C	-0.560448	-0.174208	-1.40701
Cl	1.779115	0.0	0.0
H	-1.644787	-0.30525	-1.250549
H	-0.333022	-0.813028	0.642002
H	-0.352346	0.942862	0.414718
C	-0.032643	-1.378557	-2.046607
N	0.388741	-2.328021	-2.595285
C	-0.343437	1.054547	-2.288437
H	0.716041	1.301612	-2.383515
H	-0.876789	1.896716	-1.843047
H	-0.754746	0.885578	-3.285564
Br	-3.683988	0.0	0.0
