12
Coordinates from ORCA-job run
  C   -0.71811759023902      0.37470299216288      0.00756500253491
  C   0.57149056826659      0.51963033616086      0.35243868905341
  H   0.81872536847632      1.47909123570509      0.80337001190404
  N   -1.23922313145620     -0.84626754726200     -0.63803425487436
  O   -2.08646561466603     -0.67667999960837     -1.50962280544909
  O   -0.78734531745197     -1.92239948625375     -0.25859633383920
  C   -1.69738195983311      1.40123975718019      0.17537142295392
  N   -2.48791165044166      2.25455450643605      0.34435672395444
  C   1.68491919456768     -0.46107770499349      0.19366860758855
  H   2.59262615329734      0.06381396852615     -0.10911252327741
  H   1.45943153228906     -1.24908286996340     -0.52027370103517
  H   1.89025244719101     -0.93752518809021      1.15786916048595
