12
Coordinates from ORCA-job run
  C   -0.68697893561940     -0.08270364776356     -0.01701275322490
  C   0.59159049181433     -0.48124084305123      0.00528190466353
  H   0.76251265101869     -1.55468355213899     -0.00280222551339
  N   -1.78304945073029     -1.08219931649210     -0.05745805978518
  O   -2.92184289956757     -0.62860780920231     -0.11597609555259
  O   -1.47364413299560     -2.26540539232884     -0.03242261553544
  C   -1.11363805509579      1.27970266222901     -0.00821240358742
  N   -1.39319718182370      2.42178183943694      0.00395448837510
  C   1.76621977744439      0.43369871699642      0.04636510518518
  H   2.34082378972665      0.25632099523757      0.96057740621949
  H   2.43350827180405      0.21890198817489     -0.79315661099488
  H   1.47769567402425      1.48443435890219      0.01086185975050
