12
Coordinates from ORCA-job run
  C   -0.68992133725968     -0.04197088562858     -0.03358852726118
  C   0.56299724356047     -0.51418426636869      0.00786596082863
  H   0.67180720751663     -1.59534836382490     -0.02603095737567
  N   -1.84037700500078     -0.97589783646240     -0.11554108981720
  O   -1.59690712441981     -2.17367735200245     -0.16498165466130
  O   -2.95324448081239     -0.45867633528121     -0.12387201260787
  C   -1.03961516335484      1.34180783605778      0.00027332332222
  N   -1.25596888516835      2.49735368774872      0.02924988382228
  C   1.78746051793487      0.32958909640843      0.09085311520742
  H   1.55855794251608      1.39486304298517      0.12196374023405
  H   2.43294440602914      0.13150977192895     -0.76974324166216
  H   2.36126667845867      0.06463160443919      0.98355145997079
