12
Coordinates from ORCA-job run
  C   -0.72416331438193      0.36313321163696      0.03345247875650
  C   0.57069550105378      0.50783113011369      0.35849820638206
  H   0.81871643862689      1.45755702240072      0.82953079198234
  N   -1.24970637087820     -0.84064443722669     -0.63873560087791
  O   -2.09930975303416     -0.64754582365345     -1.50313538202255
  O   -0.79743429493156     -1.92625043373948     -0.28782605855048
  C   -1.70201980866873      1.38233183439017      0.24967146193525
  N   -2.48198201196491      2.23529575359683      0.46467362973595
  C   1.69136805972941     -0.45362511553116      0.14698329648981
  H   2.57076388826599      0.08789776434351     -0.20803617156353
  H   1.44552297776500     -1.25126647464479     -0.54884742969725
  H   1.95854868841841     -0.91571443168631      1.10277077742982
