12
Coordinates from ORCA-job run
  C   -0.69304554364476      0.35811499406409     -0.22244641119539
  C   0.62931833068865      0.34430724412474     -0.45878372754469
  H   0.95921309236559      1.03529616051771     -1.23217645001473
  N   -1.33367168422666     -0.52686436484849      0.76898323959452
  O   -2.47413866134944     -0.89815823861567      0.50876458294814
  O   -0.67869188382176     -0.82510098912244      1.76324338254074
  C   -1.60809673111603      1.18671696953827     -0.94195403372509
  N   -2.32775954881829      1.89550048010056     -1.54333605761838
  C   1.67428330440246     -0.49143776581544      0.20457965573747
  H   2.02657024501828      0.00749787995039      1.11248040690296
  H   2.52590361987429     -0.61816427757938     -0.46442905738762
  H   1.29911546062767     -1.46770809231433      0.50707446976205
