12
Coordinates from ORCA-job run
  C   -0.68595567079702     -0.09125119533118     -0.01370171003685
  C   0.59877452335121     -0.46984660063932     -0.04057658365113
  H   0.78514003933560     -1.53574028790317     -0.14460365649518
  N   -1.76690254171698     -1.10280762613033     -0.12103142258781
  O   -2.91430547531376     -0.66923930330435     -0.08201677332084
  O   -1.43746246544470     -2.27479812664001     -0.23962021332787
  C   -1.13427642218586      1.25794179361120      0.11480225169810
  N   -1.43414710536131      2.38991012637872      0.22243476650042
  C   1.76081937178269      0.45659021196514      0.05817373355003
  H   1.45676847388073      1.49805291012386      0.16310888343693
  H   2.38316413042691      0.18132988186397      0.91449965834000
  H   2.38838314204249      0.35885821600548     -0.83246893410577
