12
Coordinates from ORCA-job run
  C   -0.69043422009219     -0.04347433101196     -0.02217705752473
  C   0.56396945731650     -0.51315626347013     -0.00133209702848
  H   0.67478385871542     -1.59422338040237     -0.02774334848695
  N   -1.84066831614815     -0.98021847160619     -0.07075747818224
  O   -1.59547429810516     -2.17674786899380     -0.13890953095922
  O   -2.95440815202028     -0.46617304770672     -0.03646789602036
  C   -1.04158935154015      1.33997374854226      0.00792135985120
  N   -1.25792410096661      2.49551274722236      0.03472215878253
  C   1.78786792908294      0.33382941488043      0.05327503630590
  H   2.37950411873403      0.07445330201349      0.93590501070122
  H   1.55767632058140      1.39884391163080      0.08345205330869
  H   2.41669675444226      0.13238023890182     -0.81888821074756
