12
Coordinates from ORCA-job run
  C   -0.68554713943581     -0.08260637104708     -0.03095802376189
  C   0.59214684218525     -0.48078819193403      0.02919625288164
  H   0.76173545985982     -1.55436622789210      0.04339455135010
  N   -1.78102212082499     -1.08320863547954     -0.07464767600757
  O   -2.91951996468797     -0.63088908299056     -0.14672409995504
  O   -1.47137140210638     -2.26603593559157     -0.03713264335459
  C   -1.11383021262527      1.27911886147775     -0.05794836980726
  N   -1.39839202941648      2.41990070202303     -0.07696857940281
  C   1.76612381896438      0.43429500979606      0.07717296820740
  H   2.32581924511140      0.27109536084677      1.00299811222633
  H   1.47855950406047      1.48424618908646      0.02067803195732
  H   2.44729799891558      0.20823832170482     -0.74806052433362
