12
Coordinates from ORCA-job run
  C   -0.68294045213218     -0.07068090395457     -0.08583466276526
  C   0.55125592852026     -0.45372108633095      0.26741475889048
  H   0.64342431892604     -1.45366556305402      0.68409868824403
  N   -1.83286014210376     -0.99124709498275      0.09386953700549
  O   -2.92646774055841     -0.56026814752004     -0.25871866719896
  O   -1.60759340028455     -2.09464603756336      0.57132930002869
  C   -1.01065952294959      1.19928377649390     -0.64913897105842
  N   -1.21032881320802      2.26366428273032     -1.10768946949968
  C   1.77231531794004      0.38882162124053      0.13799094838492
  H   1.56249825653842      1.36489860063395     -0.29907816218847
  H   2.22673127058492      0.53108576223871      1.12284814078097
  H   2.51662497872684     -0.12552520993171     -0.47709144062377
