12
Coordinates from ORCA-job run
  C   -0.68556183619048      0.43113042971670     -0.04440029962997
  C   0.65045306455908      0.53154677694985     -0.14141299106675
  H   1.01664633472532      1.53713295564191     -0.33904514496494
  N   -1.36898828616974     -0.84403119725928      0.24586101002030
  O   -0.84606317644876     -1.87121492123100     -0.17583313783983
  O   -2.40725333081585     -0.76797272803503      0.89581678626239
  C   -1.56560460203622      1.55076178624033     -0.16090949139128
  N   -2.25886259563571      2.49275475175806     -0.27929116938758
  C   1.66681478353256     -0.55498797806290     -0.01174346001645
  H   2.62060131025800     -0.13236905103076      0.30536840385097
  H   1.36150008270154     -1.33240221120990      0.68659793632762
  H   1.81631825152026     -1.04034861347797     -0.98100844216448
