12
Coordinates from ORCA-job run
  C   -0.67963396637608     -0.07477821930547     -0.10233996502719
  C   0.56521728504826     -0.46987812165162      0.19706980877586
  H   0.68390110867408     -1.52002502298548      0.45046274829065
  N   -1.79595267200844     -1.05364259701651     -0.08633359182608
  O   -2.89158908217331     -0.62385285127704     -0.43404573131016
  O   -1.54394112696614     -2.19877535134628      0.26172716969972
  C   -1.05341159010374      1.25950445122737     -0.44560618331881
  N   -1.29748531178517      2.38168465915449     -0.69892359529020
  C   1.76146803355089      0.41708556875322      0.20828147691934
  H   1.51526847102319      1.45216958919469     -0.02917325347577
  H   2.49941558096331      0.05383379865655     -0.51304429387028
  H   2.23774327015314      0.37767409659608      1.19292541043291
