12
Coordinates from ORCA-job run
  C   -0.69969072080074      0.23569592759177     -0.33625546068816
  C   0.57882441806227      0.60569960107016     -0.15459391321516
  H   0.83634736802708      1.57362584510859     -0.58011091393149
  N   -1.24373508495258     -1.03102011011632      0.18950421978124
  O   -0.47810328032377     -1.98801267199368      0.25461183117887
  O   -2.42397871424119     -1.01708392414940      0.52583044338291
  C   -1.66304097778024      1.04966043139254     -1.00770820922758
  N   -2.42292872348118      1.73964952256494     -1.58075352522179
  C   1.66255094900450     -0.14414877434832      0.54831457908605
  H   2.41529999201829      0.55347002597015      0.91646946889253
  H   1.28743433346277     -0.74591482559442      1.37435052307431
  H   2.15002044100479     -0.83162104749601     -0.14965904311172
