12
Coordinates from ORCA-job run
  C   -0.68707604296191      0.42736662919084     -0.05650473279998
  C   0.65078867138737      0.54740169262077     -0.04559388301421
  H   1.01483260259623      1.56980748728738     -0.12633049298056
  N   -1.37069533676826     -0.87418144431376      0.06866956966798
  O   -0.80308645197030     -1.85525262601762     -0.40213894761814
  O   -2.45468443857944     -0.86511905294697      0.64412710556944
  C   -1.57274821850096      1.54566247083218     -0.13831807260681
  N   -2.26918534434308      2.48883751266217     -0.22417561650298
  C   1.67148817812102     -0.53747165697196      0.06233874439409
  H   1.89969297502022     -0.93161233673543     -0.93274155118186
  H   1.32724614804613     -1.37735961310754      0.66352171873565
  H   2.59242725795297     -0.13707906250008      0.48714615833739
