12
Coordinates from ORCA-job run
  C   -0.71377394202628      0.27709985583298     -0.26751521326715
  C   0.61354615636848      0.43765715321929     -0.39756935384509
  H   0.91024725438666      1.19440272005643     -1.12115616172649
  N   -1.30968136125673     -0.71779734885410      0.64501449391905
  O   -0.69805892553394     -0.97058698820055      1.67861286606154
  O   -2.37186462437571     -1.21657932152508      0.28553480895446
  C   -1.67044820749403      1.01342580985340     -1.03187495476489
  N   -2.42756492973982      1.65047887005162     -1.66662579226460
  C   1.70317585572038     -0.28725063193330      0.32198263283142
  H   1.91921247303234      0.21485044894491      1.26991208653727
  H   1.43415187745678     -1.31430794669146      0.56292451919176
  H   2.61205837346188     -0.27939262075414     -0.28023993162727
