12
Coordinates from ORCA-job run
  C   -0.66733772439569      0.26262327303906     -0.37957104071060
  C   0.67378167447065      0.33470248420553     -0.39946084296641
  H   1.08321003291766      0.94349074696999     -1.20335660191976
  N   -1.40568825398322     -0.53579037953574      0.61798576631880
  O   -2.45713007427179     -1.04176186786711      0.23912744533573
  O   -0.91091555856270     -0.63352009224529      1.73699000514963
  C   -1.50121408789502      0.90323430821705     -1.34685642941535
  N   -2.15421823828849      1.45711253495258     -2.15225636131120
  C   1.64375517446740     -0.31023258527470      0.53469211245452
  H   1.80232723286170      0.33292011005060      1.40586079557298
  H   1.28961442189250     -1.26868299770645      0.91102850110584
  H   2.60381540078700     -0.44509553480552      0.03581665038582
