12
Coordinates from ORCA-job run
  C   -0.68373584414563     -0.07772053877147     -0.07567653810263
  C   0.57066461476969     -0.47240976479465      0.18018084112314
  H   0.70543370032738     -1.52317989344687      0.42419454671546
  N   -1.80168040652959     -1.05194582878222     -0.01950598657791
  O   -1.53089137231419     -2.21089295635178      0.26270881469729
  O   -2.91761105041849     -0.60424802754912     -0.26497035410121
  C   -1.06354130746044      1.25631363533204     -0.41362384552518
  N   -1.30614607764300      2.37415315235190     -0.68635025691986
  C   1.76485743860271      0.41726187517375      0.14996139621333
  H   1.51254720056020      1.44649168225558     -0.10549461477253
  H   2.48922563883998      0.03888440437597     -0.57727255976019
  H   2.26087746541138      0.40629226020689      1.12484855701029
