12
Coordinates from ORCA-job run
  C   -0.68368566669461     -0.08447166413195     -0.08268037607776
  C   0.56907125615837     -0.46683962286923      0.19911463072737
  H   0.69907420882948     -1.50449371273122      0.49286925368279
  N   -1.80222909832749     -1.05505053109123      0.01473018572865
  O   -2.90479708209358     -0.64111575895880     -0.33073469869565
  O   -1.54443536228335     -2.17904533156840      0.42315644554200
  C   -1.06242155629039      1.23975126359615     -0.46077510770780
  N   -1.28175189204492      2.36036717289254     -0.74111010452405
  C   1.76219855489461      0.42196176082913      0.13166621859073
  H   1.49394329592448      1.46487776372517     -0.04181772738617
  H   2.32570770215909      0.35550471580792      1.06610729026729
  H   2.42932563976832      0.08955394449992     -0.66952601014738
