12
Coordinates from ORCA-job run
  C   -0.66333570509692     -0.12237880963226     -0.15407266562707
  C   0.51230205470353     -0.34435151260320      0.44857603111606
  H   0.55583428130909     -1.19710008315622      1.12131319249961
  N   -1.82210322091533     -1.01023610871874      0.11345886092450
  O   -1.64782450093775     -1.96133686060156      0.86266282308726
  O   -2.87151210764743     -0.70746490033386     -0.44619600544359
  C   -0.92038481667721      0.94364629126798     -1.06831441768286
  N   -1.06107420632084      1.84080889929774     -1.81547577148004
  C   1.73411429449386      0.48619315534113      0.25945735988051
  H   1.59274168642589      1.27304729789823     -0.48161885232810
  H   2.57045412980161     -0.14709379988154     -0.04925340411222
  H   2.01978811086151      0.94626643112229      1.21046284916592
