12
Coordinates from ORCA-job run
  C   -0.67580647033345      0.32926903507193     -0.29967947065691
  C   0.64877562198729      0.22421688080440     -0.50345639526239
  H   1.01396418516988      0.77468986506632     -1.36827087572904
  N   -1.36808967946611     -0.31755358843410      0.83122967365682
  O   -0.83693051193920     -1.30680404734298      1.32592939041595
  O   -2.42427346697995      0.19506965087996      1.18812307613848
  C   -1.52999551185484      1.10990675310540     -1.13922525863056
  N   -2.19565106273571      1.74937368101887     -1.86681286233638
  C   1.65076280449135     -0.53501230055663      0.30463977779202
  H   1.49400386159810     -0.40551720811304      1.37572336067253
  H   2.65866626847630     -0.21236442647701      0.04447666659875
  H   1.56357396158631     -1.60627429502311      0.10632291734072
