18

C	-0.363459	0.070271	-1.48971
C	0.0	0.0	0.0
F	-0.053632	-1.222974	-1.99148
H	1.087194	0.0	0.0
C	-1.815248	0.326114	-1.82988
H	-1.926482	0.329979	-2.918822
H	-2.120456	1.300172	-1.44608
H	-2.44441	-0.455839	-1.410152
N	0.494826	1.046038	-2.043187
H	1.447297	0.896514	-1.696213
H	0.473069	0.987983	-3.054471
N	-0.506669	-1.176986	0.72964
O	-1.392142	-1.886141	0.24684
O	0.033696	-1.367576	1.819821
N	-0.475583	1.191207	0.73014
O	-1.495566	1.080905	1.423843
O	0.172139	2.224202	0.58341
H	2.59957	0.0	0.0
