18

C	-0.485308	-0.055566	-1.451224
C	0.0	0.0	0.0
F	-0.106819	1.156483	-2.029997
H	1.087852	0.0	0.0
C	0.276141	-1.125195	-2.215455
H	1.345486	-1.011528	-2.015899
H	0.084839	-0.98498	-3.284014
H	-0.050419	-2.118033	-1.910107
N	-1.92339	-0.094575	-1.52493
H	-2.191555	-0.279024	-2.486033
H	-2.243234	-0.868431	-0.955136
N	-0.378076	-1.13243	0.821173
O	0.04719	-1.105714	1.983084
O	-0.963124	-2.111142	0.313044
N	-0.466868	1.236561	0.672212
O	-1.478619	1.173939	1.373731
O	0.186553	2.253326	0.453932
H	2.489646	0.0	0.0
