18

C	-0.336205	-0.003683	-1.513484
C	0.0	0.0	0.0
F	-0.110265	-1.329907	-1.893065
H	1.090812	0.0	0.0
C	-1.762768	0.350138	-1.869874
H	-1.983931	1.377607	-1.577305
H	-1.869423	0.256298	-2.952098
H	-2.446256	-0.330732	-1.366764
N	0.601121	0.790001	-2.249986
H	0.403308	1.762102	-2.044595
H	1.527115	0.601982	-1.853008
N	-0.486277	-1.185033	0.746867
O	0.24669	-1.608657	1.637908
O	-1.581068	-1.667759	0.444099
N	-0.457586	1.179474	0.690838
O	-0.276915	2.264272	0.108102
O	-0.904482	1.077816	1.844144
H	2.496848	0.0	0.0
