18

C	-0.487743	0.0196	-1.465775
C	0.0	0.0	0.0
F	-0.282832	1.353565	-1.844342
H	1.087049	0.0	0.0
C	0.40477	-0.836114	-2.337908
H	0.246867	-1.892553	-2.127576
H	1.448094	-0.588825	-2.123484
H	0.159494	-0.620066	-3.379119
N	-1.8778	-0.259094	-1.698397
H	-2.0224	-1.249124	-1.526118
H	-2.423684	0.259812	-1.016887
N	-0.425775	-1.136829	0.757916
O	-0.633098	-2.206034	0.146264
O	-0.392271	-1.041089	1.996259
N	-0.473101	1.216688	0.72072
O	-1.694406	1.398121	0.749003
O	0.354158	1.962344	1.227499
H	2.476296	0.0	0.0
