18

C	-0.492927	-0.02978	-1.448736
C	0.0	0.0	0.0
F	-0.090108	1.174174	-2.02511
H	1.087882	0.0	0.0
C	0.238312	-1.116457	-2.21864
H	0.0488	-0.968349	-3.286149
H	-0.113687	-2.10108	-1.916719
H	1.311026	-1.032416	-2.021283
N	-1.932979	-0.032603	-1.511683
H	-2.213223	-0.174682	-2.476777
H	-2.26518	-0.819968	-0.967381
N	-0.379433	-1.149443	0.800043
O	-1.021862	-2.091427	0.292449
O	0.085557	-1.166241	1.946114
N	-0.463234	1.220448	0.702308
O	-1.442188	1.134796	1.447281
O	0.16307	2.249986	0.464476
H	2.489244	0.0	0.0
