12

C	0.0	0.0	0.0
C	-0.31154	-0.160438	-1.509234
Cl	1.755073	0.0	0.0
H	-0.100351	0.817056	-1.949422
H	-0.414444	-0.756938	0.655457
H	0.452906	-0.838809	-1.895591
N	-0.412196	1.337176	0.565172
O	-0.489763	2.284838	-0.203931
O	-0.521501	1.378535	1.78286
C	-1.558937	-0.656443	-2.10696
N	-2.211822	-1.113233	-2.976572
Cl	-3.097013	0.0	0.0
