12

C	0.0	0.0	0.0
C	-0.563274	-0.337949	-1.36581
Cl	1.7603	0.0	0.0
H	-1.647606	-0.140219	-1.309809
H	-0.376608	-0.676336	0.76239
H	-0.440201	-1.414075	-1.516775
N	-0.412868	1.382973	0.450576
O	-0.458166	1.552798	1.662633
O	-0.59916	2.225821	-0.416419
C	0.072636	0.358033	-2.476935
N	0.593297	0.854187	-3.403825
Cl	-3.448875	0.0	0.0
