12

C	0.0	0.0	0.0
C	-0.580296	0.043882	-1.396936
Cl	1.749569	0.0	0.0
H	-0.25509	0.95768	-1.89755
H	-0.373163	-0.839697	0.581209
H	-1.677645	0.062097	-1.262187
N	-0.408542	1.240378	0.769839
O	-0.527024	1.106673	1.980607
O	-0.497877	2.285986	0.139138
C	-0.177432	-1.122619	-2.169119
N	0.138894	-2.056761	-2.806675
Cl	-3.494842	0.0	0.0
