12

C	0.0	0.0	0.0
C	-0.280279	0.284028	-1.489967
Cl	1.752549	0.0	0.0
H	0.157098	1.267121	-1.68139
H	-0.412628	-0.917566	0.404229
H	0.339093	-0.43511	-2.034509
N	-0.417358	1.115016	0.923871
O	-0.480106	2.243936	0.455806
O	-0.541349	0.804072	2.100609
C	-1.577098	0.257424	-2.175231
N	-2.251574	0.283773	-3.141683
Cl	-3.097568	0.0	0.0
