17

C	-0.386765	0.023745	-1.48831
C	0.0	0.0	0.0
F	-0.014716	-1.203054	-2.035405
H	1.096991	0.0	0.0
C	-1.853286	0.122686	-1.658395
N	-3.017523	0.200187	-1.795622
C	0.345023	1.116995	-2.240286
H	1.414318	0.989119	-2.051681
H	0.031568	2.101494	-1.887835
H	0.134657	1.031119	-3.308351
C	-0.519008	-1.233056	0.735136
H	-1.612171	-1.272254	0.739574
H	-0.124027	-2.126575	0.252808
H	-0.160768	-1.215286	1.765597
C	-0.470671	1.230716	0.628155
N	-0.884485	2.206481	1.135783
Br	3.481828	0.0	0.0
