17

C	-0.482224	-0.091522	-1.454049
C	0.0	0.0	0.0
F	0.047566	0.982298	-2.157105
H	1.096135	0.0	0.0
C	0.018018	-1.335109	-2.074596
N	0.308859	-2.351527	-2.585526
C	-1.993649	-0.032403	-1.619673
H	-2.366768	0.886478	-1.164044
H	-2.235339	-0.026878	-2.684192
H	-2.475095	-0.893344	-1.153754
C	-0.441276	-1.190592	0.8573
H	0.022052	-1.099503	1.840764
H	-0.080574	-2.119275	0.410228
H	-1.525753	-1.240814	0.983584
C	-0.485262	1.252297	0.573426
N	-0.941167	2.232887	1.033062
Br	3.446969	0.0	0.0
