17

C	-0.388147	0.015794	-1.487595
C	0.0	0.0	0.0
F	-0.008468	-1.210031	-2.031213
H	1.096964	0.0	0.0
C	-1.855743	0.103757	-1.655698
N	-3.020558	0.171891	-1.79189
C	0.334016	1.11192	-2.244808
H	1.40438	0.99333	-2.057246
H	0.012699	2.095148	-1.896071
H	0.123326	1.019592	-3.312135
C	-0.516756	-1.230711	0.741169
H	-1.60989	-1.269418	0.749998
H	-0.15395	-1.20984	1.770061
H	-0.123813	-2.125781	0.259808
C	-0.472398	1.232472	0.623329
N	-0.889007	2.209271	1.126614
Br	3.480639	0.0	0.0
