17

C	-0.387308	0.023517	-1.488167
C	0.0	0.0	0.0
F	-0.017751	-1.203982	-2.034888
H	1.096985	0.0	0.0
C	-1.85364	0.124985	-1.657833
N	-3.017607	0.205548	-1.795206
C	0.345317	1.115552	-2.240867
H	1.414468	0.986076	-2.053306
H	0.133389	1.02996	-3.308638
H	0.034089	2.100444	-1.887956
C	-0.519037	-1.232925	0.735596
H	-0.160841	-1.214707	1.766038
H	-0.12372	-2.126376	0.253418
H	-1.61214	-1.272337	0.739822
C	-0.470535	1.230912	0.628015
N	-0.884104	2.206934	1.135365
Br	3.481347	0.0	0.0
