17

C	-0.399597	-0.090339	-1.478116
C	0.0	0.0	0.0
F	-1.777991	-0.341766	-1.578103
H	1.096756	0.0	0.0
C	-0.172915	1.198168	-2.160443
N	-0.022467	2.21956	-2.71921
C	0.3512	-1.19476	-2.197677
H	1.425033	-1.057469	-2.045671
H	0.112144	-1.171799	-3.262409
H	0.049683	-2.161309	-1.792733
C	-0.449066	-1.227034	0.801733
H	0.066435	-2.118327	0.442495
H	-0.165155	-1.087181	1.845711
H	-1.528754	-1.374046	0.740503
C	-0.527403	1.215637	0.611947
N	-0.973482	2.165413	1.140455
Br	3.453465	0.0	0.0
