17

C	-0.403015	-0.106441	-1.475947
C	0.0	0.0	0.0
F	-1.778551	-0.377119	-1.569368
H	1.096755	0.0	0.0
C	-0.197409	1.179095	-2.1702
N	-0.076251	2.18519	-2.763773
C	0.359678	-1.207283	-2.18961
H	0.066065	-2.174419	-1.778209
H	1.432902	-1.06018	-2.038979
H	0.118666	-1.193152	-3.254313
C	-0.445803	-1.219036	0.815756
H	-0.150884	-1.071735	1.856342
H	-1.526904	-1.362812	0.766205
H	0.063548	-2.114759	0.458304
C	-0.527869	1.220368	0.602355
N	-0.982412	2.168203	1.126923
Br	3.453452	0.0	0.0
