17

C	-0.397444	-0.099385	-1.478254
C	0.0	0.0	0.0
F	-1.774867	-0.355497	-1.580069
H	1.096857	0.0	0.0
C	-0.170467	1.185662	-2.167082
N	-0.002654	2.209986	-2.716288
C	0.359184	-1.205294	-2.189381
H	1.43191	-1.064276	-2.034327
H	0.124083	-1.189815	-3.255296
H	0.058892	-2.170032	-1.779765
C	-0.453167	-1.218734	0.811264
H	0.057359	-2.114912	0.457431
H	-0.166811	-1.07279	1.854206
H	-1.533818	-1.361098	0.753029
C	-0.51176	1.225534	0.605116
N	-0.928257	2.191583	1.128253
Br	3.453528	0.0	0.0
