17

C	0.0	0.0	0.0
C	-0.437306	0.306387	-1.420235
F	1.417026	0.0	0.0
H	0.111625	-0.410118	-2.051561
H	-0.300696	0.790365	0.693244
N	-0.48896	-1.238933	0.480778
H	-0.176199	-1.999315	-0.109769
H	-0.191222	-1.407572	1.432349
C	0.006049	1.717221	-1.805238
H	-0.551068	2.458158	-1.220037
H	1.073065	1.868181	-1.62905
H	-0.203459	1.913687	-2.859427
C	-1.935273	0.114352	-1.631181
H	-2.539487	0.793398	-1.025816
H	-2.173258	0.294237	-2.684582
H	-2.261811	-0.889462	-1.367989
Br	-5.64814	0.0	0.0
