17

C	0.0	0.0	0.0
C	-0.516865	-0.209022	-1.410034
F	1.419481	0.0	0.0
H	-1.60194	-0.071744	-1.317539
H	-0.301104	0.986242	0.362025
N	-0.472987	-0.986046	0.900712
H	-0.328855	-0.715868	1.862883
H	-0.024654	-1.874134	0.725871
C	-0.247849	-1.624763	-1.910889
H	-0.819007	-2.353767	-1.333141
H	0.818489	-1.868297	-1.855002
H	-0.561531	-1.72078	-2.954357
C	0.063296	0.837825	-2.354687
H	-0.123136	1.849099	-1.981665
H	-0.401328	0.759528	-3.341194
H	1.143412	0.709796	-2.468307
Br	-4.274153	0.0	0.0
