17

C	0.0	0.0	0.0
C	-0.404706	-0.260222	-1.467844
F	1.390259	0.0	0.0
H	0.501959	-0.691143	-1.909126
H	-0.280182	1.01751	0.304425
N	-0.460936	-1.016369	0.900954
H	-1.469915	-1.101265	0.79626
H	-0.290378	-0.713426	1.853998
C	-0.699232	1.070163	-2.159015
H	-1.621014	1.50359	-1.758886
H	-0.835385	0.927423	-3.235162
H	0.122794	1.779812	-2.012395
C	-1.545864	-1.249242	-1.677236
H	-1.308581	-2.224864	-1.246923
H	-2.484384	-0.889554	-1.249032
H	-1.713347	-1.387237	-2.750203
Br	-4.554073	0.0	0.0
