17

C	0.0	0.0	0.0
C	-0.472152	-0.168468	-1.436537
F	1.396339	0.0	0.0
H	-1.56569	-0.161764	-1.394083
H	-0.279971	0.999993	0.361037
N	-0.480802	-1.061845	0.834593
H	-1.487789	-1.1195	0.666596
H	-0.378904	-0.784183	1.804695
C	0.008505	-1.493364	-2.019906
H	-0.379773	-1.621754	-3.034889
H	1.100949	-1.522716	-2.061316
H	-0.330037	-2.33351	-1.412467
C	-0.009203	1.012327	-2.284374
H	1.082453	1.086013	-2.288118
H	-0.420004	1.95085	-1.900955
H	-0.349949	0.899504	-3.31788
Br	-3.864419	0.0	0.0
