16

C	-0.420481	-0.042913	-1.470298
C	0.0	0.0	0.0
Cl	-0.073901	1.539938	-2.272522
H	1.094662	0.0	0.0
H	-0.312068	-0.963951	0.423237
C	0.367684	-1.120421	-2.207291
H	0.133119	-2.096877	-1.774019
H	0.122329	-1.129772	-3.270724
H	1.431724	-0.918734	-2.061754
C	-1.865676	-0.262253	-1.599505
N	-3.018186	-0.481086	-1.674409
C	-0.582003	1.138361	0.820152
H	-0.268438	1.028017	1.860628
H	-0.213415	2.101416	0.466148
H	-1.676618	1.148531	0.790656
Cl	3.510678	0.0	0.0
