16

C	-0.548437	0.054864	-1.424279
C	0.0	0.0	0.0
Cl	0.174436	-1.296144	-2.374501
H	1.093538	0.0	0.0
H	-0.319891	-0.960686	0.420477
C	-2.066119	-0.108773	-1.486604
H	-2.408113	-0.138436	-2.522357
H	-2.343036	-1.043799	-0.995521
H	-2.55658	0.72374	-0.978334
C	-0.187886	1.310705	-2.089218
N	0.040286	2.347313	-2.592612
C	-0.484319	1.155801	0.872349
H	-1.565376	1.1509	1.042202
H	-0.201867	2.11737	0.43625
H	0.011704	1.08853	1.842679
Cl	3.509331	0.0	0.0
