16

C	-0.417157	-0.068563	-1.470582
C	0.0	0.0	0.0
Cl	-0.061057	1.499953	-2.298346
H	1.094673	0.0	0.0
H	-0.31289	-0.956584	0.439076
C	0.37157	-1.159701	-2.186191
H	0.133165	-2.128146	-1.737777
H	0.1303	-1.186698	-3.250386
H	1.435404	-0.95815	-2.039345
C	-1.862566	-0.283215	-1.601815
N	-3.016641	-0.493362	-1.68002
C	-0.582842	1.153178	0.798497
H	-1.677388	1.164134	0.766619
H	-0.271553	1.06122	1.841322
H	-0.21263	2.109249	0.428068
Cl	3.506624	0.0	0.0
