16

C	-0.365912	0.116644	-1.481384
C	0.0	0.0	0.0
Cl	-2.146388	0.466388	-1.703905
H	1.096033	0.0	0.0
H	-0.360909	-0.954346	0.392245
C	0.435122	1.206456	-2.18175
H	0.18616	2.178821	-1.754372
H	1.497416	1.005968	-2.011709
H	0.215018	1.224074	-3.250474
C	-0.147421	-1.170421	-2.148401
N	0.003256	-2.203969	-2.686286
C	-0.476225	1.153484	0.87381
H	-0.057993	1.022912	1.874923
H	-1.564874	1.197495	0.953994
H	-0.113775	2.113708	0.501748
Cl	3.473736	0.0	0.0
