16

C	-0.36523	0.12192	-1.481102
C	0.0	0.0	0.0
Cl	-2.145263	0.474636	-1.702799
H	1.096	0.0	0.0
H	-0.361022	-0.955762	0.388779
C	0.438354	1.212549	-2.177976
H	1.500561	1.010019	-2.007682
H	0.219133	1.233782	-3.246885
H	0.190202	2.18439	-1.748164
C	-0.147942	-1.163683	-2.151957
N	0.002352	-2.195544	-2.693399
C	-0.47707	1.150387	0.877293
H	-0.115042	2.11228	0.509016
H	-1.56559	1.193523	0.956187
H	-0.060151	1.016685	1.87811
Cl	3.473725	0.0	0.0
