18

C	-0.454881	-0.003116	-1.455846
C	0.0	0.0	0.0
Cl	-2.242532	0.020011	-1.613798
H	1.096105	0.0	0.0
N	0.08366	1.246332	-2.179837
O	1.109158	1.085124	-2.826312
O	-0.52589	2.293278	-2.010706
C	0.021326	-1.172338	-2.191301
N	0.3199	-2.155588	-2.761553
C	-0.443611	-1.285174	0.694945
H	-0.110157	-2.173142	0.153747
H	0.02615	-1.31397	1.680342
H	-1.529328	-1.329565	0.82182
C	-0.449361	1.23509	0.772989
H	-0.005139	2.147216	0.375589
H	-0.097484	1.124533	1.801382
H	-1.537108	1.346755	0.784763
Br	3.488253	0.0	0.0
