18

C	-0.370498	0.00495	-1.477426
C	0.0	0.0	0.0
Cl	0.425231	-1.310082	-2.369164
H	1.096389	0.0	0.0
N	-1.899408	-0.185414	-1.605686
O	-2.566392	0.838782	-1.491324
O	-2.343593	-1.321536	-1.67096
C	-0.05323	1.266265	-2.148296
N	0.220986	2.277485	-2.681853
C	-0.476926	-1.257659	0.712686
H	0.003708	-1.291703	1.693459
H	-1.564458	-1.264233	0.859206
H	-0.193794	-2.164412	0.176744
C	-0.463808	1.25878	0.722449
H	-1.555629	1.333358	0.779314
H	-0.064365	1.226178	1.739616
H	-0.074034	2.163886	0.252631
Br	3.252368	0.0	0.0
