18

C	-0.411358	-0.200187	-1.46157
C	0.0	0.0	0.0
Cl	0.408525	-1.583399	-2.189788
H	1.109796	0.0	0.0
N	-1.936405	-0.448111	-1.500617
O	-2.340347	-1.599973	-1.450809
O	-2.630409	0.565182	-1.480875
C	-0.165361	0.974482	-2.293807
N	0.020961	1.914086	-2.974283
C	-0.462628	-1.15353	0.883192
H	0.050326	-1.064858	1.843165
H	-0.200412	-2.122911	0.458383
H	-1.542769	-1.129236	1.063493
C	-0.453602	1.345735	0.556754
H	-0.08193	2.176908	-0.045273
H	-0.023541	1.452016	1.555647
H	-1.54205	1.424131	0.634238
Br	3.49904	0.0	0.0
