18

C	-0.405489	0.070615	-1.476525
C	0.0	0.0	0.0
Cl	0.456698	-1.127359	-2.444424
H	1.094742	0.0	0.0
N	-1.923449	-0.205727	-1.570772
O	-2.300877	-1.345865	-1.795798
O	-2.639492	0.757674	-1.309744
C	-0.193511	1.387324	-2.072705
N	-0.022772	2.440666	-2.56521
C	-0.46636	-1.300193	0.646401
H	0.023861	-1.38616	1.618416
H	-1.550526	-1.317235	0.802892
H	-0.182916	-2.17233	0.056165
C	-0.457011	1.216436	0.799037
H	-1.54437	1.26673	0.903336
H	-0.011531	1.142767	1.794104
H	-0.10146	2.147712	0.354141
Br	3.50573	0.0	0.0
