12

C	0.0	0.0	0.0
C	-0.234876	0.044759	-1.517304
F	1.377837	0.0	0.0
H	0.420134	-0.722493	-1.934151
H	-0.392877	0.87223	0.509288
H	-0.392849	-0.915851	0.431403
N	0.391603	1.334216	-2.034243
O	0.196861	2.36152	-1.396249
O	1.03509	1.248507	-3.07642
C	-1.511498	-0.082882	-2.226286
N	-2.195574	-0.20539	-3.178521
Cl	-3.073168	0.0	0.0
