12

C	0.0	0.0	0.0
C	-0.238815	0.05117	-1.519708
F	1.377703	0.0	0.0
H	0.314304	-0.788569	-1.948723
H	-0.386924	0.875321	0.509573
H	-0.39026	-0.916028	0.432663
N	0.538005	1.262382	-2.026195
O	0.361448	2.323726	-1.44207
O	1.264077	1.090399	-3.000412
C	-1.525684	0.130546	-2.216664
N	-2.219052	0.22568	-3.164756
Cl	-3.09082	0.0	0.0
