12

C	0.0	0.0	0.0
C	-0.320172	0.017591	-1.504899
F	1.377678	0.0	0.0
H	0.318208	-0.744517	-1.95171
H	-0.378883	-0.907269	0.464462
H	-0.372869	0.884345	0.508175
N	0.223457	1.319205	-2.077223
O	0.826087	1.235836	-3.142748
O	0.001743	2.351951	-1.458575
C	-1.637216	-0.111609	-2.154338
N	-2.299326	-0.072552	-3.133549
Cl	-3.04628	0.0	0.0
