12

C	0.0	0.0	0.0
C	-0.424278	-0.548889	-1.368542
F	1.374933	0.0	0.0
H	0.513922	-0.70456	-1.918426
H	-0.362439	-0.638522	0.800938
H	-0.370314	1.011046	0.129364
N	-1.13039	0.448513	-2.259088
O	-0.820131	1.622919	-2.108182
O	-1.817095	-0.005019	-3.162208
C	-1.107607	-1.836585	-1.348953
N	-1.406409	-2.972449	-1.388421
Cl	-3.036813	0.0	0.0
