14
Coordinates from ORCA-job run
  C   0.58972804335849     -0.36033293677425      0.29382810712930
  C   -0.57512404898377      0.39440899044763     -0.32856935473133
  Br  0.42776018775334     -0.36225165776576      2.25306202056584
  H   -0.37232786940908      0.44180975750812     -1.40646073075901
  H   0.53747260199453     -1.41782970119706      0.02150402291533
  H   -0.56320246491529      1.42545637112481      0.04050346261823
  C   1.94071703904104      0.21892316557609     -0.08412297044954
  H   2.06407750558933      0.17144828767051     -1.17081121565710
  H   2.75698215981463     -0.33540900996459      0.38095036461979
  H   2.01207578060866      1.26305194594563      0.22792439608979
  C   -1.94188837954008     -0.23824397505389     -0.09836352073540
  H   -2.71783094355151      0.31865526893926     -0.62858831791439
  H   -2.19891235731253     -0.24979598454816      0.96148085048534
  H   -1.96152725444777     -1.26889052190834     -0.46333711417686
