14
Coordinates from ORCA-job run
  C   0.65866780286394     -0.64938128599120      0.25757673970526
  C   -0.80316386467351     -0.31796322846085      0.52468812757528
  Br  1.40351067252806     -1.53706020389385      1.84545109227499
  H   -1.32148815837146     -1.23560310343555      0.81668586097972
  H   0.73131602773431     -1.40633842439684     -0.52767769156066
  H   -0.85986998743602      0.36183015971086      1.38124441651485
  C   1.52029975848730      0.55208696730661     -0.08417939956307
  H   1.18520233038966      1.00007683601825     -1.02336874405256
  H   2.56588286002074      0.26447063374387     -0.20106409376597
  H   1.45707116075897      1.30537369656820      0.70472497351817
  C   -1.49475133617337      0.29925927561061     -0.69054817815353
  H   -2.56552669645399      0.40526221398581     -0.50246434029239
  H   -1.37542196996698     -0.33175428455168     -1.57592943494343
  H   -1.10372859970764      1.29074074778575     -0.92513932823666
