13

C	-0.549339	0.004493	-1.418927
C	0.0	0.0	0.0
Br	0.255211	1.456951	-2.420312
H	1.091197	0.0	0.0
H	-0.312482	0.93606	0.474338
N	-0.198648	-1.301163	-2.157577
O	0.710554	-1.967983	-1.68895
O	-0.85552	-1.530537	-3.167008
C	-1.999667	0.152821	-1.464999
N	-3.164339	0.316473	-1.448989
C	-0.544713	-1.122568	0.754632
N	-0.995726	-2.01394	1.372049
Br	3.42474	0.0	0.0
