16
Coordinates from ORCA-job run
  C   -0.83684151935988      0.12369989728149     -0.00413680337490
  C   0.48478016421301     -0.07200618159945      0.00182282298714
  N   -1.49153745436116      1.38785624748269      0.32982235143567
  O   -2.36107013299685      1.75732391426189     -0.45581285252446
  O   -1.12185635236911      1.97605604521835      1.34223399023745
  N   -1.82740988960630     -0.89610717780293     -0.34576204355641
  O   -2.77594837404197     -0.99314463395528      0.42932962944885
  O   -1.63385247969378     -1.57033717689411     -1.35351903409495
  C   1.10251930142061     -1.39198339451426     -0.35942647931614
  H   1.97066425434864     -1.56461760108686      0.28115162227790
  H   1.45590834781524     -1.35660953442596     -1.39458000810903
  H   0.42021824732786     -2.23467830341002     -0.27275861195676
  C   1.45470540660329      1.01281733131056      0.37170589060460
  H   1.04728006310223      2.01705290368237      0.27813460748478
  H   1.77032486763261      0.87870656376736      1.41099080099442
  H   2.34311554996555      0.92497110068417     -0.25819588253815
