16
Coordinates from ORCA-job run
  C   -0.83973758945647      0.09355625239604     -0.04632808669065
  C   0.48648327085268     -0.05274553988433      0.02437654585323
  N   -1.55125404835751      1.35278389008012      0.17064720579520
  O   -1.12209201069989      2.35842282057210     -0.38791675016591
  O   -2.52628439619473      1.28816249257578      0.91542466307573
  N   -1.77991741604376     -0.98433670389676     -0.35078365708445
  O   -2.63056465648010     -0.72136987925807     -1.19745751859666
  O   -1.64290261855406     -2.05027836122813      0.24288420580825
  C   1.16023676979148     -1.37618064755353     -0.19748551674835
  H   0.55822981992417     -2.08723332456261     -0.75896213864038
  H   1.39345484921332     -1.83101918285217      0.77020863234770
  H   2.10424758976327     -1.21085944971564     -0.72206776529645
  C   1.40587295804714      1.09266206270033      0.33567949678547
  H   0.91593127370841      1.92740223247236      0.83182865556088
  H   2.22335755099033      0.73015282038205      0.96353150194807
  H   1.84393865349572      1.46988051777246     -0.59357947395169
