16
Coordinates from ORCA-job run
  C   -0.84070441832775      0.07156429965419      0.05915981832586
  C   0.48714894602812     -0.04226318973832     -0.03468215731825
  N   -1.79214400433086     -0.99251824033468     -0.25821983982840
  O   -1.56895134421565     -2.11477993280788      0.18710638927114
  O   -2.74115095758604     -0.66043412147072     -0.96462584312248
  N   -1.54293803587127      1.27802329289535      0.49498451477212
  O   -2.42009922977748      1.10435818027158      1.33777841877399
  O   -1.20161419124006      2.35040917450955      0.00402362558858
  C   1.15494861486117     -1.31115629534488     -0.47977028425804
  H   2.02628958788446     -1.05915941440676     -1.08891286849246
  H   0.50415839954144     -1.97616351947782     -1.04314833932047
  H   1.51094598244896     -1.86108631153773      0.39692992945876
  C   1.41447820760956      1.09100255848400      0.29706602045639
  H   2.30719176360224      0.68877069722346      0.78194081810659
  H   1.73260657517495      1.58302669377619     -0.62727977542296
  H   0.96983410419820      1.84940612830444      0.93764957300963
