16
Coordinates from ORCA-job run
  C   -0.83900510811162      0.10588434082133      0.02963143758758
  C   0.48581479589462     -0.05959214545838     -0.01972508915919
  N   -1.51373510285476      1.39936127926127      0.12863993826949
  O   -1.14153679923357      2.30023287946106     -0.61790090955181
  O   -2.40208189935505      1.46926201292962      0.97463993614808
  N   -1.81400534768662     -0.98338120972225     -0.00507808487437
  O   -2.74895328990642     -0.83197418361765     -0.78783840531382
  O   -1.62170443310567     -1.94996803535093      0.72721207685813
  C   1.12134581344960     -1.41707691290092     -0.10896188149461
  H   1.45681204446740     -1.72676167275857      0.88564412181722
  H   0.45591728394515     -2.18977598217126     -0.48767397073114
  H   2.00283563650649     -1.35534816158776     -0.75153931025231
  C   1.44242149803310      1.09702327859843      0.01307906198894
  H   1.01469958542427      2.01032305147620      0.42041541900681
  H   2.31862637528550      0.81555038913774      0.60213881707055
  H   1.78354894724758      1.31524107188208     -1.00368315736955
