16
Coordinates from ORCA-job run
  C   -0.83684519782551      0.12128651484483      0.03121086821234
  C   0.48436066184297     -0.07063986717575     -0.01847941382871
  N   -1.83816453626825     -0.88662257293407     -0.31447539280265
  O   -2.75788873828472     -1.01648808700095      0.48994312803735
  O   -1.68067309602769     -1.51988824291685     -1.35455102371305
  N   -1.48048506490237      1.36950128159101      0.43878959664278
  O   -2.37810462401499      1.76772162515044     -0.29982930037655
  O   -1.07570380108190      1.91781697721492      1.46009411229977
  C   1.09076739068289     -1.37323546200652     -0.45420418956155
  H   0.41250943854271     -2.22032854813000     -0.37981676541500
  H   1.40952158913737     -1.29458461125873     -1.49819826772593
  H   1.98015330540373     -1.57014247602471      0.14918440697754
  C   1.46577320872114      1.00116840094591      0.35878907297989
  H   2.32924289147238      0.94260711644717     -0.30815695349365
  H   1.82199051954198      0.82466976352781      1.37843541177422
  H   1.05354605306028      2.00715818772550      0.32326470999322
