12
Coordinates from ORCA-job run
  C   -0.73732932654522     -0.15670827106371     -0.43555799468836
  C   0.49506333176151      0.59470765566945      0.09749497715278
  Cl  -0.36476467803624     -1.15824984675568     -1.80666144235829
  H   0.16335124042760      1.17307298804084      0.96808009628427
  H   -1.51922538350246      0.55682428631580     -0.69748026057450
  N   -1.29909815506507     -0.95524086248996      0.73954366168639
  O   -1.32812415809973     -2.17209637749438      0.68416390309103
  O   -1.66873375104527     -0.23931989805798      1.66529177115006
  C   0.99993935648797      1.52198402651690     -0.91679918042589
  N   1.37640874491673      2.28444835205072     -1.72617098864041
  C   1.53280011073866     -0.34530209119752      0.53031456837693
  N   2.34971266796152     -1.10411996153446      0.89778088894598
