12
Coordinates from ORCA-job run
  C   -0.29181026246212     -0.80761251884618     -0.14743151810984
  C   0.60285950794657      0.44196520662508     -0.22934506786270
  Cl  0.04820242770995     -1.77869623491224      1.25380557821924
  H   0.30214521541639      0.99053699524328     -1.12990500235423
  H   -0.17462785140120     -1.40549115453598     -1.05174670823963
  N   -1.73509663949162     -0.30770638598461     -0.17897941988395
  O   -2.46398656849093     -0.50547605131285      0.77715460014881
  O   -2.00948579961603      0.28135829506603     -1.22004145480840
  C   2.00736440152821      0.05092581885840     -0.36299129360896
  N   3.12587696614875     -0.27872015283345     -0.49783913863628
  C   0.39358438876229      1.30788463230491      0.93454876789370
  N   0.19597421394976      2.01103155032760      1.85377065724224
