12
Coordinates from ORCA-job run
  C   -0.34982845608256     -0.62265173646317     -0.44268694551297
  C   0.70031217246553      0.19111845899258      0.32512393307158
  Cl  0.00745242546315     -2.33788408285227     -0.35998353506736
  H   0.70432820205043     -0.16960218340998      1.35970259965441
  H   -0.43299404891234     -0.31770958923976     -1.48460764157908
  N   -1.69991925357321     -0.36786760038948      0.18712618925705
  O   -2.63442120486690     -0.21473383973697     -0.58950789626310
  O   -1.73716782154189     -0.35323014882820      1.41194465210092
  C   0.32807315221290      1.60993346507485      0.31656574711317
  N   0.00066836439701      2.73724832992054      0.29065390088391
  C   2.02559657627766      0.00015154338825     -0.26807087745735
  N   3.08689989211022     -0.15477261645639     -0.74526012620120
