12
Coordinates from ORCA-job run
  C   -0.63583498796573     -0.22488487047476     -0.55216160852087
  C   0.45113920030195      0.62344405613299      0.13069619721442
  Cl  0.02018785015336     -1.33245842222913     -1.72038920258112
  H   -0.05712664146314      1.26809500992381      0.85765086317246
  H   -1.36925538854218      0.42661842033518     -1.02817501194140
  N   -1.39611420941873     -0.93447697297415      0.56746273421740
  O   -1.95636374446548     -0.15197419856718      1.32906630339596
  O   -1.38479984867336     -2.15135135927066      0.62856617141614
  C   1.12949992006939      1.46790410963852     -0.85423753949356
  N   1.64855529050015      2.15866578685970     -1.64891658577884
  C   1.40194763216071     -0.23018654178370      0.84908766461902
  N   2.14616492734307     -0.91839501759063      1.44135001428040
