12
Coordinates from ORCA-job run
  C   -0.34797038995038     -0.66724465807887     -0.37384516953887
  C   0.70234233841162      0.22856308567729      0.29658355947185
  Cl  0.02760742229387     -2.36235281921601     -0.12437565524018
  H   0.72188612118025     -0.02803724810324      1.36161579942243
  H   -0.44536066030662     -0.46871876894327     -1.43997231620416
  N   -1.69328235937994     -0.36227252942558      0.24354242865214
  O   -1.71771660883517     -0.23084613441555      1.46165352249423
  O   -2.63678403441295     -0.28893017990788     -0.53379814034644
  C   0.31517743925822      1.63602217795194      0.15278609657424
  N   -0.02334515643708      2.75258837657626      0.02120777021224
  C   2.02206255580929     -0.00830182480267     -0.29237381643236
  N   3.07638333236888     -0.20146947731242     -0.77102407906511
