12
Coordinates from ORCA-job run
  C   -0.47968723944731     -0.54686843781089     -0.59441592578460
  C   0.75681578334422      0.33023402661353     -0.37211324810352
  Cl  -0.01730711628793     -2.20845428372991     -0.92106408568882
  H   1.31797695874891      0.29753919406496     -1.31519547216611
  H   -1.06444654251335     -0.17556443620203     -1.43639852711270
  N   -1.41221002235390     -0.50933382827640      0.59805613003476
  O   -2.55574965005660     -0.88203315493948      0.37375599865674
  O   -0.94935884272480     -0.11948045101053      1.66387931459840
  C   1.64513501076604     -0.16728038154537      0.68211985557085
  N   2.41301034813653     -0.56932677703818      1.47319020045762
  C   0.34953432873643      1.71955179355335     -0.13936262402971
  N   -0.00371301634825      2.83201673632096     -0.01345161643290
