12
Coordinates from ORCA-job run
  C   -0.48610842700400     -0.54327306598451     -0.59424904232533
  C   0.76945688071404      0.30445913424139     -0.36664612766293
  Cl  -0.06323288403756     -2.22096466697998     -0.88966261310087
  H   1.34221017011391      0.24474863064473     -1.30144751852542
  H   -1.04933560129556     -0.16951595354397     -1.44970295014104
  N   -1.43435993661563     -0.46354355376383      0.58397638711224
  O   -2.58411920965404     -0.80908029762016      0.34839377799616
  O   -0.97617833710066     -0.07107845004179      1.65089826807789
  C   1.63112192691256     -0.20105103138725      0.70588155763885
  N   2.37945297972612     -0.60829349547970      1.51296444324864
  C   0.39693073442757      1.70707166994533     -0.15648633371757
  N   0.07516170381324      2.83052107996975     -0.04491984860060
