12
Coordinates from ORCA-job run
  C   -0.35347300718379     -0.66388755800101     -0.37129136057223
  C   0.70331739060406      0.22600855238011      0.29629512382611
  Cl  0.00660426376134     -2.36109674376608     -0.11172649271563
  H   0.71667337222965     -0.02290029239739      1.36324400930261
  H   -0.44698304642275     -0.47084898074468     -1.43879675550032
  N   -1.69798936978010     -0.34569630580248      0.24112574946752
  O   -1.72277117922307     -0.19569822948697      1.45719648958941
  O   -2.64165096076699     -0.28522970646681     -0.53726914921664
  C   0.33146114373553      1.63618985673707      0.14025295810688
  N   0.00326438612825      2.75427324565271     -0.00408290308469
  C   2.02319242891667     -0.02965654773167     -0.28457964609552
  N   3.07935457800118     -0.24145729037279     -0.75136802310749
