12
Coordinates from ORCA-job run
  C   -0.71996822223482     -0.17450292794983     -0.45823801008470
  C   0.49053751299033      0.59975734997033      0.09247199397328
  Cl  -0.29216154070865     -1.23529002890931     -1.76729792704829
  H   0.12321434318175      1.21908917559418      0.91941280260095
  H   -1.48935352351045      0.52625270010809     -0.78366866834513
  N   -1.33051318669578     -0.92086758791744      0.72665253538022
  O   -1.35827557023122     -2.13903541004461      0.72406420986214
  O   -1.73792673649721     -0.16500006684874      1.60353615468546
  C   1.04444190111322      1.47645295064150     -0.94107750346829
  N   1.45835851878475      2.20079388076637     -1.76694838639476
  C   1.50465369451366     -0.32188150144099      0.61274764293572
  N   2.30699280929442     -1.06576853396953      1.03834515590337
