12
Coordinates from ORCA-job run
  C   -0.28828552974611     -0.73657503416243     -0.28334531708967
  C   0.67446578212831      0.31892257092425      0.27662522913963
  Cl  0.19698726116082     -2.34759507679679      0.21235809299006
  H   0.67786603707628      0.21580794383055      1.36741456346876
  H   -0.36458524597142     -0.69700774998176     -1.36874971266855
  N   -1.67123473481907     -0.44905833776411      0.25397049278923
  O   -2.59158494476178     -0.55522693123018     -0.54712486569677
  O   -1.74493452550242     -0.15150290042781      1.44051559851013
  C   0.19558044034798      1.66065661862652     -0.07275469995865
  N   -0.21597735469446      2.72066471701875     -0.36557578698014
  C   2.02568021481949      0.09993769828384     -0.24391265877589
  N   3.10502259996238     -0.07902351832084     -0.66942093572806
