12
Coordinates from ORCA-job run
  C   -0.32547549242778     -0.74419851439868     -0.21649946895276
  C   0.60438659685499      0.47751327107130     -0.21216798900523
  Cl  0.06937591312976     -1.86795710216120      1.05897254369916
  H   0.27704951744525      1.15058261289655     -1.01107501611201
  H   -0.26346191570402     -1.26284377914929     -1.17623503131111
  N   -1.77787200352569     -0.27308840792007     -0.11008212806870
  O   -1.99430910383031      0.86319195483369     -0.51975937716137
  O   -2.59923380746944     -1.07912521687879      0.29152224578633
  C   1.97807666004573      0.05009957775040     -0.49066017492061
  N   3.06916254968396     -0.29815980839876     -0.74813877642929
  C   0.51923688755510      1.20101568955816      1.05961589690530
  N   0.44306419824245      1.78396972279672      2.07550727557023
