12
Coordinates from ORCA-job run
  C   -0.34599372264593     -0.58990384222763     -0.48818645254096
  C   0.69812487441228      0.16926272969118      0.34123972885201
  Cl  0.01707308622775     -2.30588004635533     -0.52620119790327
  H   0.70006606179921     -0.26670481744696      1.34647392053790
  H   -0.42453137352460     -0.21211943605671     -1.50632628489919
  N   -1.69953980370564     -0.38491254828011      0.15125366895690
  O   -1.74360822485447     -0.46415397255162      1.37340955894825
  O   -2.62982113703031     -0.17278589617197     -0.61657160437066
  C   0.32187286459636      1.58373681754252      0.43708542712519
  N   -0.00519685813431      2.70986721517006      0.49713513447249
  C   2.02561055365762      0.02624928523261     -0.26037946435180
  N   3.08694367920203     -0.09165548854605     -0.74793243482685
