12
Coordinates from ORCA-job run
  C   -0.72274719716769     -0.16719506391386     -0.45680009246864
  C   0.51664917370818      0.58190049969751      0.06339855911040
  Cl  -0.33226933475364     -1.31444991887795     -1.70319252975439
  H   0.17139290620243      1.25988080256814      0.85300791448926
  H   -1.45816606730735      0.54785889272101     -0.82664415763490
  N   -1.37439887161692     -0.82162437671884      0.76015193288072
  O   -1.45683745526210     -2.03573247072018      0.82171169747466
  O   -1.75362228526599     -0.00275526047551      1.59194083276126
  C   1.11599467273865      1.37699945864638     -1.01005844127755
  N   1.56981705044438      2.03574874809727     -1.86919393858665
  C   1.48466609908612     -0.35391117106986      0.64281027585253
  N   2.24052130919394     -1.10672013995413      1.13286794715329
