12
Coordinates from ORCA-job run
  C   -0.44093700165422     -0.53788481144262     -0.63310477660393
  C   0.78983697842606      0.31505476186544     -0.30899163012366
  Cl  0.01505913352402     -2.20779596930444     -0.92427259126678
  H   1.42480608994665      0.27251077485827     -1.20366682070080
  H   -0.94774802696073     -0.15505927507214     -1.51927818884460
  N   -1.46676731964069     -0.48285135708038      0.47926082296888
  O   -2.59505728376545     -0.83383165641448      0.16200200223474
  O   -1.08510931729861     -0.10156452756051      1.57984748191114
  C   1.58078706665272     -0.19979154794962      0.81232236226660
  N   2.27760545610333     -0.61297999287502      1.66147483346439
  C   0.39299245948457      1.71193129107368     -0.10520542914971
  N   0.05553176518237      2.83126230990181      0.00061193384372
