12
Coordinates from ORCA-job run
  C   -0.29275339055315     -0.76479964685937     -0.18877652252210
  C   0.68405144709407      0.35261097926855      0.20089867442347
  Cl  0.24618079298904     -2.31095214427531      0.44032321796517
  H   0.75260039565509      0.36305610091881      1.29438624423802
  H   -0.43309185769675     -0.83875961835744     -1.26596900247404
  N   -1.64618241037338     -0.43650533422705      0.39815958919295
  O   -1.65477719371184     -0.01897808899249      1.55028913599237
  O   -2.61004683238349     -0.63321301093943     -0.33136483524242
  C   0.16416020635752      1.64582721434712     -0.25606039675892
  N   -0.27881257727359      2.66575125191849     -0.63322762349315
  C   2.00632469499399      0.09434437526396     -0.37315776413168
  N   3.06434672490248     -0.11738207806585     -0.83550071718963
