12
Coordinates from ORCA-job run
  C   -0.35646844968404     -0.64740805109513     -0.39912997940418
  C   0.70840226845524      0.21839611740530      0.28720925444489
  Cl  0.03483093978298     -2.35089570829058     -0.25128464123485
  H   0.76142049235459     -0.09478091621552      1.33581769124037
  H   -0.48615070134882     -0.39339951166112     -1.44993299707386
  N   -1.68483474254166     -0.38517002930969      0.27218918869263
  O   -2.65169219712355     -0.28125160945037     -0.47231927929126
  O   -1.67412229310980     -0.31698893275731      1.49577425272316
  C   0.31058752605971      1.62913060662837      0.22998708995644
  N   -0.03042811577052      2.75048656140998      0.15919854803283
  C   2.01179668920439      0.02180969308686     -0.35088299668189
  N   3.05665858372145     -0.14992821975079     -0.85762613140424
