12
Coordinates from ORCA-job run
  C   -0.36698484784082     -0.64826360909121     -0.38950486165963
  C   0.71553254654312      0.21476607454236      0.27231258026325
  Cl  0.01605248530514     -2.35319288257292     -0.23854578484210
  H   0.78461786885645     -0.09186084917014      1.32192271904740
  H   -0.51439304463015     -0.39921123125061     -1.43918379500305
  N   -1.68112001095477     -0.37330498700130      0.30497406499087
  O   -2.66006036394778     -0.26074266678492     -0.42218958424101
  O   -1.64757817647775     -0.30438257613968      1.52794479535611
  C   0.32541318978151      1.62757590093703      0.21384236192808
  N   -0.01712668165079      2.74919538440893      0.15484514547999
  C   2.00607047653892      0.00570202924991     -0.38755866630270
  N   3.03857655847688     -0.16628058712746     -0.91885897501724
