12
Coordinates from ORCA-job run
  C   -0.34080285437339     -0.74217676616920     -0.23720857177971
  C   0.64205866241138      0.43694824709417     -0.17454461361964
  Cl  -0.07315359582381     -1.88522299641103      1.05027242027054
  H   0.41303239332929      1.10581401583748     -1.01034234145017
  H   -0.25283779431411     -1.25303123501305     -1.19898446630717
  N   -1.76968619932904     -0.18987091788937     -0.21557981934217
  O   -1.90713496806329      0.89446853688667     -0.77313153669769
  O   -2.64536673583121     -0.88539369872824      0.26832459917804
  C   2.01449745503873     -0.05137404447434     -0.32782728908557
  N   3.10667021904721     -0.44549167569144     -0.50020098897995
  C   0.47761500485722      1.19073704407907      1.07165740746785
  N   0.33310841305099      1.82359349047928      2.04956520034565
