12
Coordinates from ORCA-job run
  C   -0.33495362220222     -0.79152908294340     -0.14175880041290
  C   0.60441488617904      0.42180554606428     -0.25829998850537
  Cl  0.04747177081660     -1.80071758944389      1.22105835538542
  H   0.27075142130947      1.00088607338404     -1.12759396209935
  H   -0.29698819841055     -1.37734792272049     -1.06061420367007
  N   -1.75564429977871     -0.23332133928193     -0.07864175181733
  O   -2.43416965047001     -0.41916844967369      0.91618981074202
  O   -2.06708409394480      0.38471245362962     -1.09217265637914
  C   1.98016245296182     -0.02284775893571     -0.48905591244448
  N   3.07432491988265     -0.39100662569776     -0.70191374235368
  C   0.50793329007305      1.27055259556129      0.93281315887387
  N   0.40578112358365      1.95798210005760      1.87898969268105
