12
Coordinates from ORCA-job run
  C   -0.45062364000774     -0.59956947392418     -0.63081538379060
  C   0.75469019867223      0.32123935323530     -0.36898204143212
  Cl  0.08505114369251     -2.23510410007901     -0.93477264118039
  H   1.38972375867812      0.26004339992723     -1.26162468354647
  H   -1.02586692684745     -0.23407340357059     -1.47957116716536
  N   -1.38657868704702     -0.53390616955317      0.55844971593825
  O   -1.10653153008533     -1.20361330871353      1.54180652850917
  O   -2.32471699542029      0.24644093481797      0.42309497428793
  C   1.55154249990031     -0.11581049975566      0.78187017459119
  N   2.22710648935427     -0.44773683128650      1.68276944192604
  C   0.31777206303953      1.71235418149972     -0.20740719877791
  N   -0.03156837392914      2.82873591740240     -0.10381771935972
