12
Coordinates from ORCA-job run
  C   -0.51890248451386     -0.47429011987753     -0.51474545775237
  C   0.39720961001932      0.67054831987737     -0.04752395596211
  Cl  0.37544802399016     -1.85857879033923     -1.06767530807131
  H   -0.25570251473991      1.48104200391158      0.29764378321248
  H   -1.18054108409640     -0.11883921585651     -1.30515161916850
  N   -1.43689302624833     -0.80024033751545      0.66205148157460
  O   -2.15344247338396      0.14433223862474      0.97929593106943
  O   -1.38898659450255     -1.90272545469294      1.17867058007590
  C   1.20555102554693      1.16063768164635     -1.16555342092347
  N   1.82852845271842      1.56039103704908     -2.07675564033950
  C   1.23787869170631      0.23973198091914      1.07331988169689
  N   1.88985237350384     -0.10300934374657      1.98742374458795
