17

C	-0.165181	-0.067012	-1.542903
C	0.0	0.0	0.0
F	-1.36686	0.590137	-1.93521
H	1.090156	0.0	0.0
N	0.923553	0.569139	-2.231095
H	1.761361	0.321244	-1.671415
H	0.80688	1.565027	-2.075753
N	-0.202126	-1.43273	-1.939041
H	-0.110276	-1.449367	-2.947066
H	-1.077689	-1.853564	-1.657839
N	-0.547398	-1.038765	0.816576
H	0.028486	-1.858161	0.680612
H	-1.513547	-1.244301	0.593303
N	-0.517052	1.318929	0.445199
O	-1.50073	1.350816	1.186363
O	0.040861	2.325679	0.004267
F	2.638738	0.0	0.0
