17

C	-0.251063	0.110863	-1.511667
C	0.0	0.0	0.0
F	-0.028633	-1.230544	-1.990913
H	1.089839	0.0	0.0
N	-1.597482	0.467654	-1.823083
H	-1.708915	0.544029	-2.828774
H	-2.18287	-0.291168	-1.489897
N	0.724647	0.958602	-2.092314
H	0.857205	0.673852	-3.0567
H	1.598912	0.785326	-1.576957
N	-0.65122	-1.149956	0.577422
H	-1.248632	-0.827534	1.32809
H	0.073636	-1.736669	0.969385
N	-0.455012	1.264227	0.658204
O	-1.361713	1.198752	1.500805
O	0.100513	2.30774	0.34114
F	2.628293	0.0	0.0
