17

C	-0.319698	0.158138	-1.492933
C	0.0	0.0	0.0
F	-1.608334	0.768979	-1.634144
H	1.089092	0.0	0.0
N	0.650274	1.020424	-2.088665
H	0.81876	0.700562	-3.036713
H	1.522281	0.885013	-1.563849
N	-0.386606	-1.139185	-2.097244
H	-0.925862	-1.065054	-2.951416
H	-0.846607	-1.764222	-1.445751
N	-0.580197	-1.170245	0.586982
H	0.049023	-1.503871	1.303712
H	-1.463116	-0.929955	1.017979
N	-0.448076	1.252136	0.707878
O	-1.379413	1.16394	1.516647
O	0.135779	2.296798	0.44995
F	2.608088	0.0	0.0
