17

C	-0.350192	-0.006019	-1.490478
C	0.0	0.0	0.0
F	-0.071784	-1.347266	-1.871465
H	1.097937	0.0	0.0
N	-1.720774	0.292846	-1.706004
H	-1.953468	0.093004	-2.671165
H	-2.257126	-0.30973	-1.090332
N	0.513864	0.797153	-2.294847
H	1.452517	0.611909	-1.927654
H	0.30452	1.756897	-2.047433
N	-0.652888	-1.119197	0.66811
H	-0.509415	-1.001542	1.664024
H	-0.11542	-1.929241	0.381732
N	-0.437947	1.260254	0.632769
O	-0.164036	2.322824	0.069943
O	-1.001124	1.199979	1.731849
F	2.599666	0.0	0.0
