18

C	-0.494609	-0.005833	-1.439097
C	0.0	0.0	0.0
F	-0.026051	1.162868	-2.063825
H	1.10186	0.0	0.0
C	0.083218	-1.145661	-2.180869
N	0.466287	-2.080194	-2.780831
C	-2.006425	0.002174	-1.595704
H	-2.391732	0.809827	-0.972877
H	-2.271679	0.171939	-2.641716
H	-2.43649	-0.94677	-1.270671
C	-0.498855	-1.20573	0.773454
H	0.044598	-1.251955	1.721531
H	-1.573555	-1.152477	0.987081
H	-0.282792	-2.136907	0.243159
N	-0.5133	1.244571	0.623876
H	-0.343491	1.142521	1.620717
H	0.136598	1.9677	0.327771
F	2.666427	0.0	0.0
