18

C	-0.22762	0.049302	-1.52498
C	0.0	0.0	0.0
F	-0.041336	-1.234942	-2.059356
H	1.097196	0.0	0.0
C	-1.617403	0.43126	-1.863755
N	-2.723687	0.770192	-2.071229
C	0.805091	0.961927	-2.16748
H	1.763979	0.703107	-1.690335
H	0.571166	2.009271	-1.964045
H	0.81999	0.80656	-3.249353
C	-0.660683	-1.193517	0.653272
H	-0.31509	-2.126962	0.207484
H	-0.397665	-1.189448	1.712671
H	-1.755551	-1.146958	0.574349
N	-0.396859	1.247552	0.65281
H	-1.2567	1.635672	0.279211
H	0.351826	1.919638	0.54197
F	2.721278	0.0	0.0
