18

C	-0.277016	-0.064529	-1.502514
C	0.0	0.0	0.0
F	-1.561773	-0.57009	-1.804677
H	1.103005	0.0	0.0
C	-0.247636	1.296287	-2.079668
N	-0.220027	2.380603	-2.530082
C	0.790026	-0.9214	-2.168764
H	0.762148	-0.824158	-3.256958
H	0.611879	-1.966108	-1.902796
H	1.756707	-0.618456	-1.73928
C	-0.536081	-1.234505	0.699848
H	-0.218421	-2.151117	0.200415
H	-1.629914	-1.216243	0.742341
H	-0.137431	-1.266226	1.718754
N	-0.602177	1.208193	0.596814
H	0.077468	1.956464	0.488514
H	-0.665066	1.049777	1.597422
F	2.741285	0.0	0.0
