18

C	-0.532421	0.011255	-1.426419
C	0.0	0.0	0.0
F	0.017373	1.109951	-2.097432
H	1.097845	0.0	0.0
C	-0.097541	-1.195176	-2.162664
N	0.206289	-2.165811	-2.749472
C	-2.04204	0.154113	-1.539211
H	-2.32503	1.025811	-0.949086
H	-2.322722	0.30077	-2.585069
H	-2.549345	-0.734408	-1.157432
C	-0.483786	-1.210749	0.7783
H	-1.557987	-1.167984	1.00896
H	0.074589	-1.250068	1.717902
H	-0.275503	-2.143204	0.246352
N	-0.446213	1.261773	0.639611
H	0.397603	1.820204	0.726927
H	-0.750146	1.058782	1.584204
F	2.649913	0.0	0.0
