16

C	-0.479165	-0.150068	-1.425722
C	0.0	0.0	0.0
Cl	0.199281	1.073359	-2.520219
H	1.094236	0.0	0.0
H	-0.21151	-1.132909	-1.800949
N	-1.985011	-0.093801	-1.504172
O	-2.543703	1.002155	-1.475177
O	-2.567266	-1.181865	-1.494958
N	-0.381464	-1.222666	0.714826
H	0.444248	-1.529711	1.218444
H	-1.108963	-1.034778	1.391806
C	-0.462782	1.271933	0.687078
H	-0.267134	2.153759	0.077637
H	0.11393	1.369734	1.60795
H	-1.530914	1.26279	0.934756
F	2.619315	0.0	0.0
