16

C	-0.306556	0.01516	-1.472164
C	0.0	0.0	0.0
Cl	-2.068757	-0.126127	-1.889552
H	1.096767	0.0	0.0
H	0.049768	0.927104	-1.944443
N	0.393635	-1.089255	-2.217282
O	0.118252	-2.249922	-1.923479
O	1.197639	-0.742175	-3.078235
N	-0.459849	-1.167413	0.737131
H	0.248005	-1.882584	0.639038
H	-1.318717	-1.536335	0.344282
C	-0.494965	1.283906	0.64274
H	-0.114023	2.163022	0.112918
H	-0.107786	1.309117	1.662529
H	-1.589903	1.338203	0.684347
F	2.603872	0.0	0.0
