16

C	-0.464897	-0.122135	-1.435055
C	0.0	0.0	0.0
Cl	0.229085	1.110947	-2.499163
H	1.094325	0.0	0.0
H	-0.202617	-1.103304	-1.819782
N	-1.971617	-0.051103	-1.526608
O	-2.565151	-1.131712	-1.510057
O	-2.518289	1.051464	-1.509643
N	-0.37215	-1.240986	0.686656
H	0.441332	-1.525062	1.216799
H	-1.146585	-1.100337	1.322952
C	-0.471992	1.25904	0.705881
H	-1.547396	1.244917	0.931157
H	0.08501	1.337676	1.643824
H	-0.261221	2.154406	0.117096
F	2.620576	0.0	0.0
