16

C	-0.314199	-0.078657	-1.488139
C	0.0	0.0	0.0
Cl	0.307912	1.289641	-2.4185
H	1.095012	0.0	0.0
H	0.115463	-0.986904	-1.903103
N	-1.798994	-0.194816	-1.71713
O	-2.244974	-1.349069	-1.693898
O	-2.488448	0.817987	-1.789169
N	-0.357992	-1.241146	0.690588
H	0.443058	-1.859063	0.619618
H	-1.164432	-1.703643	0.285711
C	-0.608986	1.201715	0.690836
H	-0.185409	1.244914	1.695729
H	-1.699818	1.123361	0.781236
H	-0.369316	2.132655	0.173465
F	2.61779	0.0	0.0
