15

C	-0.537178	0.066659	-1.409043
C	0.0	0.0	0.0
F	-1.89895	-0.006023	-1.438872
H	1.094361	0.0	0.0
C	-0.121183	1.314316	-2.058847
N	0.15259	2.318701	-2.601394
N	-0.015631	-1.064075	-2.324902
O	1.186397	-1.032407	-2.538583
O	-0.843564	-1.835024	-2.773866
N	-0.335494	-1.226099	0.679662
O	-0.481584	-1.182416	1.909101
O	-0.262381	-2.266569	0.005089
C	-0.444593	1.158998	0.739095
N	-0.776194	2.151406	1.275863
H	2.318524	0.0	0.0
