15

C	-0.438903	-0.02092	-1.455795
C	0.0	0.0	0.0
F	0.292902	-0.892388	-2.175884
H	1.094172	0.0	0.0
C	-1.871008	-0.280514	-1.658624
N	-3.01774	-0.464908	-1.839852
N	-0.157969	1.378228	-2.058095
O	-0.992073	2.240189	-1.81081
O	0.865555	1.493966	-2.711498
N	-0.380791	-1.218726	0.682064
O	-0.666154	-2.20863	-0.014078
O	-0.233536	-1.229069	1.911473
C	-0.425041	1.154993	0.747673
N	-0.682824	2.117234	1.374986
H	2.322264	0.0	0.0
