15

C	-0.430987	0.019072	-1.458396
C	0.0	0.0	0.0
F	0.234064	-0.905402	-2.176628
H	1.093769	0.0	0.0
C	-1.877604	-0.123969	-1.662957
N	-3.035978	-0.223384	-1.83477
N	-0.036865	1.394879	-2.057623
O	0.964616	1.418585	-2.753722
O	-0.775702	2.329883	-1.772269
N	-0.407752	-1.222671	0.662836
O	-0.772841	-2.180345	-0.038623
O	-0.223185	-1.263349	1.885167
C	-0.417748	1.144608	0.768348
N	-0.672444	2.092713	1.417721
H	2.329794	0.0	0.0
