15

C	-0.429079	0.000631	-1.457854
C	0.0	0.0	0.0
F	0.158687	-1.002994	-2.134789
H	1.094335	0.0	0.0
C	-1.882322	-0.018976	-1.672935
N	-3.044182	-0.030259	-1.851794
N	0.090297	1.316919	-2.1018
O	-0.519582	2.331048	-1.787978
O	1.045107	1.220219	-2.852591
N	-0.414683	-1.212179	0.686047
O	-0.112611	-1.272525	1.884497
O	-0.916757	-2.134659	0.023549
C	-0.420033	1.154717	0.75277
N	-0.695584	2.10307	1.393284
H	2.344592	0.0	0.0
