15

C	-0.535339	0.055274	-1.410764
C	0.0	0.0	0.0
F	-1.896597	-0.04198	-1.447438
H	1.09437	0.0	0.0
C	-0.136212	1.310324	-2.05957
N	0.133353	2.321206	-2.594282
N	0.014294	-1.06855	-2.316522
O	-0.790737	-1.867145	-2.761478
O	1.214303	-1.002961	-2.528445
N	-0.327275	-1.227502	0.680942
O	-0.486106	-1.186185	1.910785
O	-0.235571	-2.266624	0.005988
C	-0.451056	1.156644	0.737331
N	-0.778578	2.147482	1.280748
H	2.312476	0.0	0.0
