15

C	-0.408518	-0.003139	-1.446342
C	0.0	0.0	0.0
F	-0.279871	1.26398	-1.946626
H	1.096442	0.0	0.0
C	0.365186	-0.920385	-2.290796
N	0.987072	-1.630898	-2.989225
N	-1.910351	-0.325917	-1.650935
O	-2.65689	-0.125097	-0.705052
O	-2.235409	-0.651712	-2.787582
N	-0.365438	-1.224818	0.650276
O	-0.571932	-2.20538	-0.091718
O	-0.288754	-1.268761	1.884068
C	-0.430951	1.168941	0.722151
N	-0.693687	2.168411	1.28392
H	2.313442	0.0	0.0
