15

C	-0.407984	-0.005104	-1.445581
C	0.0	0.0	0.0
F	-0.272251	1.259268	-1.949173
H	1.096455	0.0	0.0
C	0.359914	-0.930725	-2.285005
N	0.972115	-1.623329	-3.010072
N	-1.913146	-0.32016	-1.648814
O	-2.240343	-0.648472	-2.783082
O	-2.657286	-0.112792	-0.70315
N	-0.366902	-1.223666	0.651933
O	-0.580203	-2.202067	-0.091114
O	-0.283033	-1.270752	1.884651
C	-0.431849	1.169257	0.721783
N	-0.716412	2.128276	1.340404
H	2.316114	0.0	0.0
