15

C	-0.445561	-0.13293	-1.441185
C	0.0	0.0	0.0
F	0.270212	-1.075053	-2.105666
H	1.090382	0.0	0.0
C	-1.882681	-0.391094	-1.607623
N	-3.040312	-0.555833	-1.727409
N	-0.134706	1.168605	-2.214352
O	0.585848	2.000249	-1.680651
O	-0.579006	1.196305	-3.358092
N	-0.367063	-1.179884	0.767566
O	-0.634553	-2.21951	0.144195
O	-0.2357	-1.097127	1.994633
C	-0.515634	1.180387	0.647161
N	-0.919749	2.148979	1.180136
H	2.335665	0.0	0.0
