14

C	-0.851271	0.044733	-1.453581
C	0.172049	-0.01341	-0.309619
Cl	-0.676634	-1.31893	-2.600714
H	1.1764	-0.015951	-0.742589
H	-1.858085	-0.042151	-1.031186
C	-0.77466	1.295803	-2.206056
N	-0.754083	2.265306	-2.867802
N	0.014062	-1.261445	0.412013
H	-0.813309	-1.18825	0.998729
H	0.808306	-1.311982	1.051747
N	0.029109	1.234555	0.428316
H	-0.787733	1.15937	1.029339
H	0.83353	1.277886	1.057645
Br	2.630513	-0.024112	2.353278
