14

C	-0.738585	0.025572	-1.528679
C	0.14188	0.000828	-0.272532
Cl	-2.488158	-0.009851	-1.136405
H	1.180437	-0.068781	-0.633217
H	-0.577366	0.958735	-2.075865
C	-0.431481	-1.091853	-2.417665
N	-0.176696	-1.956905	-3.16908
N	-0.106856	-1.201636	0.479628
H	-0.935378	-1.041334	1.044303
H	0.678586	-1.29948	1.121404
N	-0.100002	1.211099	0.502257
H	0.218897	2.017608	-0.029519
H	0.544653	1.138378	1.292394
Br	2.681652	0.078241	2.207464
