14

C	-0.719033	-0.041745	-1.548704
C	0.140581	-0.007798	-0.277534
Cl	-2.469213	0.127022	-1.199524
H	1.184836	-0.024103	-0.630828
H	-0.444036	0.826391	-2.149154
C	-0.508479	-1.262564	-2.32301
N	-0.304863	-2.242169	-2.938272
N	-0.177824	-1.126794	0.593597
H	0.081699	-1.998408	0.138648
H	0.460824	-1.025351	1.38387
N	-0.046414	1.270528	0.36598
H	0.742371	1.372864	1.005213
H	-0.881047	1.195539	0.940177
Br	2.651223	0.142697	2.232922
