14

C	0.0	0.0	0.0
C	-0.46638	-0.147334	-1.448121
F	1.390989	0.0	0.0
H	-1.556612	-0.026959	-1.441311
H	-0.298689	-0.906152	0.546451
N	-0.461367	1.230752	0.553687
H	-1.480358	1.222189	0.475725
H	-0.237866	1.255924	1.541761
N	-0.147991	-1.445782	-2.039416
H	0.786434	-1.714406	-1.750122
H	-0.80375	-2.123349	-1.667325
C	0.128377	0.918115	-2.269127
N	0.613853	1.739032	-2.953204
Br	-3.679793	0.0	0.0
