14

C	0.0	0.0	0.0
C	-0.176544	-0.115766	-1.548287
F	1.408156	0.0	0.0
H	0.529935	-0.910287	-1.834059
H	-0.346527	-0.899712	0.508362
N	-0.506366	1.153186	0.624942
H	-0.504704	1.906316	-0.055526
H	-1.484726	0.959029	0.84698
N	0.21353	1.185476	-2.114897
H	1.21239	1.292449	-1.98582
H	0.013438	1.200772	-3.106939
C	-1.432265	-0.535355	-2.185216
N	-2.160388	-0.93859	-3.01639
Br	-3.659726	0.0	0.0
