14

C	0.0	0.0	0.0
C	-0.539028	-0.001457	-1.436326
F	1.372646	0.0	0.0
H	-1.492203	0.539296	-1.414148
H	-0.309534	-0.937997	0.4767
N	-0.437703	1.196751	0.664095
H	-0.157241	1.143566	1.637364
H	-1.457678	1.187692	0.643474
N	-0.717937	-1.388687	-1.892435
H	-1.581431	-1.694022	-1.444632
H	-0.914066	-1.373784	-2.888138
C	0.37445	0.715016	-2.329041
N	1.064806	1.280346	-3.091372
Br	-3.66227	0.0	0.0
