14

C	0.0	0.0	0.0
C	-0.318525	0.016687	-1.535059
F	1.40485	0.0	0.0
H	0.583733	0.429383	-1.998572
H	-0.325645	-0.929346	0.466961
N	-0.503932	1.104699	0.724521
H	-1.434426	0.870563	1.060752
H	-0.624475	1.88774	0.092946
N	-1.423602	0.896173	-1.858375
H	-2.276961	0.584362	-1.382954
H	-1.596773	0.875547	-2.856152
C	-0.422621	-1.370801	-2.034984
N	-0.480844	-2.463641	-2.462873
Br	-4.026904	0.0	0.0
