14

C	0.0	0.0	0.0
C	-0.284364	0.373418	-1.485844
F	1.400494	0.0	0.0
H	0.450728	1.1677	-1.661052
H	-0.306048	-1.02326	0.249222
N	-0.507311	1.021917	0.856547
H	-1.525455	1.006458	0.76268
H	-0.301127	0.779988	1.820152
N	-1.567942	0.871012	-1.912634
H	-2.336766	0.299441	-1.565406
H	-1.710029	1.785773	-1.503988
C	0.133936	-0.762864	-2.329169
N	0.482135	-1.678433	-2.974667
Br	-4.090717	0.0	0.0
