15

C	-0.460318	0.01268	-1.449056
C	0.0	0.0	0.0
Br	0.055358	-1.622827	-2.412572
H	1.101933	0.0	0.0
H	0.065291	0.811363	-1.979113
C	-1.901999	0.177064	-1.601148
N	-3.056817	0.357273	-1.725951
N	-0.575966	-1.155672	0.699018
H	-0.024754	-1.966641	0.426684
H	-0.37524	-1.022236	1.685589
C	-0.453976	1.283919	0.67751
H	0.028788	1.345614	1.657977
H	-1.540414	1.313698	0.808188
H	-0.129247	2.1608	0.110263
H	2.917618	0.0	0.0
