15

C	-0.576088	-0.031158	-1.416001
C	0.0	0.0	0.0
Br	-0.187892	1.586272	-2.471678
H	1.095318	0.0	0.0
H	-1.667893	-0.073908	-1.363306
C	-0.125735	-1.187266	-2.186786
N	0.159408	-2.130196	-2.826747
N	-0.42796	-1.281046	0.585126
H	0.416471	-1.768829	0.873974
H	-0.997736	-1.123086	1.409326
C	-0.491921	1.188741	0.802174
H	-0.045971	1.133893	1.798829
H	-0.180393	2.133652	0.355398
H	-1.586525	1.189552	0.902221
H	2.864611	0.0	0.0
