15

C	-0.422052	0.00575	-1.452551
C	0.0	0.0	0.0
Br	-2.399377	-0.188865	-1.687438
H	1.10373	0.0	0.0
H	-0.0165	-0.884379	-1.936017
C	-0.037874	1.207691	-2.183226
N	0.249088	2.18417	-2.770615
N	-0.360864	-1.290884	0.57821
H	0.450825	-1.611262	1.094696
H	-1.134915	-1.199709	1.223822
C	-0.475735	1.204478	0.789317
H	0.009858	1.186123	1.769265
H	-1.563502	1.197247	0.92989
H	-0.193549	2.141065	0.300607
H	2.79184	0.0	0.0
