15

C	-0.385603	0.006227	-1.489491
C	0.0	0.0	0.0
Br	0.133578	-1.655459	-2.400958
H	1.095434	0.0	0.0
H	0.182175	0.79176	-1.99641
C	-1.816306	0.188449	-1.708669
N	-2.978306	0.336593	-1.817548
N	-0.474254	-1.134952	0.766307
H	-1.411103	-1.411124	0.492464
H	0.153682	-1.913274	0.607053
C	-0.46763	1.305613	0.628069
H	-1.558431	1.356323	0.72083
H	-0.118477	2.169765	0.053465
H	-0.02692	1.362916	1.624735
H	2.87646	0.0	0.0
