15

C	-0.471907	0.048757	-1.452749
C	0.0	0.0	0.0
Br	0.067244	-1.538067	-2.463261
H	1.094152	0.0	0.0
H	0.01446	0.885518	-1.961573
C	-1.92101	0.17915	-1.563979
N	-3.088985	0.316605	-1.597271
N	-0.481171	-1.206579	0.661144
H	0.323248	-1.667626	1.075318
H	-1.136265	-0.976841	1.400051
C	-0.426129	1.279591	0.709405
H	0.069009	1.306225	1.684365
H	-0.10194	2.167291	0.157148
H	-1.512343	1.334283	0.85498
H	2.864104	0.0	0.0
