15

C	-0.455981	0.054549	-1.450804
C	0.0	0.0	0.0
Br	0.024602	-1.574033	-2.446329
H	1.101972	0.0	0.0
H	0.090171	0.852835	-1.959698
C	-1.89269	0.25649	-1.602472
N	-3.041454	0.470742	-1.727975
N	-0.58026	-1.173534	0.664241
H	0.001425	-1.968564	0.412571
H	-0.433088	-1.044846	1.660857
C	-0.452563	1.266648	0.710086
H	-0.144432	2.15761	0.156214
H	-1.537368	1.28629	0.856303
H	0.044699	1.311735	1.684193
H	2.915483	0.0	0.0
