15

C	-0.507902	-0.063889	-1.445166
C	0.0	0.0	0.0
Br	0.030568	1.472506	-2.554896
H	1.095148	0.0	0.0
H	-1.603688	-0.024882	-1.459391
C	-0.097563	-1.284543	-2.135324
N	0.194302	-2.276608	-2.693999
N	-0.383118	-1.230239	0.695748
H	-1.25462	-1.622506	0.356651
H	0.354829	-1.911627	0.556137
C	-0.538845	1.212633	0.732401
H	-0.144679	1.184297	1.749531
H	-0.216286	2.143832	0.26326
H	-1.636153	1.199629	0.787277
H	2.869583	0.0	0.0
