14

C	0.0	0.0	0.0
C	-0.475993	-0.057706	-1.446619
Br	1.954592	0.0	0.0
H	0.131613	0.608889	-2.060199
H	-0.357717	-0.863691	0.555388
H	-1.509295	0.284443	-1.379181
C	-0.449338	1.286098	0.68953
H	-1.543723	1.263472	0.691019
H	-0.08036	2.157351	0.145273
H	-0.050407	1.335936	1.706729
N	-0.362145	-1.421795	-2.005919
H	-1.15098	-1.948162	-1.62713
H	-0.529724	-1.367	-3.008964
F	-2.879429	0.0	0.0
