14

C	0.0	0.0	0.0
C	-0.555067	0.214111	-1.390832
Br	1.963568	0.0	0.0
H	-0.238191	-0.615475	-2.043075
H	-0.286535	-1.000127	0.326842
H	-1.645101	0.143621	-1.179361
C	-0.515129	1.027223	0.983574
H	-0.199655	2.027187	0.684121
H	-0.160849	0.817898	1.997281
H	-1.610511	0.909361	0.906832
N	-0.20655	1.532697	-1.926465
H	0.640216	1.477141	-2.478711
H	-0.956344	1.848472	-2.527334
F	-2.983199	0.0	0.0
