16

C	0.0	0.0	0.0
C	-0.073356	-0.072375	-1.593588
F	1.434441	0.0	0.0
H	0.593382	-0.891544	-1.862634
N	-0.509431	1.183778	0.551552
H	-1.30319	0.973417	1.1449
H	-0.826942	1.835054	-0.151967
N	-0.470751	-1.134823	0.681462
H	-0.132182	-1.98611	0.253361
H	-1.49477	-1.122246	0.650499
C	0.425154	1.156645	-2.198934
N	0.854691	2.126259	-2.703074
N	-1.380237	-0.451259	-2.228123
O	-1.643032	-1.64858	-2.168924
O	-2.031926	0.418948	-2.786602
Br	-3.715316	0.0	0.0
