16

C	0.0	0.0	0.0
C	-0.076408	-0.074629	-1.591736
F	1.438828	0.0	0.0
H	0.607994	-0.879844	-1.859837
N	-0.512784	1.183555	0.54376
H	-1.250238	0.971248	1.203558
H	-0.906452	1.796668	-0.155435
N	-0.459857	-1.138204	0.686012
H	-1.484096	-1.121984	0.671796
H	-0.135284	-1.98716	0.243713
C	0.392677	1.163914	-2.201735
N	0.817285	2.152559	-2.672715
N	-1.375007	-0.489694	-2.221924
O	-2.040469	0.35768	-2.801437
O	-1.618899	-1.689571	-2.13621
Br	-3.716163	0.0	0.0
