16

C	0.0	0.0	0.0
C	-0.212802	-0.249208	-1.553564
Br	1.962239	0.0	0.0
H	0.430575	-1.100664	-1.777936
C	-0.564064	1.21915	0.563918
N	-0.633154	2.261133	1.124519
C	-0.523592	-1.170124	0.697116
N	-0.59194	-2.201997	1.275834
N	0.384823	0.876213	-2.350041
O	0.019023	2.016817	-2.079633
O	1.127366	0.569275	-3.282147
C	-1.575598	-0.497411	-2.180786
H	-1.403181	-0.713868	-3.245967
H	-2.054002	-1.355211	-1.713714
H	-2.230395	0.36407	-2.075281
H	-1.960213	0.0	0.0
