16

C	0.0	0.0	0.0
C	-0.212393	-0.0217	-1.569798
Br	1.962374	0.0	0.0
H	0.425776	-0.837226	-1.912949
C	-0.49862	1.142594	0.751341
N	-0.571711	2.077284	1.472621
C	-0.573949	-1.233757	0.532337
N	-0.611961	-2.335328	0.972436
N	0.392969	1.200718	-2.198991
O	0.055177	2.295927	-1.756976
O	1.113988	1.022975	-3.181091
C	-1.575492	-0.16976	-2.228163
H	-1.401789	-0.236111	-3.313215
H	-2.225666	0.671772	-2.003222
H	-2.06141	-1.082294	-1.886085
H	-1.958447	0.0	0.0
