16

C	0.0	0.0	0.0
C	-0.2105	-0.031922	-1.569979
Br	1.962523	0.0	0.0
H	0.424078	-0.85288	-1.907113
C	-0.488526	1.158346	0.737475
N	-0.578405	2.097833	1.450465
C	-0.594068	-1.223699	0.534392
N	-0.630027	-2.330422	0.963546
N	0.399901	1.183507	-2.21001
O	1.11452	0.992113	-3.194306
O	0.071645	2.283458	-1.774099
C	-1.574977	-0.178876	-2.22689
H	-2.063294	-1.08643	-1.875568
H	-1.401476	-0.253428	-3.311172
H	-2.220657	0.667699	-2.006049
H	-1.965435	0.0	0.0
