12

C	0.0	0.0	0.0
C	-0.400656	0.23464	-1.467243
Br	1.949682	0.0	0.0
H	-1.156934	0.999143	-1.580572
H	-0.267587	-0.998379	0.31931
H	0.483781	0.472139	-2.071311
C	-0.600518	0.992644	0.885788
N	-0.639943	1.878818	1.674004
N	-0.950476	-0.986094	-2.121885
O	-1.693395	-0.80951	-3.084122
O	-0.549178	-2.080978	-1.739437
H	-2.130016	0.0	0.0
