12

C	0.0	0.0	0.0
C	-0.518349	0.025249	-1.419498
Br	1.948867	0.0	0.0
H	-0.277281	-0.893218	-1.950728
H	-0.342585	-0.935315	0.442876
H	-1.647684	0.106677	-1.188646
C	-0.446106	1.097811	0.864744
N	-0.577563	1.964053	1.649436
N	-0.021238	1.133806	-2.218795
O	0.098544	2.236998	-1.675053
O	0.184113	0.924521	-3.423176
H	-2.660051	0.0	0.0
