12

C	0.0	0.0	0.0
C	-0.38848	0.073459	-1.486119
Br	1.938836	0.0	0.0
H	0.464767	0.382478	-2.100379
H	-0.281646	-0.953855	0.428034
H	-1.238938	0.720085	-1.655531
C	-0.632176	1.088441	0.75008
N	-0.637259	2.081138	1.402841
N	-0.777378	-1.249822	-2.058078
O	-1.385542	-1.212784	-3.126315
O	-0.413674	-2.277238	-1.495356
H	-2.172076	0.0	0.0
