12

C	0.0	0.0	0.0
C	-0.365639	-0.221571	-1.493267
Br	1.938522	0.0	0.0
H	-1.409775	-0.502929	-1.550685
H	-0.335512	-0.883302	0.542115
H	0.312937	-0.952069	-1.935735
C	-0.655937	1.181111	0.561641
N	-0.656788	2.261755	1.057742
N	-0.233808	1.023059	-2.312918
O	-1.273648	1.522626	-2.74361
O	0.893497	1.462673	-2.537532
H	-2.28719	0.0	0.0
