18

C	0.0	0.0	0.0
C	-0.20616	0.165694	-1.57532
F	1.339667	0.0	0.0
H	0.088293	-0.844926	-1.8942
N	-0.491283	1.124568	0.879034
O	-0.75507	0.914882	2.050784
O	-0.465787	2.220758	0.329702
N	-0.388859	-1.365491	0.538576
O	-0.005204	-1.608114	1.680844
O	-0.906455	-2.166921	-0.224564
C	0.842135	1.13223	-2.164656
H	1.882723	0.847755	-1.992312
H	0.663196	2.140151	-1.794084
H	0.657336	1.140543	-3.240575
N	-1.48736	0.54861	-2.134382
H	-1.753021	-0.180571	-2.788901
H	-2.15418	0.444776	-1.323516
F	-2.507242	0.0	0.0
