18

C	0.0	0.0	0.0
C	-0.283841	0.030931	-1.541144
F	1.333692	0.0	0.0
H	0.600995	0.582636	-1.880319
N	-0.410119	1.274443	0.710602
O	-0.148343	2.280397	0.049306
O	-0.816584	1.268366	1.8576
N	-0.349637	-1.225914	0.837256
O	-0.96497	-2.168436	0.370492
O	0.166449	-1.206017	1.955188
C	-1.47801	0.732085	-2.170751
H	-1.257027	0.809603	-3.248546
H	-1.618581	1.735356	-1.774031
H	-2.382525	0.169599	-1.974492
N	-0.08928	-1.342869	-2.025294
H	-0.01528	-1.287983	-3.035529
H	-0.93702	-1.852935	-1.804383
F	-2.320463	0.0	0.0
