18

C	0.0	0.0	0.0
C	-0.514064	0.363762	-1.395191
F	1.343426	0.0	0.0
H	-1.460225	0.857256	-1.167167
N	-0.316885	1.104361	1.014269
O	0.152684	0.917526	2.135469
O	-0.856819	2.129152	0.633502
N	-0.392694	-1.34773	0.583567
O	-0.995376	-1.437462	1.63516
O	0.059901	-2.289805	-0.070347
C	-0.863432	-0.828307	-2.275
H	-0.021431	-1.504973	-2.442181
H	-1.693003	-1.35272	-1.805278
H	-1.198421	-0.436144	-3.241256
N	0.46468	1.292949	-1.973631
H	-0.039946	1.945314	-2.556887
H	1.12116	0.790743	-2.561647
F	-2.518916	0.0	0.0
