18

C	0.0	0.0	0.0
C	-0.454517	0.091453	-1.480773
F	1.349472	0.0	0.0
H	-1.41412	0.594221	-1.408089
N	-0.317581	1.283584	0.759983
O	0.052135	1.318408	1.93048
O	-0.746342	2.241871	0.129512
N	-0.377461	-1.215236	0.828739
O	0.061717	-2.263071	0.350186
O	-0.945287	-1.110055	1.896614
C	-0.697235	-1.255777	-2.135407
H	-1.509091	-1.752415	-1.611314
H	-0.996649	-1.056398	-3.167485
H	0.189828	-1.893691	-2.14323
N	0.481888	0.878403	-2.279631
H	0.475623	1.828929	-1.925561
H	1.425374	0.520524	-2.182631
F	-2.407127	0.0	0.0
