18

C	0.0	0.0	0.0
C	-0.406339	0.168927	-1.523679
F	1.344096	0.0	0.0
H	0.561812	0.001275	-2.014853
N	-0.323133	1.190401	0.943047
O	-1.170957	1.136795	1.810993
O	0.406966	2.158622	0.720148
N	-0.342802	-1.303835	0.684929
O	-0.391868	-2.296504	-0.03456
O	-0.345345	-1.325452	1.908258
C	-0.866734	1.5973	-1.805531
H	-1.085578	1.649233	-2.873899
H	-1.786017	1.749394	-1.239066
H	-0.121868	2.348245	-1.547589
N	-1.377685	-0.725819	-2.108495
H	-1.047065	-1.673702	-1.994439
H	-2.17527	-0.606467	-1.452226
F	-2.512756	0.0	0.0
