15

C	-0.465097	-0.010995	-1.427623
C	0.0	0.0	0.0
F	-1.760494	-0.391115	-1.588093
H	1.087012	0.0	0.0
H	0.179162	-0.686895	-1.993216
N	-0.29182	1.346141	-2.072955
O	-1.123417	1.677625	-2.907318
O	0.722464	1.957911	-1.765001
N	-0.321475	-1.283114	0.609796
O	-0.708165	-1.347529	1.777529
O	-0.06098	-2.259606	-0.108529
N	-0.497858	1.119687	0.781107
O	0.029479	1.296329	1.882057
O	-1.357909	1.856373	0.272629
H	2.359927	0.0	0.0
