15

C	-0.487092	-0.018549	-1.420023
C	0.0	0.0	0.0
F	-1.78815	-0.396243	-1.54736
H	1.087017	0.0	0.0
H	0.141393	-0.705912	-1.989263
N	-0.323061	1.328421	-2.088034
O	-1.199733	1.677928	-2.866414
O	0.725591	1.913543	-1.850909
N	-0.33672	-1.285719	0.610011
O	-0.848291	-1.342358	1.730122
O	0.006934	-2.262746	-0.070371
N	-0.484511	1.11722	0.788312
O	-1.290191	1.906127	0.269178
O	0.017863	1.246395	1.908201
H	2.363899	0.0	0.0
