15

C	-0.414939	-0.001197	-1.441021
C	0.0	0.0	0.0
F	0.177392	-1.005488	-2.122466
H	1.090217	0.0	0.0
H	-0.146034	0.954013	-1.889901
N	-1.919364	-0.128803	-1.633561
O	-2.604227	0.535677	-0.865808
O	-2.323091	-0.807396	-2.565767
N	-0.433783	-1.181763	0.720424
O	-1.144478	-2.001769	0.115384
O	0.03341	-1.344903	1.849791
N	-0.350688	1.248362	0.665668
O	-0.073193	2.263481	0.01338
O	-0.790946	1.246089	1.814525
H	2.359642	0.0	0.0
