15

C	-0.597604	0.014124	-1.375937
C	0.0	0.0	0.0
F	-1.878274	0.488124	-1.386608
H	1.088203	0.0	0.0
H	-0.583393	-0.989917	-1.789561
N	0.213023	0.843588	-2.347478
O	-0.231406	1.921459	-2.719832
O	1.257836	0.30911	-2.705184
N	-0.362476	-1.195173	0.730426
O	0.093768	-1.276116	1.878427
O	-0.947382	-2.12045	0.134294
N	-0.338537	1.231989	0.72001
O	0.060144	2.245962	0.138878
O	-0.934666	1.211996	1.792543
H	2.335028	0.0	0.0
