15

C	-0.520612	0.213792	-1.400434
C	0.0	0.0	0.0
F	0.319093	1.011494	-2.105645
H	1.10577	0.0	0.0
H	-1.511669	0.665495	-1.396119
N	-0.676898	-1.082481	-2.164367
O	-1.683852	-1.722157	-1.880106
O	0.15806	-1.366963	-3.00929
N	-0.325509	-1.309106	0.56869
O	-1.110701	-1.41014	1.51312
O	0.280227	-2.245926	0.033606
N	-0.390784	1.086466	0.856984
O	-0.928873	2.090825	0.34562
O	0.020752	1.02726	2.02499
H	2.30922	0.0	0.0
