15

C	-0.387325	0.044102	-1.448102
C	0.0	0.0	0.0
F	0.266192	-0.88809	-2.173749
H	1.105686	0.0	0.0
H	-0.165576	1.034658	-1.843733
N	-1.880334	-0.152627	-1.669417
O	-2.235061	-0.792195	-2.648907
O	-2.609311	0.425418	-0.872334
N	-0.421392	-1.208041	0.670437
O	-0.032346	-1.368769	1.831228
O	-1.014829	-2.064505	-0.008931
N	-0.368635	1.22575	0.690478
O	-0.057945	2.258522	0.079018
O	-0.872771	1.196547	1.812215
H	2.334061	0.0	0.0
