15

C	-0.43206	0.018191	-1.433835
C	0.0	0.0	0.0
F	0.196593	-0.934004	-2.158038
H	1.105583	0.0	0.0
H	-0.221645	0.99857	-1.859204
N	-1.932952	-0.179553	-1.602971
O	-2.31985	-0.849695	-2.549159
O	-2.635658	0.428292	-0.803462
N	-0.399229	-1.201496	0.701846
O	-1.056925	-2.047196	0.071189
O	0.06048	-1.362769	1.835503
N	-0.3516	1.231631	0.688233
O	-0.104386	2.261772	0.043241
O	-0.764427	1.210386	1.847118
H	2.335116	0.0	0.0
