15

C	-0.470372	-0.012151	-1.426551
C	0.0	0.0	0.0
F	-1.769823	-0.385579	-1.575832
H	1.087047	0.0	0.0
H	0.165433	-0.697076	-1.990452
N	-0.291858	1.337711	-2.084678
O	0.746136	1.926292	-1.813666
O	-1.143316	1.684339	-2.892107
N	-0.321411	-1.288715	0.604866
O	-0.038315	-2.260782	-0.109798
O	-0.74138	-1.358877	1.759894
N	-0.495518	1.114663	0.78546
O	0.006148	1.262633	1.902521
O	-1.320375	1.882383	0.264508
H	2.35479	0.0	0.0
