15

C	-0.57889	-0.158681	-1.376308
C	0.0	0.0	0.0
F	-1.929691	-0.330968	-1.371016
H	1.105192	0.0	0.0
H	-0.114565	-1.020233	-1.853052
N	-0.253545	1.011725	-2.280398
O	0.944239	1.247869	-2.392159
O	-1.169174	1.560828	-2.874673
N	-0.303879	-1.203335	0.768038
O	-0.63998	-1.13928	1.951186
O	-0.091271	-2.259778	0.150483
N	-0.383182	1.224777	0.665066
O	0.104347	1.424718	1.78263
O	-1.052761	2.052235	0.020468
H	2.309503	0.0	0.0
