15

C	-0.412383	0.174594	-1.43258
C	0.0	0.0	0.0
F	0.044027	-0.805923	-2.253398
H	1.105332	0.0	0.0
H	-0.053383	1.134461	-1.79828
N	-1.91607	0.205002	-1.636224
O	-2.629024	-0.338178	-0.799744
O	-2.297582	0.737763	-2.675811
N	-0.399681	-1.255519	0.629357
O	-0.881553	-1.260966	1.760808
O	-0.140936	-2.261086	-0.03868
N	-0.374841	1.167568	0.762598
O	0.059226	1.251304	1.915247
O	-0.982485	2.079026	0.165199
H	2.349147	0.0	0.0
