13
Coordinates from ORCA-job run
  C   -0.56515366757259      0.07544110566225      0.12804471078130
  C   0.74285683907725     -0.20695817275779     -0.19466298270199
  N   -1.10710773206116      1.23706296421330      0.48446247725979
  H   -2.09131755882450      1.25272935287480      0.70254371772572
  H   -0.50967003551361      2.04320789646674      0.58461625172617
  N   -1.58627140924637     -1.02257187812150      0.08208670894701
  O   -2.73307482531044     -0.69443303126333      0.37701191980417
  O   -1.21615688686785     -2.14454550065266     -0.23682210141297
  C   1.26651381677726     -1.46864542224222     -0.57492139212392
  N   1.78083416089556     -2.47838844436807     -0.89679377632406
  N   1.74511104647719      0.85929329909351     -0.16046231212294
  O   2.88575515747420      0.56109527985824     -0.49342995868121
  O   1.38768109469508      1.98671255123672      0.19932673712293
