13
Coordinates from ORCA-job run
  C   -0.55354503238409      0.06922129961485      0.16851678818181
  C   0.75376356973806     -0.19440647845541     -0.15821757294898
  N   -1.11969996127441      1.21179129952549      0.56203867708423
  H   -2.12823334991311      1.24611556265085      0.54605280845133
  H   -0.56968215871448      2.05388645424363      0.48221247887215
  N   -1.53529767218939     -1.05626080793196      0.15153054096328
  O   -1.11087784903592     -2.19244970893851      0.31846809587345
  O   -2.70914067609969     -0.73058621877380     -0.01227444229693
  C   1.26087527132627     -1.44994610138784     -0.57997041240841
  N   1.73696513501535     -2.45777011598660     -0.95938496993033
  N   1.73673842415908      0.88632389525615     -0.17095355385209
  O   1.34979682124621      2.02482424185879      0.11591040099313
  O   2.88833747812614      0.58925667832438     -0.46392883898265
