13
Coordinates from ORCA-job run
  C   -0.56090209115448      0.04094457568113     -0.05854457177001
  C   0.78453226084143     -0.05864306330467     -0.22866541513863
  N   -1.47953592932516      0.21950285827618     -1.02917653188440
  H   -2.38147234993608      0.56467568626658     -0.73680138949295
  H   -1.15591153319441      0.52180604921659     -1.93687188329103
  N   -1.19236022899464     -0.16503831094202      1.26222806665793
  O   -0.92859114159036     -1.20612222719660      1.84718853950696
  O   -1.97932338297427      0.71106118320364      1.61067092520648
  C   1.33105162120303      0.03694394803493     -1.53203840532183
  N   1.67736249350000      0.14742354041906     -2.65243870406048
  N   1.71872896464177     -0.23433461986413      0.87884202535172
  O   2.77033341760354     -0.80640712728278      0.60705712444530
  O   1.39508789937963      0.22718750749210      1.96855021979094
