13
Coordinates from ORCA-job run
  C   -0.55586599128649      0.04953393866319      0.06134196072790
  C   0.72962181614573     -0.04949323686464     -0.37400315212383
  N   -1.63635793434137      0.29784070812428     -0.70290371517534
  H   -1.49315411299609      0.59839380009977     -1.65574717922177
  H   -2.46801490604343      0.63514738917978     -0.24346309726044
  N   -0.93159054278833     -0.21971188012769      1.46355049292444
  O   -0.87526437755424     -1.38533839066500      1.82835271418439
  O   -1.34020980446228      0.75163607266273      2.09108781274624
  C   1.01485984644346      0.16431897055589     -1.74544329710215
  N   1.12739315545758      0.36600933164227     -2.90032252581762
  N   1.85401375084828     -0.33536907936153      0.50785962152510
  O   1.67263915337972     -0.21865027602287      1.71562178944353
  O   2.90192994719745     -0.65431734788618     -0.04593142485045
