13
Coordinates from ORCA-job run
  C   -0.56184593988747      0.08989696082764      0.12263035086637
  C   0.73279934376564     -0.20057919801183     -0.22751233819708
  N   -1.13990011165876      1.27040558410325      0.35144425074798
  H   -0.54258358608281      2.08054636054717      0.42191492378973
  H   -2.04498469316934      1.25386546811639      0.79842917574162
  N   -1.53994535789311     -1.03461647806365      0.23481025770533
  O   -1.33947949199810     -2.03916916371664     -0.43573225057123
  O   -2.48989354450855     -0.83495870249971      0.98886386558418
  C   1.25431219689176     -1.49716124260116     -0.46705349419376
  N   1.75460117555392     -2.54556730411391     -0.66054364086032
  N   1.71712145006883      0.87360657601413     -0.34478223476466
  O   2.85398266543607      0.55507716512057     -0.67096963272778
  O   1.34481589348194      2.02865397427775     -0.11149923312038
