13
Coordinates from ORCA-job run
  C   -0.56688956062662      0.08178635287004      0.10515422038026
  C   0.73529259983948     -0.18761576640086     -0.23578837706291
  N   -1.17468938282010      1.25482695205014      0.29328283098838
  H   -2.07017205126468      1.23260240047428      0.75801514085910
  H   -0.59530725638884      2.08042183949206      0.32605378055784
  N   -1.51329745459625     -1.06192990875474      0.26459959670551
  O   -1.29201136777750     -2.08312109187232     -0.37371789862134
  O   -2.46113892167995     -0.86191739587119      1.02099937950386
  C   1.28900053504244     -1.48221469415170     -0.40894491054717
  N   1.80656477398249     -2.53133732042891     -0.54214979315214
  N   1.69793046865865      0.90322352105272     -0.36674466812361
  O   1.29002441632721      2.05873272382470     -0.20477198099459
  O   2.85369320130368      0.59754238771579     -0.63398732049319
