13
Coordinates from ORCA-job run
  C   -0.49522003536045     -0.02648318700320      0.31248337252868
  C   0.78889728378134     -0.10836430740475     -0.12932137789004
  N   -0.90921403768031     -0.13042293926409      1.59145964316336
  H   -1.83971081103637      0.20869779144938      1.79049292406062
  H   -0.21523749109192      0.00330226197951      2.31311836609081
  N   -1.61231612726037      0.05060897266170     -0.64912056726899
  O   -2.64098141791122      0.58200672263868     -0.23593781266564
  O   -1.44207905552375     -0.44156209894356     -1.75832586889416
  C   1.85133459613896     -0.21733388380944      0.79596054515225
  N   2.69598283170602     -0.23428670702984      1.61733971704795
  N   1.16168545841713      0.05662724134122     -1.54183853275630
  O   1.77636166845767     -0.87598975032965     -2.04834523012797
  O   0.88149713736327      1.13319988371403     -2.05896517844056
