13
Coordinates from ORCA-job run
  C   -0.56742744877628      0.08792984803166      0.09366501950310
  C   0.76011397410543     -0.22499523313638     -0.06120335350956
  N   -1.13498207049035      1.22449791136989      0.50216092684679
  H   -0.54084671347339      2.03468989087981      0.59694752156515
  H   -2.12423782286544      1.32472811873533      0.32958561574075
  N   -1.58515037548834     -0.97029098259648     -0.17741611613611
  O   -1.25478229655672     -2.13845568975848     -0.01772173833319
  O   -2.69245703160639     -0.56264279519632     -0.52127418655395
  C   1.26426607509878     -1.47322262513303     -0.50845557021010
  N   1.73620424126291     -2.47959960761655     -0.89671987291199
  N   1.78230460039957      0.79450932487249      0.16087873656982
  O   1.41324553265985      1.91321928895778      0.53540956996120
  O   2.94674933573038      0.46863255059028     -0.03585655253191
