13
Coordinates from ORCA-job run
  C   -0.35095566739540      0.30022016319292      0.18907103265922
  C   0.83258108421144     -0.29070988967568     -0.48780561116694
  N   -1.23895146948957      1.06791044394871     -0.54978908395919
  H   -0.77195693903250      1.80544178436110     -1.05901993143270
  H   -2.00097169824109      1.41866490865675      0.01669838395952
  N   -1.14147503815377     -0.71153022911651      1.01196794874757
  O   -0.60603794914410     -1.79113659978678      1.22521525360128
  O   -2.22286445032815     -0.32477655569239      1.43968444381088
  C   1.12111891246855     -1.14184612962511     -1.56340345621368
  N   1.34195650918394     -1.84709524805430     -2.48140984104100
  N   1.67161145006961      0.24606549846613      0.40284805047996
  O   2.81674438990889      0.32116897664697      0.70217902932460
  O   0.54820086594214      0.94762287667818      1.15476378123049
