13
Coordinates from ORCA-job run
  C   -0.55840702670798      0.07636513620642      0.04091085891671
  C   0.73236922003473     -0.07321615947656     -0.36100268126571
  N   -1.59825613510992      0.44535194320773     -0.73188576541684
  H   -1.39841461501647      0.85831873402643     -1.63153529029589
  H   -2.42771516033642      0.76818334183493     -0.25797899252348
  N   -0.99282215919355     -0.29740572897744      1.40582705644571
  O   -0.74094228196750     -1.43491669722619      1.77599246364920
  O   -1.62709526722272      0.56480745829324      2.00742430482839
  C   1.07686094340294      0.19754521040743     -1.70784655395214
  N   1.24590435703107      0.46151805551422     -2.84335364028072
  N   1.81603241861321     -0.43701634840288      0.54583827227985
  O   1.68030243012772     -0.15926932273362      1.73285779156142
  O   2.79218327634488     -0.96926562267371      0.02475217605350
