13
Coordinates from ORCA-job run
  C   -0.56130880426901      0.01132930684049     -0.06705970759385
  C   0.78916509152985      0.01265643535488     -0.22340982433084
  N   -1.48044120041645      0.24772500264678     -1.02368973533694
  H   -1.17718144618140      0.69891630949272     -1.87528777954481
  H   -2.41499039724260      0.46009896042949     -0.70853988084420
  N   -1.18641149031402     -0.39509504442690      1.21082656858996
  O   -2.02706584377273      0.38243149589919      1.65501015774603
  O   -0.86450929233848     -1.48398612945567      1.66380937008948
  C   1.34502441310419      0.29392083491483     -1.49528736672329
  N   1.69854310775701      0.55404154862725     -2.58831923920545
  N   1.71858387344215     -0.21195223273678      0.87806830154173
  O   1.34777395214865      0.10540343966142      2.00392085411707
  O   2.81181803655283     -0.67748992724771      0.56995828149512
