13
Coordinates from ORCA-job run
  C   -0.52275232263943      0.13319644792074      0.24046764417240
  C   0.78780515678959     -0.07003557675841     -0.06656242436016
  N   -0.99656144660717      0.62084235332763      1.40694924165208
  H   -1.97394816947455      0.46940542547957      1.60050081960334
  H   -0.36494865976762      0.69422160453124      2.18932029211444
  N   -1.58734985905256     -0.13884402781489     -0.75198332646702
  O   -2.73632519886573      0.11604883178718     -0.39771402487426
  O   -1.24674725578979     -0.61648816861525     -1.82880164414622
  C   1.77151989650259      0.10791500648375      0.93334390592204
  N   2.53244165089048      0.28058494076069      1.81709771096462
  N   1.29961553083785     -0.44323216673273     -1.39671413238900
  O   1.66197779125282     -1.60740844847104     -1.52037193070557
  O   1.37527288592352      0.45379377810149     -2.22653213148668
