13
Coordinates from ORCA-job run
  C   -0.49542155434151     -0.02641542854048      0.31760255970889
  C   0.78047148522825     -0.10281199530500     -0.14752717332566
  N   -0.88424735973183     -0.10724379125099      1.60900054625793
  H   -0.21113260456662      0.12051351817146      2.32643361219569
  H   -1.83958941664103      0.18082550359207      1.77038118529344
  N   -1.63730563527831      0.08312221747992     -0.61998210010531
  O   -1.44500779093764     -0.23568731340134     -1.78675950514347
  O   -2.69499065643684      0.48302027647579     -0.13626494391557
  C   1.84915477540448     -0.24578619350218      0.76793329551240
  N   2.68539146824744     -0.34536470900879      1.59209092471846
  N   1.17456972401029      0.03006536654856     -1.55781640010025
  O   1.77006430094047     -0.93487640173838     -2.02508533395845
  O   0.94804326410286      1.09963895047935     -2.10900666713808
