13
Coordinates from ORCA-job run
  C   -0.50098335993417     -0.00303389528116      0.26001499696746
  C   0.81255482664587      0.07042690382951     -0.08340276974260
  N   -1.00846035683564      0.07709500220293      1.50664759223867
  H   -1.94171229773547     -0.28383293206216      1.63615651816078
  H   -0.37347516122687     -0.03104983672562      2.28431485458516
  N   -1.56930898474263     -0.05530865157881     -0.76159162602088
  O   -1.57855967574775      0.83405644159916     -1.60069094266298
  O   -2.38800009240500     -0.95933347221244     -0.61800211690752
  C   1.78982800020359      0.22695625471626      0.92994968420554
  N   2.51274596074474      0.34038272252327      1.85295480188970
  N   1.28704076572878     -0.03966777128785     -1.45955397881084
  O   2.35887557646376      0.50762179026257     -1.70131022876795
  O   0.59945479884081     -0.68431255598568     -2.24448678513455
