13
Coordinates from ORCA-job run
  C   -0.57075846644688      0.07883575968497      0.08422035898272
  C   0.74414155523755     -0.19024495696995     -0.20414700561483
  N   -1.20025498880683      1.25121663517396      0.18381674794178
  H   -2.10801934394697      1.24264121208090      0.62464139629993
  H   -0.63400327251512      2.08651299923160      0.18109880604627
  N   -1.50512563039213     -1.06790233156528      0.28702263168828
  O   -1.25185955324591     -2.12209794775355     -0.28197980411001
  O   -2.47631422813957     -0.83763097764440      1.00418360279338
  C   1.32085538727604     -1.48386957829410     -0.28303393507035
  N   1.85688234233301     -2.53077535224639     -0.33744021585261
  N   1.69469786000789      0.90587015650734     -0.37360134504540
  O   2.86244594716382      0.60299475613212     -0.58685176698342
  O   1.26531239147511      2.06244962566279     -0.29692947107574
