13
Coordinates from ORCA-job run
  C   -0.49894408030958      0.10025625929467      0.28134585298362
  C   0.78907709307594     -0.11498499541699     -0.11039756556675
  N   -0.89670509882732      0.48687674783697      1.51373004960668
  H   -1.86071636956271      0.79367363483842      1.56317910955244
  H   -0.23306880477588      0.92647378869761      2.13636822645971
  N   -1.63308927321132     -0.14412348875687     -0.63533104784063
  O   -1.44997778261735     -0.92556250445420     -1.56327037141397
  O   -2.68051471308913      0.45092368757771     -0.37337510491225
  C   1.82379474335173     -0.02592776110861      0.85566750757536
  N   2.60238070844001      0.08429851987537      1.73363453829010
  N   1.21756310624163     -0.46344761716817     -1.46753826442751
  O   1.96209572693537     -1.43542987927138     -1.55108529541968
  O   0.85810474434860      0.26797360805546     -2.38292763488713
