13
Coordinates from ORCA-job run
  C   -0.54498666497309      0.08016704910893      0.18732702295480
  C   0.69289888448388     -0.15445652394868     -0.35739712745323
  N   -1.02882123800370      1.18187876709241      0.76524512343807
  H   -0.37580814415492      1.92433575884557      0.96764600795340
  H   -1.87404257100792      1.07552071797027      1.30641653151115
  N   -1.57122565380232     -1.00110689117623      0.11760627789564
  O   -2.42285409329912     -0.97968634535513      1.00375200061825
  O   -1.50515404154294     -1.79586208234158     -0.81192877578043
  C   1.10894471738785     -1.37045846913149     -0.95743043959838
  N   1.51516624431021     -2.36268628468635     -1.44392507507596
  N   1.73284318898916      0.86765973069486     -0.27823912983162
  O   2.82818355202694      0.58606790676723     -0.74880014441544
  O   1.44485581958599      1.94762666616019      0.24972772778374
