13
Coordinates from ORCA-job run
  C   -0.55487582203291      0.05197438841354      0.07779567514786
  C   0.71154951826178     -0.06105171122230     -0.40582874618289
  N   -1.64950687372110      0.41195683910064     -0.62089230464071
  H   -1.52035857720416      0.83348434187980     -1.53012305794590
  H   -2.43969811771881      0.74276399748324     -0.08783490775976
  N   -0.89124016513854     -0.32527480631898      1.46499542712502
  O   -1.31927629211793      0.58407294633944      2.16927233463001
  O   -0.78015559835399     -1.50971215947670      1.74748485535225
  C   0.95796722818141      0.24284023801685     -1.76902627733122
  N   1.02531235323861      0.54431880252327     -2.90565627165958
  N   1.85646012113786     -0.42343255647630      0.41701751029683
  O   2.86435540946154     -0.77263806345711     -0.19323538438524
  O   1.73946681600625     -0.31830225680539      1.63403114735331
