13
Coordinates from ORCA-job run
  C   -0.50290979851338      0.06654475905243      0.24731506502705
  C   0.81499911757237     -0.06677887398906     -0.05916859777571
  N   -1.03308030073609      0.14906458482898      1.48431516336266
  H   -0.45418183264910     -0.12085024630699      2.26642963573156
  H   -2.01849967600435     -0.05184400380349      1.56545326130593
  N   -1.52690667478929      0.27012669855228     -0.80037762940162
  O   -1.35477054614053      1.20429983765587     -1.57034884832519
  O   -2.49172596522082     -0.48757023800650     -0.74441736157593
  C   1.76800391172471     -0.15377352011328      0.98514758857591
  N   2.46617070680099     -0.22701488279470      1.93100994341797
  N   1.31200321270465     -0.16338215847690     -1.42849554679114
  O   2.47037604636584      0.20281086540669     -1.60415180908277
  O   0.55152179888499     -0.62163282200531     -2.27471086446873
