13
Coordinates from ORCA-job run
  C   -0.57246765145465      0.07943090118149      0.09215834891417
  C   0.75204931321366     -0.21981453816788     -0.12415467670971
  N   -1.15471686390263      1.27719566702580      0.11805771698353
  H   -0.57056083945175      2.10035272854718      0.07644030778880
  H   -2.15373907352594      1.32211956394214      0.24013390717139
  N   -1.54843406535086     -1.02559922216812      0.31401167122404
  O   -1.11510485795658     -2.10999794562162      0.68240431740337
  O   -2.72821216327170     -0.73854004682750      0.12399265537983
  C   1.32421524403521     -1.51706939178656     -0.14914140159408
  N   1.85364263255305     -2.56794727823805     -0.19289363390160
  N   1.71760010713628      0.85397010449434     -0.33979584646193
  O   2.85119938963309      0.52474950458916     -0.66673488790966
  O   1.34252882834283      2.02014995302961     -0.17447847828815
