13
Coordinates from ORCA-job run
  C   -0.57709769082137      0.05335018102061      0.02782532705919
  C   0.76115755828397     -0.21996691097832     -0.02510883394859
  N   -1.17593984754255      1.24679857632343     -0.05761012599673
  H   -0.63377452153929      2.05418634258815      0.20556182403605
  H   -2.18000346210375      1.28361903560512      0.02182309805328
  N   -1.55232400293955     -1.06833936778205      0.10431849762143
  O   -2.71990177794152     -0.75426378913068      0.31650321353677
  O   -1.12617997514666     -2.20598005852357     -0.06214745426724
  C   1.39592358584364     -1.46795749457500      0.16603512301906
  N   2.05053030768993     -2.43087230555122      0.34288441277106
  N   1.68052569757617      0.88941999594154     -0.28202171601001
  O   1.42635638215863      1.97985727222023      0.23340395722240
  O   2.65172774648237      0.64014852284178     -0.99046732309668
