13
Coordinates from ORCA-job run
  C   -0.54233673950417      0.07623275507650      0.19788969855057
  C   0.68474099287438     -0.15073644703365     -0.37477500772894
  N   -1.02212969582504      1.17881311714823      0.77615308825865
  H   -0.37983790318237      1.94059051789429      0.93667645106739
  H   -1.85815305939023      1.07469149885493      1.33164538084798
  N   -1.55667107572015     -1.01704074834084      0.16799194563655
  O   -1.50114744825359     -1.82609946527944     -0.74964054044064
  O   -2.38915385137493     -0.99096234515705      1.07188577599420
  C   1.10160064631469     -1.36859463669778     -0.97120260503392
  N   1.50583561626851     -2.35915857342592     -1.46277193110870
  N   1.71817641672336      0.87937568680422     -0.32065334686986
  O   2.81871594297164      0.58984111930425     -0.77470403484145
  O   1.42136015809791      1.97304752085227      0.17350512566816
