13
Coordinates from ORCA-job run
  C   -0.48569421678990     -0.02377888257094      0.29173530227564
  C   0.79898933736534      0.04780199613569     -0.15161577848928
  N   -0.87427511460447     -0.07414699675688      1.57558957432939
  H   -1.83522368923322      0.10654874926247      1.81338445315527
  H   -0.18557172249377      0.04192125440988      2.30457327604239
  N   -1.62729976434025     -0.05103896874647     -0.65245466577796
  O   -1.61222926832682      0.78589792898834     -1.54738515317256
  O   -2.51601727614584     -0.85936377293339     -0.40000338265316
  C   1.84259038237305      0.22858362892293      0.78854818424968
  N   2.62461154848649      0.37364199152287      1.65775167183908
  N   1.18350609216570     -0.14062879172709     -1.54520255110942
  O   2.21904606287226      0.41892787736289     -1.89464075648736
  O   0.46756762867143     -0.85436601387029     -2.24028017420171
