13
Coordinates from ORCA-job run
  C   -0.57233395386285      0.08896532515628      0.06638043749186
  C   0.74120033398585     -0.23435697915440     -0.17587085406483
  N   -1.14548850484916      1.28912136618535      0.12308380431489
  H   -2.08903119136736      1.35859040203301      0.46998558898336
  H   -0.60794244451569      2.10277892604946     -0.13062471376894
  N   -1.55181081097738     -1.00754994970827      0.34518352777033
  O   -2.59580778669972     -0.65608488193824      0.89030416071783
  O   -1.24531432047566     -2.14894691540998      0.02924184810907
  C   1.27783964124245     -1.54182148215192     -0.29916590367674
  N   1.82283833365562     -2.57523569542826     -0.44788190259644
  N   1.73351090099728      0.83111659507810     -0.27343113351748
  O   2.89864614668718      0.53160970798788     -0.04118939429240
  O   1.33369365617945      1.96481358130099     -0.55601546547051
