13
Coordinates from ORCA-job run
  C   -0.44610715655898      0.01691559426235      0.38224260993489
  C   0.74445786876014     -0.13022103264901     -0.26000228378992
  N   -0.65114234683134     -0.08494287927134      1.71128261163663
  H   -1.55869750616018      0.19303055292491      2.04740770996291
  H   0.13356483273628     -0.06791290621831      2.34102320066152
  N   -1.69046727147646      0.28887634863285     -0.37471810363792
  O   -1.59633010893483      0.40179891276580     -1.59206778673175
  O   -2.71807173106239      0.40787101329771      0.29062085227102
  C   1.91643143701471     -0.36618204113133      0.49313818566323
  N   2.85290144693786     -0.55831234393973      1.18368662210966
  N   0.93556333955792     -0.04733539789074     -1.71965175572397
  O   0.83048355086853     -1.10202163722535     -2.33364636727850
  O   1.24641364514875      1.04743581644219     -2.17031549507781
