13
Coordinates from ORCA-job run
  C   -0.56194807614100      0.09414086009827      0.11826009599378
  C   0.72591926456399     -0.19553057711024     -0.25815572130938
  N   -1.12262883819690      1.26934682934978      0.40983404473309
  H   -2.01652064690859      1.24177440740081      0.87747525690258
  H   -0.51192133397035      2.06726679919397      0.50471847373998
  N   -1.55055276581330     -1.02245876927755      0.19360297381777
  O   -1.37350111328412     -1.99517500626972     -0.52875570493875
  O   -2.48374333965141     -0.85026533151161      0.97459933802865
  C   1.22851941538485     -1.49139802410033     -0.54136870825381
  N   1.70534508066952     -2.54509010524919     -0.76220235324954
  N   1.72795543759086      0.86596298465592     -0.31310733906305
  O   2.86825183844440      0.54082224467852     -0.62090579263011
  O   1.36582507731203      2.01860368814136     -0.05199456377122
