13
Coordinates from ORCA-job run
  C   -0.57033039761790      0.09073461858383      0.03324590749243
  C   0.76552782858472     -0.21299881714011     -0.08697013374748
  N   -1.14291268655208      1.24030841998165      0.38307775822469
  H   -0.56616285776091      2.05817084808159      0.50960904251084
  H   -2.14363559560963      1.26022494566173      0.49906614577359
  N   -1.58173887030880     -0.98914888649080     -0.18545000232934
  O   -2.68657509223941     -0.79227599239448      0.31333156971960
  O   -1.24893381703928     -1.95735926425802     -0.85736526033333
  C   1.30195824635794     -1.47610059370937     -0.44379323510668
  N   1.78480674585620     -2.50730908865062     -0.74425065669986
  N   1.76898052576967      0.82700936156335      0.12955523685335
  O   1.37483265939332      1.97337152747158      0.37017130887526
  O   2.94418331116616      0.48537292129966      0.08077231876692
