13
Coordinates from ORCA-job run
  C   -0.56541660203753      0.09485072480028      0.10243768234508
  C   0.73246185503567     -0.19118686511560     -0.24165763647023
  N   -1.12462805144290      1.26187458329061      0.42896085666268
  H   -0.50776951995407      2.04551142669759      0.58396560814499
  H   -2.03222907222732      1.22229278277042      0.86856522657533
  N   -1.56712861155296     -1.01238203854960      0.08934323431168
  O   -1.37431814290416     -1.95248620958415     -0.67078939836183
  O   -2.52518535329925     -0.86617632349165      0.84519867703507
  C   1.23015686459310     -1.47571104905261     -0.57907917799136
  N   1.70070850207378     -2.52152860437659     -0.84611000336944
  N   1.74783986547429      0.85857913585321     -0.20259917993417
  O   1.38694891533237      2.00295069667068      0.09390871368625
  O   2.89755935090897      0.53241174008741     -0.47214460263406
