13
Coordinates from ORCA-job run
  C   -0.55355048907410      0.09220295830536      0.15553318331356
  C   0.70326547507941     -0.19535472685318     -0.31512779309221
  N   -1.11226124301968      1.27142224542113      0.43660211198389
  H   -1.95358958702801      1.25100165526923      0.99390982146315
  H   -0.51168881482314      2.08243326985012      0.43823420282116
  N   -1.50878589799494     -1.03495858534861      0.36699596517661
  O   -2.36655044603772     -0.84595167648691      1.22669702589311
  O   -1.38261749389150     -2.03267798021664     -0.33150348100978
  C   1.20438927258323     -1.49657735122776     -0.57615603696928
  N   1.68011140930000     -2.55353712303564     -0.78328025572960
  N   1.68091846391455      0.87540151714653     -0.49091704361693
  O   2.80883321836745      0.54911117580257     -0.84009343667085
  O   1.31152613262445      2.03648462137381     -0.28189426356284
