13
Coordinates from ORCA-job run
  C   -0.54240145525435      0.07240584669034      0.19873283442477
  C   0.73888757084707     -0.20614734626459     -0.20962601572930
  N   -1.04766550364944      1.19737774023047      0.70735756927545
  H   -0.46785351630376      2.02281240330310      0.68781757507443
  H   -2.05390969155666      1.26660662139461      0.74480154238083
  N   -1.56825943835757     -1.01158982874939      0.13191994804258
  O   -2.73577569784515     -0.63156287884472      0.07160146157155
  O   -1.18185749460415     -2.17277672383203      0.16047851416357
  C   1.18804046812418     -1.44370819754783     -0.73824560986583
  N   1.61114503009162     -2.43757299125712     -1.20676949315778
  N   1.75624027803011      0.84288119685003     -0.18808472555929
  O   2.87019335530334      0.54565579197933     -0.60245895907312
  O   1.43421609517477      1.95561836604779      0.24247535845215
