13
Coordinates from ORCA-job run
  C   -0.55664875277730      0.07215313757342      0.10168933988482
  C   0.74136025986152     -0.18149911061166     -0.25989716165022
  N   -1.20246420337397      1.22787401092980      0.25238336217463
  H   -2.09236492814963      1.20593209909289      0.72434032357919
  H   -0.70319782176134      2.08833953016329      0.09716207630831
  N   -1.43563550444274     -1.08370837412167      0.42240287606235
  O   -2.28555314130588     -0.89763353999551      1.29019224193874
  O   -1.29156667787994     -2.09646583002568     -0.25606067276408
  C   1.33345390491032     -1.47097779505538     -0.29746244287827
  N   1.86207481188300     -2.52171552073312     -0.26397217704772
  N   1.64316979993567      0.92834378545896     -0.53586245657457
  O   1.15891675837912      2.06671743659151     -0.57335055852781
  O   2.82845549472116      0.66264017073314     -0.70156475050536
