13
Coordinates from ORCA-job run
  C   -0.56365313224230      0.09258162514022      0.11332735009841
  C   0.72816362268174     -0.18834258740017     -0.25686859860598
  N   -1.12214235453033      1.25800347014788      0.44564000472576
  H   -0.50835247412571      2.04815770335048      0.57754601184677
  H   -2.02066280384360      1.21657074884829      0.90322529457935
  N   -1.55932221027905     -1.02018046185329      0.12684594665973
  O   -1.37671448824475     -1.96338587226025     -0.63210575407182
  O   -2.50295239044809     -0.87472292374544      0.90076769172770
  C   1.22679486139277     -1.47348026487981     -0.59191138741723
  N   1.69979413149272     -2.51850549032035     -0.85744600243102
  N   1.73818190328135      0.86637321155585     -0.24428409400662
  O   2.88554413823815      0.54331886696848     -0.52712041081654
  O   1.37532119662709      2.01261197444811      0.04338394771150
