13
Coordinates from ORCA-job run
  C   -0.54434958501474      0.13377718746301      0.06801355762040
  C   0.73711928717329     -0.05056851813089     -0.35373445572275
  N   -1.55370073604581      0.63741618106648     -0.66655977682526
  H   -2.49789339562847      0.48066640092172     -0.34821768929173
  H   -1.42595692343753      0.72189723155870     -1.66409590078915
  N   -0.95413470118534     -0.13496578312319      1.45887387144466
  O   -0.72716063037157      0.74640613838560      2.27484739542239
  O   -1.54731193411873     -1.19426534752662      1.62960947659129
  C   1.06931578016022      0.23546127688668     -1.70157616326274
  N   1.22481736523100      0.48904146224927     -2.84080408408115
  N   1.80158244159239     -0.55664409232702      0.50366148845454
  O   1.49285141483834     -0.94171318707606      1.62655904900634
  O   2.92582161680696     -0.56550895034769      0.01242323143317
