13
Coordinates from ORCA-job run
  C   -0.52785894554220      0.16151453139570      0.08431525366241
  C   0.70890615820150     -0.13719682217081     -0.40185363000372
  N   -1.55448531336734      0.65968240994260     -0.61938021532513
  H   -1.46857183559457      0.79553261217672     -1.61483058970188
  H   -2.46880423990129      0.72165327141237     -0.20448213658168
  N   -0.87750796314572     -0.06526129751062      1.50303758487699
  O   -1.28386480471897      0.91517362819879      2.11749351291047
  O   -0.79642916543899     -1.21992111179861      1.90059915492659
  C   0.94383772764338     -0.04440506969802     -1.79511037939865
  N   1.00390877748265      0.07367750103619     -2.96525108500938
  N   1.82093143521275     -0.52454577733632      0.45360306946929
  O   2.73134444634668     -1.14208263154898     -0.09186096099341
  O   1.76759372282213     -0.19382124409902      1.63472042116809
