13
Coordinates from ORCA-job run
  C   -0.54688134510149      0.10014829703953      0.16993999404353
  C   0.75086052030311     -0.22070602649738     -0.14207762746551
  N   -1.10514046775662      1.29451832751384      0.37637498377927
  H   -2.11360645870308      1.33102246095358      0.37450120607927
  H   -0.55617186969119      2.11116901387696      0.15253869939584
  N   -1.52751019693099     -1.00855095780977      0.36769747295565
  O   -1.10067639944004     -2.08886387197371      0.75497240223784
  O   -2.70113952369734     -0.72235255892087      0.14183198107610
  C   1.24657653157995     -1.53387470038972     -0.34718821685747
  N   1.70087273968055     -2.60006356370831     -0.55483866237249
  N   1.73040769879226      0.83776364475579     -0.37304885901744
  O   2.86305786712154      0.49024203500096     -0.68523031099097
  O   1.36135090384335      2.00954790015910     -0.23647306286362
