13
Coordinates from ORCA-job run
  C   -0.55682092424727      0.11562716500882      0.11915910089179
  C   0.76547199277289     -0.21757298622120     -0.03199323821941
  N   -1.14888696953800      1.31204310881481      0.10114369539561
  H   -2.15091722542668      1.31476600917255     -0.01823684314334
  H   -0.59804540891949      2.09978381868560     -0.20566009318769
  N   -1.53598686430628     -0.97926364665027      0.38460573361904
  O   -2.66991131283195     -0.78748542651355     -0.04948657640716
  O   -1.15006949281963     -1.95126542207469      1.02092046215636
  C   1.28189563710713     -1.53832405777791     -0.00494304986537
  N   1.75533536395061     -2.61621467986318     -0.01305297619725
  N   1.74778539493954      0.81416791598295     -0.35246208002589
  O   2.90142207858267      0.44697324136558     -0.54010980043478
  O   1.35772773073646      1.98576496007049     -0.40988433458190
