13
Coordinates from ORCA-job run
  C   -0.53177113301779     -0.01955332774915      0.21959236037221
  C   0.66979632834092     -0.21917369077016     -0.38200845427105
  N   -0.82420830898093      0.94020057042426      1.12053672584139
  H   -0.13923764316854      1.63371220248748      1.36774667797148
  H   -1.79867778744229      1.14733835771290      1.26805506477916
  N   -1.65153596050408     -0.95717013325861     -0.00788577407433
  O   -1.41682148693932     -1.96338845750477     -0.66884896437538
  O   -2.73716934107850     -0.62989749653042      0.46492305844279
  C   1.13222827953219     -1.27693501552941     -1.18704580281491
  N   1.66876226394995     -2.08498919314635     -1.85661984547462
  N   1.64666212077587      0.86695539737297     -0.17154395183276
  O   2.11292978599483      0.96990152274440      0.96378957163009
  O   1.86804288253771      1.59299926374686     -1.13069066619408
