13
Coordinates from ORCA-job run
  C   -0.51864808807718      0.06060077821611      0.26071510705344
  C   0.64867631115415     -0.15462611512363     -0.43322021362622
  N   -0.96077612668517      1.17374748242500      0.84481084504348
  H   -0.33363259590468      1.96062806533522      0.91061176953169
  H   -1.77070947586528      1.08846810936295      1.44046225235113
  N   -1.50583235453374     -1.05801257366858      0.38274268855988
  O   -2.37290179982594     -0.90755331402071      1.24057359330047
  O   -1.38962449901315     -2.01693627514360     -0.36860055876064
  C   1.05405390034045     -1.37447207262266     -1.03253861957755
  N   1.46274671195902     -2.35809705544385     -1.53508019464215
  N   1.63882684584373      0.91720866343951     -0.54139359722956
  O   2.66827707598327      0.66365415805092     -1.15532849576061
  O   1.38054409462451      2.00439014919332     -0.01375457624336
