13
Coordinates from ORCA-job run
  C   -0.54131420203458      0.08089877858277      0.20047708314248
  C   0.73924838300728     -0.21393431965904     -0.19703422548193
  N   -1.04845820287332      1.22334794074026      0.66736491828026
  H   -0.46963731691337      2.04800203013357      0.61185637077626
  H   -2.05463316549444      1.29693276439949      0.69090119406148
  N   -1.56255580819529     -1.00698545179335      0.17563637347294
  O   -1.17522749758703     -2.16088239089212      0.30915586067631
  O   -2.72700049661722     -0.63625813468070      0.04408065364591
  C   1.17813074294936     -1.46746795814819     -0.69534847117136
  N   1.59256746259884     -2.47515236558457     -1.14194916736641
  N   1.75820651617293      0.83251933254769     -0.21778161768407
  O   1.43935356564097      1.95939137449065      0.17794637605183
  O   2.87032001934588      0.51958839986355     -0.62530534840371
