13
Coordinates from ORCA-job run
  C   -0.55431342415210      0.08771711808516      0.15925986560018
  C   0.70682884574807     -0.19507354789633     -0.30489555768002
  N   -1.10953960623682      1.26549291097461      0.45010512592407
  H   -1.97009410584895      1.24677263118014      0.97656833556092
  H   -0.50780734025707      2.07544965949398      0.46503757448088
  N   -1.51637597257787     -1.03911208768158      0.34832723368700
  O   -2.41518305989018     -0.83498630019318      1.16120707722220
  O   -1.35242722654691     -2.05368656245764     -0.31661506592668
  C   1.21086449065442     -1.48913392621060     -0.59381049393883
  N   1.69250888044861     -2.53743430174164     -0.82946168575531
  N   1.68493689060295      0.87948711986941     -0.46343979682487
  O   1.32468007555312      2.03450537346786     -0.20971208502628
  O   2.80592155250272      0.56100191310982     -0.84157052732328
