13
Coordinates from ORCA-job run
  C   -0.55702849995175      0.10846590771691      0.12920423877335
  C   0.75599487282486     -0.22956196701677     -0.08438799350108
  N   -1.12065740915573      1.31282892639435      0.23937792642486
  H   -2.12585204189312      1.35199877522085      0.16269454263659
  H   -0.55127696690788      2.11591093559520      0.01693122244100
  N   -1.55494624200792     -0.98640138606889      0.31894750096102
  O   -1.15864355685915     -2.04831211332177      0.78157923492189
  O   -2.71170231417655     -0.70704073640802      0.01209259931945
  C   1.26104685075983     -1.55184324115129     -0.18062426247605
  N   1.73176635941718     -2.62487484632276     -0.29693118872813
  N   1.75246315842363      0.81497024504323     -0.30943976206510
  O   1.38407524415288      1.99258076628364     -0.23623791879420
  O   2.89676054537372      0.45027873403529     -0.55220613991360
