13
Coordinates from ORCA-job run
  C   -0.53234419773246      0.07550446940743      0.22017144621985
  C   0.73705952500251     -0.20375863334793     -0.21969348888863
  N   -1.03795971971717      1.20666288016352      0.71704499317985
  H   -0.46945168389621      2.03812748530096      0.65208339262709
  H   -2.04489220111576      1.27370752665873      0.74778605649430
  N   -1.54401038219176     -1.02130056757336      0.20802893346866
  O   -1.14680233563244     -2.16807381293771      0.37322036718245
  O   -2.71032732520334     -0.66324634398462      0.05953421190172
  C   1.16566877868659     -1.45251324499176     -0.73893145485285
  N   1.56205016228723     -2.45775210218024     -1.20635972160256
  N   1.74533734852490      0.85018070146827     -0.26216312427992
  O   1.43157839714739      1.96767152342619      0.16316469547652
  O   2.84509363384050      0.55279011859052     -0.71288630692647
