13
Coordinates from ORCA-job run
  C   -0.53714706846627      0.08315135345100      0.21838356204196
  C   0.71009760882663     -0.22192664555431     -0.27767117017391
  N   -1.02534544421736      1.26500580921500      0.58773846474441
  H   -0.45497447983404      2.08639958119550      0.45246200727571
  H   -1.99503978908205      1.31176588782041      0.86070545088779
  N   -1.53429195166994     -1.01672910082441      0.42320482666055
  O   -1.17388710090368     -2.16974519942769      0.22590272371027
  O   -2.65267465067157     -0.65829685684081      0.78329703212571
  C   1.18010154591167     -1.50718150304814     -0.64940403220367
  N   1.64921285600007     -2.53547805830523     -0.98144443414866
  N   1.68890082221023      0.84483561711473     -0.49316968476632
  O   1.37811514691908      1.99799962996676     -0.17326285317027
  O   2.76693250497727      0.52119948523718     -0.97574189298356
