16

C	-0.108642	-0.009705	-1.529165
C	0.0	0.0	0.0
Cl	-1.833355	-0.102497	-2.132277
H	1.101131	0.0	0.0
N	0.451289	1.235588	-1.993738
H	0.568822	1.195425	-2.999838
H	1.383321	1.285455	-1.569866
N	0.547721	-1.233317	-1.953056
H	1.504121	-1.150747	-1.583223
H	0.600732	-1.243381	-2.967014
N	-0.491754	-1.168788	0.699727
H	0.094405	-1.946539	0.419865
H	-1.434456	-1.373093	0.376327
C	-0.534269	1.22072	0.586565
N	-0.975725	2.174644	1.111266
H	2.740812	0.0	0.0
