13

C	0.0	0.0	0.0
C	-0.526867	-0.435185	-1.377657
Cl	1.79475	0.0	0.0
H	-1.596943	-0.610051	-1.223147
H	-0.024065	-1.374324	-1.622498
C	-0.42484	1.358678	0.344894
N	-0.62446	2.483182	0.61739
C	-0.394695	-0.963617	1.036028
N	-0.60193	-1.787551	1.847187
N	-0.252653	0.602659	-2.353916
H	-1.11868	1.071264	-2.590657
H	0.147493	0.214732	-3.195136
Cl	-3.493832	0.0	0.0
