13

C	0.0	0.0	0.0
C	-0.541322	0.405979	-1.380621
Cl	1.794822	0.0	0.0
H	-1.603407	0.601862	-1.207613
H	-0.026415	1.328708	-1.665031
C	-0.393727	0.97763	1.021382
N	-0.581949	1.811905	1.82597
C	-0.425829	-1.350541	0.375019
N	-0.641681	-2.466307	0.672369
N	-0.308174	-0.670438	-2.326215
H	-1.191349	-1.110079	-2.550562
H	0.122132	-0.330918	-3.174811
Cl	-3.518549	0.0	0.0
