13

C	0.0	0.0	0.0
C	-0.521247	0.361217	-1.403138
Cl	1.794098	0.0	0.0
H	-1.551139	-0.003287	-1.435122
H	0.101684	-0.181712	-2.119809
C	-0.43474	0.958945	1.018602
N	-0.662694	1.75597	1.851327
C	-0.394882	-1.368457	0.355452
N	-0.566718	-2.506438	0.591469
N	-0.409045	1.798434	-1.598394
H	-1.286359	2.214943	-1.303723
H	-0.283546	1.999599	-2.580015
Cl	-3.423594	0.0	0.0
