13

C	0.0	0.0	0.0
C	-0.530538	0.466072	-1.378646
Cl	1.795	0.0	0.0
H	-1.43761	1.038775	-1.182392
H	0.238314	1.107741	-1.813734
C	-0.384885	0.95926	1.0452
N	-0.545898	1.788485	1.861534
C	-0.419058	-1.355709	0.364578
N	-0.595601	-2.479251	0.658699
N	-0.754156	-0.695396	-2.222651
H	-0.808403	-0.389968	-3.186963
H	-1.676315	-1.045717	-1.967081
Cl	-3.309653	0.0	0.0
