13

C	0.0	0.0	0.0
C	-0.47313	0.750889	-1.30986
Cl	1.792714	0.0	0.0
H	0.204191	0.391688	-2.0907
H	-0.250566	1.808354	-1.133585
C	-0.466561	0.670292	1.209295
N	-0.770617	1.285112	2.163424
C	-0.429209	-1.395798	-0.055869
N	-0.710324	-2.529373	-0.183048
N	-1.818512	0.568226	-1.722697
H	-1.996933	-0.384383	-2.011841
H	-2.541416	0.776837	-1.029949
Cl	-4.415449	0.0	0.0
