13

C	0.0	0.0	0.0
C	-0.448281	0.034527	-1.512786
Cl	1.792669	0.0	0.0
H	-0.148534	1.023799	-1.875665
H	0.191403	-0.705135	-2.004705
C	-0.459125	1.176216	0.732458
N	-0.759911	2.174257	1.274814
C	-0.435645	-1.244203	0.631325
N	-0.722643	-2.294273	1.072976
N	-1.809747	-0.235114	-1.810223
H	-2.05828	-1.192226	-1.596677
H	-2.498593	0.324545	-1.306445
Cl	-4.390452	0.0	0.0
