13

C	0.0	0.0	0.0
C	-0.519098	-0.370378	-1.402532
Cl	1.794794	0.0	0.0
H	0.111072	-1.186732	-1.764615
H	-1.546542	-0.712478	-1.259327
C	-0.42173	1.338552	0.419474
N	-0.632527	2.451401	0.729932
C	-0.401278	-1.018055	0.978952
N	-0.557022	-1.915288	1.721219
N	-0.404477	0.78931	-2.273316
H	-0.335622	0.484789	-3.235398
H	-1.26432	1.319845	-2.180685
Cl	-3.392382	0.0	0.0
