13

C	0.0	0.0	0.0
C	-0.53889	0.359611	-1.401753
Cl	1.785812	0.0	0.0
H	-1.497752	-0.150026	-1.501439
H	0.1808	-0.02665	-2.126958
C	-0.43415	0.936388	1.040268
N	-0.631686	1.706045	1.90549
C	-0.393969	-1.369822	0.362401
N	-0.57983	-2.496646	0.638085
N	-0.640491	1.806415	-1.514296
H	-0.65439	2.059401	-2.494812
H	-1.546976	2.057326	-1.125701
Cl	-3.377231	0.0	0.0
