13

C	0.0	0.0	0.0
C	-0.514419	0.382175	-1.403185
Cl	1.791984	0.0	0.0
H	0.16112	1.151656	-1.78547
H	-1.516491	0.787845	-1.255974
C	-0.391065	1.019177	0.983883
N	-0.545497	1.895823	1.750248
C	-0.427327	-1.335789	0.42362
N	-0.612911	-2.442659	0.769988
N	-0.48094	-0.795432	-2.256479
H	-0.45577	-0.503673	-3.224963
H	-1.359378	-1.285663	-2.112378
Cl	-3.355566	0.0	0.0
