14

C	-0.446966	-0.029928	-1.451813
C	0.0	0.0	0.0
Cl	-2.272651	-0.420782	-1.500448
H	1.093793	0.0	0.0
H	0.017023	-0.883652	-1.938961
N	-0.113969	1.171192	-2.093372
H	-0.279185	1.134913	-3.087991
H	-0.569181	1.976435	-1.684887
N	-0.382576	-1.268436	0.697919
O	-0.823444	-1.195008	1.841439
O	-0.166571	-2.301989	0.074716
C	-0.532439	1.156802	0.699532
N	-0.926161	2.15048	1.187023
Cl	3.162138	0.0	0.0
