14

C	-0.391622	-0.053143	-1.478001
C	0.0	0.0	0.0
Cl	-0.105878	1.619132	-2.194309
H	1.091977	0.0	0.0
H	-1.460719	-0.220345	-1.603061
N	0.371743	-1.086813	-2.054201
H	1.36362	-0.961904	-1.858666
H	0.212075	-1.178563	-3.047783
N	-0.499466	-1.29422	0.601676
O	-1.719771	-1.462917	0.580045
O	0.325964	-2.074242	1.052487
C	-0.589907	1.097955	0.74057
N	-1.065837	1.971849	1.362541
Cl	3.244316	0.0	0.0
