14

C	-0.525989	-0.005341	-1.439343
C	0.0	0.0	0.0
Cl	0.262916	-1.297099	-2.399233
H	1.090296	0.0	0.0
H	-0.156419	0.922375	-1.888029
N	-1.950654	-0.181761	-1.477496
H	-2.345228	0.222178	-2.314518
H	-2.402984	0.200712	-0.657499
N	-0.506394	-1.217618	0.720982
O	0.173761	-2.232125	0.637483
O	-1.586652	-1.116672	1.308325
C	-0.501469	1.194621	0.671986
N	-0.88947	2.189252	1.161857
Cl	3.211431	0.0	0.0
