14

C	-0.520375	-6.6e-05	-1.459122
C	0.0	0.0	0.0
Cl	0.00396	-1.528558	-2.215382
H	1.091023	0.0	0.0
H	0.029339	0.797582	-1.963289
N	-1.928492	0.180523	-1.672697
H	-2.440821	-0.450303	-1.066782
H	-2.18224	1.130004	-1.426626
N	-0.499304	-1.222027	0.720039
O	-1.722853	-1.31152	0.867978
O	0.321047	-2.052274	1.080331
C	-0.526373	1.173489	0.681588
N	-0.957227	2.149119	1.1739
Cl	3.229491	0.0	0.0
