14

C	-0.393651	-0.058959	-1.477324
C	0.0	0.0	0.0
Cl	-0.115181	1.614171	-2.195333
H	1.091925	0.0	0.0
H	-1.462858	-0.224218	-1.602231
N	0.369903	-1.09327	-2.05161
H	1.362599	-0.964645	-1.859156
H	0.20607	-1.190741	-3.04375
N	-0.499691	-1.286116	0.616701
O	-1.719329	-1.455153	0.592308
O	0.323425	-2.061724	1.078788
C	-0.585003	1.104393	0.739658
N	-1.064504	1.978253	1.360512
Cl	3.238705	0.0	0.0
