15

C	-0.51833	0.003596	-1.418467
C	0.0	0.0	0.0
Cl	-2.407019	0.124598	-1.328653
H	1.091054	0.0	0.0
H	-0.392896	-0.846708	0.550674
N	0.080645	0.911302	-2.249022
H	-0.297576	0.954851	-3.181613
H	0.272128	1.796363	-1.805376
N	-0.367123	-1.392935	-2.04072
O	-0.426295	-1.433573	-3.263195
O	-0.23187	-2.34758	-1.288933
N	-0.432058	1.219721	0.725954
O	-0.899705	1.070106	1.851258
O	-0.256476	2.310796	0.18027
Br	3.420801	0.0	0.0
