18

C	-0.475614	-0.135945	-1.466586
C	0.0	0.0	0.0
F	-0.138864	-1.432068	-1.863223
H	1.097919	0.0	0.0
C	-1.974978	0.000143	-1.641385
H	-2.503407	-0.740917	-1.040439
H	-2.314328	0.994181	-1.345939
H	-2.219248	-0.160382	-2.694236
C	0.325373	0.831138	-2.314603
H	1.391302	0.665234	-2.14362
H	0.083385	1.865622	-2.060123
H	0.087081	0.661661	-3.367873
N	-0.514498	-1.15609	0.803488
O	0.193599	-2.152287	0.858408
O	-1.634598	-1.040138	1.309452
C	-0.489356	1.244728	0.575433
N	-0.87101	2.276687	0.986788
Cl	3.264462	0.0	0.0
