18

C	-0.395999	0.054453	-1.483297
C	0.0	0.0	0.0
F	-1.798965	0.027279	-1.571719
H	1.107467	0.0	0.0
C	0.094329	1.371704	-2.053823
H	-0.398003	2.212124	-1.562388
H	1.174779	1.450991	-1.909414
H	-0.135433	1.407864	-3.121284
C	0.151144	-1.123717	-2.262727
H	-0.331903	-2.051476	-1.959937
H	1.225492	-1.211833	-2.088395
H	-0.040366	-0.957528	-3.325689
N	-0.486466	-1.260799	0.648776
O	-1.461191	-1.191523	1.397045
O	0.120372	-2.289908	0.3675
C	-0.52185	1.142046	0.738064
N	-0.908887	2.102454	1.291988
Cl	3.217286	0.0	0.0
