18

C	-0.393666	0.015242	-1.484828
C	0.0	0.0	0.0
F	-1.797127	-0.008078	-1.574631
H	1.108447	0.0	0.0
C	0.103333	1.313721	-2.091121
H	-0.385057	2.169888	-1.623094
H	-0.125811	1.321661	-3.159268
H	1.183995	1.391796	-1.948223
C	0.148776	-1.187206	-2.229599
H	-0.337772	-2.104066	-1.900171
H	1.222882	-1.274301	-2.052904
H	-0.042144	-1.051384	-3.296922
N	-0.488833	-1.2433	0.67947
O	-1.473434	-1.156063	1.412907
O	0.124241	-2.278005	0.43447
C	-0.522841	1.161518	0.706009
N	-0.910778	2.137496	1.231243
Cl	3.218278	0.0	0.0
