18

C	0.0	0.0	0.0
C	-0.60205	0.012649	-1.409029
Cl	1.7918	0.0	0.0
H	-1.715996	0.03031	-1.147826
C	-0.46733	1.218796	0.78397
H	-0.127412	1.118712	1.81804
H	-1.560496	1.201278	0.728745
H	-0.058229	2.143779	0.374922
C	-0.470556	-1.279166	0.681514
H	-1.565059	-1.232134	0.660799
H	-0.098562	-1.290978	1.709149
H	-0.089491	-2.164367	0.166572
C	-0.189252	-1.136918	-2.199553
N	0.123903	-2.07668	-2.831943
N	-0.222333	1.256188	-2.155383
O	-0.91817	2.251513	-1.964909
O	0.769105	1.217993	-2.886208
F	-2.915259	0.0	0.0
