18

C	0.0	0.0	0.0
C	-0.312549	0.133064	-1.520544
Cl	1.801337	0.0	0.0
H	0.356711	-0.559972	-2.037271
C	-0.508979	1.172016	0.809818
H	-0.108053	2.120407	0.445266
H	-1.605212	1.101051	0.706371
H	-0.208486	1.041363	1.853284
C	-0.496245	-1.320251	0.55375
H	-0.160889	-2.163823	-0.052859
H	-1.592431	-1.220468	0.543567
H	-0.113446	-1.436218	1.572167
C	-0.033591	1.480105	-2.016573
N	0.252479	2.545145	-2.420631
N	-1.67819	-0.311617	-2.045654
O	-2.383858	0.523905	-2.585268
O	-1.835013	-1.524994	-2.067551
F	-2.856093	0.0	0.0
