18

C	0.0	0.0	0.0
C	-0.639177	0.009241	-1.392637
Cl	1.791832	0.0	0.0
H	-1.752099	0.038485	-1.098379
C	-0.471234	1.216443	0.78854
H	-1.564832	1.180945	0.749823
H	-0.114126	1.128506	1.817483
H	-0.091204	2.148017	0.367676
C	-0.477837	-1.271803	0.693502
H	-1.572162	-1.212424	0.678905
H	-0.116804	-2.166296	0.180823
H	-0.101773	-1.282612	1.719512
C	-0.287445	-1.152418	-2.192235
N	-0.046888	-2.114443	-2.821573
N	-0.280886	1.242552	-2.161955
O	0.672444	1.188428	-2.941226
O	-0.957491	2.246565	-1.947298
F	-2.945845	0.0	0.0
