18

C	0.0	0.0	0.0
C	-0.518029	-0.25131	-1.437972
Cl	1.796146	0.0	0.0
H	-0.47011	0.686642	-1.997386
C	-0.455673	1.377522	0.45346
H	-1.549382	1.343317	0.433627
H	-0.06061	2.152681	-0.209855
H	-0.090137	1.565997	1.465482
C	-0.441437	-1.086489	0.970183
H	-1.531986	-1.026804	1.002431
H	-0.005334	-0.889888	1.95337
H	-0.109909	-2.066449	0.625784
C	-1.859277	-0.854328	-1.627874
N	-2.558819	-1.491805	-2.341024
N	0.426141	-1.163357	-2.202949
O	0.569735	-2.308741	-1.794562
O	0.981939	-0.683291	-3.188325
F	-2.805332	0.0	0.0
