19

C	-0.408312	0.037744	-1.476742
C	0.0	0.0	0.0
Cl	-2.104439	0.547628	-1.688046
H	1.097044	0.0	0.0
C	0.513499	0.908961	-2.30853
H	0.404292	1.950582	-2.006411
H	0.260178	0.822858	-3.367593
H	1.54533	0.598737	-2.121496
N	-0.274103	-1.374116	-2.056867
O	-1.081035	-1.764831	-2.892695
O	0.719252	-1.988808	-1.684285
N	-0.569177	-1.185464	0.642753
H	-0.789482	-0.963826	1.605903
H	0.145471	-1.903644	0.657316
C	-0.432007	1.257389	0.740905
H	0.108255	1.293005	1.690195
H	-1.507627	1.250271	0.934668
H	-0.18321	2.165008	0.189249
Cl	3.494823	0.0	0.0
