19

C	-0.408053	-0.020286	-1.483762
C	0.0	0.0	0.0
Cl	0.410001	1.292107	-2.346588
H	1.094897	0.0	0.0
C	-0.09335	-1.333761	-2.162868
H	-0.626226	-2.136676	-1.662468
H	0.981306	-1.496383	-2.060411
H	-0.358103	-1.286216	-3.222191
N	-1.917238	0.232032	-1.548919
O	-2.612421	-0.702589	-1.145301
O	-2.35479	1.318646	-1.908615
N	-0.3991	-1.248537	0.643182
H	0.249713	-1.427241	1.399163
H	-1.334937	-1.174394	1.023131
C	-0.495403	1.24871	0.723272
H	-0.212073	2.165513	0.204181
H	-1.586416	1.234498	0.83922
H	-0.045381	1.272195	1.718493
Cl	3.433986	0.0	0.0
