19

C	-0.404372	0.035546	-1.476922
C	0.0	0.0	0.0
Cl	-2.097702	0.556728	-1.695023
H	1.096943	0.0	0.0
C	0.526786	0.900433	-2.305988
H	0.26807	0.823528	-3.364379
H	1.55544	0.574967	-2.123199
H	0.435122	1.94163	-1.996483
N	-0.279395	-1.372386	-2.06904
O	-1.039204	-1.712099	-2.969257
O	0.662946	-2.034191	-1.647263
N	-0.583955	-1.171301	0.656078
H	-0.719869	-0.954247	1.636244
H	0.098086	-1.920025	0.611725
C	-0.429236	1.264299	0.732092
H	-0.1793	2.168109	0.175135
H	-1.504339	1.258018	0.92718
H	0.112024	1.305841	1.6808
Cl	3.492618	0.0	0.0
