14

C	-0.402208	0.065552	-1.44366
C	0.0	0.0	0.0
Br	-2.344249	0.134264	-1.732174
H	1.096867	0.0	0.0
H	0.00307	0.929393	-1.964857
H	-0.353667	-0.938309	0.430826
N	0.08136	-1.130757	-2.224338
O	-0.081166	-2.236706	-1.724146
O	0.58464	-0.899394	-3.320203
C	-0.471199	1.207134	0.801542
H	-1.558257	1.241506	0.908353
H	-0.0228	1.172045	1.796819
H	-0.138057	2.136362	0.331672
Cl	3.449634	0.0	0.0
