14

C	-0.452245	-0.012108	-1.437576
C	0.0	0.0	0.0
Br	0.008105	1.616255	-2.368211
H	1.093215	0.0	0.0
H	-0.02719	-0.836295	-2.008928
H	-0.359641	0.912295	0.482114
N	-1.947688	-0.188708	-1.529118
O	-2.349247	-1.206857	-2.094162
O	-2.658053	0.651014	-0.987037
C	-0.50066	-1.245543	0.728569
H	-1.588402	-1.2546	0.846371
H	-0.046853	-1.279003	1.720571
H	-0.199989	-2.155676	0.202359
Cl	3.480736	0.0	0.0
