14

C	-0.584968	-0.037866	-1.395897
C	0.0	0.0	0.0
Br	0.13343	-1.471488	-2.476646
H	1.092082	0.0	0.0
H	-1.667621	-0.155309	-1.390896
H	-0.317378	-0.929439	0.48515
N	-0.370298	1.283722	-2.094131
O	0.749023	1.5719	-2.485565
O	-1.368572	2.008927	-2.148644
C	-0.509505	1.20767	0.78525
H	-0.101357	2.135437	0.379501
H	-1.60166	1.282926	0.785661
H	-0.163429	1.129465	1.817789
Cl	3.514592	0.0	0.0
