14

C	-0.451209	-0.03174	-1.445601
C	0.0	0.0	0.0
Br	0.039945	1.532497	-2.461642
H	1.093068	0.0	0.0
H	-0.030781	-0.888304	-1.96649
H	-0.311907	-0.961691	0.426403
N	-1.948901	-0.234794	-1.495195
O	-2.30304	-1.412916	-1.421121
O	-2.701062	0.733371	-1.515445
C	-0.546859	1.154494	0.825622
H	-0.134877	1.089481	1.834847
H	-1.638107	1.145163	0.896613
H	-0.237168	2.112782	0.406769
Cl	3.468467	0.0	0.0
