20

C	0.0	0.0	0.0
C	-0.497778	0.002319	-1.457329
Br	1.983587	0.0	0.0
H	-1.59267	-0.020981	-1.284865
C	-0.435579	1.259566	0.72927
H	-0.15168	1.171994	1.779616
H	0.011551	2.160757	0.308963
H	-1.532178	1.287379	0.646763
N	-0.49572	-1.110527	0.772341
H	-1.524487	-0.958182	0.757951
H	-0.32167	-1.976223	0.272464
C	-0.098957	-1.232962	-2.257773
H	-0.623281	-1.227934	-3.218632
H	-0.374369	-2.162093	-1.753187
H	0.977511	-1.252727	-2.454805
C	-0.157828	1.263764	-2.244872
H	-0.615164	2.149473	-1.801032
H	-0.548355	1.174995	-3.264239
H	0.923839	1.420227	-2.30939
H	-3.192862	0.0	0.0
