20

C	0.0	0.0	0.0
C	-0.281186	-0.006116	-1.550735
Br	1.997311	0.0	0.0
H	0.513651	-0.613162	-1.99815
C	-0.534134	1.213855	0.725807
H	-0.29414	1.125651	1.787395
H	-0.122721	2.14529	0.339053
H	-1.628473	1.197907	0.604819
N	-0.462329	-1.166835	0.699131
H	-0.293118	-1.992928	0.134859
H	-1.480576	-1.055138	0.782163
C	-0.184373	1.392727	-2.158009
H	-1.044694	1.997001	-1.859818
H	0.734504	1.907399	-1.86506
H	-0.193887	1.319096	-3.250282
C	-1.612117	-0.653296	-1.927841
H	-2.459876	-0.277218	-1.332633
H	-1.581168	-1.737323	-1.77666
H	-1.803251	-0.479605	-2.994082
H	-3.68799	0.0	0.0
