20

C	0.0	0.0	0.0
C	-0.309379	0.014228	-1.539124
Br	1.98297	0.0	0.0
H	0.499821	-0.557513	-2.00195
C	-0.507523	1.21003	0.762505
H	-0.238047	1.115235	1.819291
H	-1.603892	1.190124	0.674784
H	-0.11022	2.154465	0.387813
N	-0.462845	-1.248428	0.564796
H	-0.257367	-1.240042	1.560768
H	-1.488209	-1.20775	0.486717
C	-0.264156	1.429871	-2.111291
H	0.652644	1.959975	-1.836836
H	-0.30632	1.378857	-3.204375
H	-1.128047	2.007876	-1.773983
C	-1.613027	-0.677133	-1.932767
H	-2.480953	-0.311196	-1.362962
H	-1.783836	-0.513654	-3.003828
H	-1.538294	-1.75495	-1.76569
H	-3.694898	0.0	0.0
