15

C	-0.359142	0.037762	-1.474915
C	0.0	0.0	0.0
F	-1.75474	0.219713	-1.633552
H	1.096361	0.0	0.0
H	-0.126274	-0.932217	-1.925526
C	0.363626	1.146284	-2.200027
H	0.148961	1.109288	-3.271086
H	0.045581	2.117643	-1.815778
H	1.437383	1.030532	-2.01762
C	-0.528747	-1.213433	0.622885
N	-0.956034	-2.198141	1.101506
N	-0.409014	1.1795	0.757107
H	-1.214319	1.614847	0.325778
H	0.37064	1.82785	0.759519
H	2.778479	0.0	0.0
