15

C	-0.413805	-0.012028	-1.466283
C	0.0	0.0	0.0
F	-0.030145	-1.230703	-2.032174
H	1.09682	0.0	0.0
H	0.168396	0.770788	-1.96716
C	-1.900335	0.136475	-1.731248
H	-2.442718	-0.673585	-1.238303
H	-2.287776	1.092173	-1.368956
H	-2.090997	0.080698	-2.806081
C	-0.57038	-1.146138	0.701193
N	-1.046277	-2.070701	1.25032
N	-0.320965	1.249	0.695205
H	0.523735	1.814486	0.667342
H	-1.075343	1.756038	0.252061
H	2.727324	0.0	0.0
