17

C	-0.392872	0.026015	-1.483676
C	0.0	0.0	0.0
F	-1.792474	0.024246	-1.574345
H	1.092231	0.0	0.0
N	0.090327	1.239252	-2.064262
H	0.96507	1.52495	-1.636107
H	0.241756	1.10831	-3.055648
C	0.100054	-1.23987	-2.159166
H	1.185794	-1.301934	-2.055224
H	-0.362985	-2.129561	-1.729459
H	-0.166895	-1.190128	-3.219059
C	-0.532638	-1.169485	0.679929
N	-0.91887	-2.140897	1.214357
N	-0.48646	1.241615	0.688185
O	-1.551135	1.178746	1.299779
O	0.213379	2.240643	0.566232
Br	3.378009	0.0	0.0
