17

C	-0.415757	0.018131	-1.480089
C	0.0	0.0	0.0
F	-1.82613	0.039518	-1.510922
H	1.091933	0.0	0.0
N	0.08551	1.179343	-2.130132
H	0.49673	0.946505	-3.022571
H	0.759831	1.681926	-1.568989
C	0.025342	-1.271141	-2.143909
H	1.108201	-1.376035	-2.042792
H	-0.47304	-2.134873	-1.702842
H	-0.245941	-1.221333	-3.202855
C	-0.526725	-1.164097	0.69496
N	-0.903327	-2.134946	1.237293
N	-0.477005	1.244339	0.690576
O	0.157174	2.269985	0.456994
O	-1.461953	1.166134	1.420974
Br	3.369468	0.0	0.0
