17

C	-0.330165	0.003107	-1.521162
C	0.0	0.0	0.0
F	-1.689346	0.302591	-1.642726
H	1.092199	0.0	0.0
N	0.402268	0.976385	-2.272299
H	0.322748	1.875542	-1.810663
H	1.387821	0.724903	-2.225669
C	-0.069479	-1.37504	-2.088865
H	0.959	-1.6764	-1.871069
H	-0.212559	-1.320044	-3.169313
H	-0.757939	-2.105499	-1.663979
C	-0.538642	-1.153345	0.701707
N	-0.935677	-2.128715	1.222525
N	-0.480617	1.250668	0.668638
O	-1.225181	1.144793	1.639342
O	-0.091016	2.317122	0.198804
Br	3.348237	0.0	0.0
