17

C	-0.385689	-0.0306	-1.497548
C	0.0	0.0	0.0
F	-0.146388	1.289692	-1.957842
H	1.094245	0.0	0.0
N	0.477366	-0.975386	-2.08742
H	0.351027	-1.015107	-3.090136
H	1.452478	-0.787198	-1.854038
C	-1.840881	-0.314169	-1.796775
H	-2.476081	0.431089	-1.31988
H	-2.115293	-1.306721	-1.441778
H	-1.991695	-0.263514	-2.87844
C	-0.51587	-1.162349	0.704258
N	-0.933274	-2.105032	1.266082
N	-0.529153	1.247627	0.636395
O	-1.720946	1.244246	0.954403
O	0.241812	2.188946	0.759498
Br	3.422068	0.0	0.0
