14

C	0.0	0.0	0.0
C	-0.533464	0.092576	-1.419614
Cl	1.832851	0.0	0.0
H	-0.317132	1.07482	-1.836641
H	-1.625789	-0.062602	-1.33719
N	-0.514275	1.109905	0.700086
H	-0.083633	1.984469	0.443659
H	-0.598577	0.98407	1.69516
C	-0.378686	-1.235709	0.696558
N	-0.593279	-2.187769	1.349747
N	0.044468	-0.902945	-2.350362
O	0.177578	-2.054524	-1.944747
O	0.315525	-0.513667	-3.486105
Br	-3.781723	0.0	0.0
