14

C	0.0	0.0	0.0
C	-0.490941	-0.113464	-1.44861
Cl	1.791766	0.0	0.0
H	-0.057622	-0.992562	-1.923358
H	-1.584524	-0.132878	-1.426512
N	-0.495984	1.192047	0.600396
H	-0.240826	1.220185	1.582477
H	-1.520478	1.169194	0.521387
C	-0.361589	-1.264364	0.68177
N	-0.6107	-2.269765	1.236967
N	-0.067623	1.065121	-2.254642
O	-0.790703	2.057801	-2.231739
O	0.97759	0.96082	-2.903042
Br	-3.675103	0.0	0.0
