14

C	0.0	0.0	0.0
C	-0.485796	-0.017644	-1.446411
Cl	1.847463	0.0	0.0
H	-1.582094	0.105148	-1.40466
H	-0.189038	-0.936521	-1.944778
N	-0.532494	1.048755	0.732013
H	-0.326882	1.057781	1.71582
H	-0.53285	1.942619	0.271195
C	-0.340841	-1.291128	0.617327
N	-0.524362	-2.337998	1.117153
N	0.111582	1.091464	-2.232898
O	0.694394	0.800299	-3.27495
O	-0.0249	2.237899	-1.803816
Br	-3.76159	0.0	0.0
