14

C	0.0	0.0	0.0
C	-0.499258	-0.186867	-1.427085
Cl	1.785414	0.0	0.0
H	-0.218254	0.689968	-2.004579
H	-1.589001	-0.318376	-1.382204
N	-0.50008	1.274338	0.438573
H	-1.526136	1.206958	0.382717
H	-0.259294	1.403968	1.416249
C	-0.360398	-1.116598	0.902839
N	-0.550027	-1.92385	1.736033
N	0.093698	-1.365371	-2.101955
O	-0.040809	-2.459009	-1.556958
O	0.66164	-1.172433	-3.178551
Br	-3.65594	0.0	0.0
