15

C	-0.246137	-0.014396	-1.46973
C	0.028601	-0.084876	0.049224
Cl	0.213551	-1.659995	-2.175624
H	1.112058	-0.227408	0.130198
C	-1.690295	0.104763	-1.720121
N	-2.84793	0.213817	-1.889498
N	0.464132	1.067745	-2.012352
H	0.385598	1.105406	-3.02013
H	1.452779	1.016089	-1.72339
N	-0.687741	-1.177735	0.681468
H	-1.615783	-0.881579	0.958693
H	-0.18589	-1.473011	1.508004
C	-0.309766	1.219946	0.647249
N	-0.667239	2.184901	1.215319
Cl	3.302232	0.492957	-0.623125
