15

C	-0.190735	-0.035025	-1.505186
C	0.026808	0.164346	0.020992
Cl	-1.967861	-0.526236	-1.747353
H	1.06308	0.535902	0.120829
C	-0.077817	1.250416	-2.21203
N	0.07608	2.256814	-2.801135
N	0.659484	-1.042937	-1.983393
H	1.518562	-1.145838	-1.423638
H	0.858255	-0.964271	-2.969821
N	-0.065825	-1.035134	0.812803
H	-0.789498	-1.642524	0.448268
H	0.837812	-1.500313	0.762786
C	-0.889727	1.20245	0.520602
N	-1.600053	2.037162	0.941665
Cl	3.132305	-1.214266	-0.007503
