15

C	-0.342429	-0.047473	-1.456535
C	0.003853	-0.103123	0.056641
Cl	0.220193	-1.586323	-2.188359
H	1.096196	-0.171068	0.094535
C	-1.806617	0.000294	-1.603008
N	-2.979104	0.054755	-1.65615
N	0.268088	1.042697	-2.162492
H	-0.140077	1.915354	-1.841388
H	1.265564	1.051164	-1.910796
N	-0.618146	-1.22774	0.730178
H	-0.087197	-1.461319	1.558714
H	-1.565939	-1.001948	1.007665
C	-0.385349	1.194565	0.641193
N	-0.786898	2.182747	1.135917
Cl	3.157556	0.793734	-0.611393
