15

C	-0.638534	0.025569	-1.50595
C	0.012404	0.139101	-0.110664
Cl	-0.48781	1.588989	-2.381669
H	1.086016	0.322279	-0.221567
C	0.083177	-0.975324	-2.313824
N	0.550114	-1.797887	-3.011826
N	-2.030725	-0.291808	-1.337602
H	-2.447168	-0.527103	-2.23117
H	-2.047397	-1.111103	-0.733564
N	-0.1928	-1.133905	0.572885
H	0.754009	-1.482713	0.774549
H	-0.648905	-0.981261	1.463809
C	-0.591791	1.264068	0.611545
N	-1.066173	2.127936	1.250109
Cl	2.932956	-1.117481	0.92954
