13

C	0.220777	0.066272	0.073146
C	-0.786266	-0.106269	-1.082701
Br	2.059965	-0.17064	-0.619298
H	-0.561043	0.674857	-1.821105
H	-1.786797	0.09935	-0.689301
C	0.159631	1.410646	0.645947
N	0.08321	2.49847	1.084614
C	0.02155	-0.932856	1.120816
N	-0.137339	-1.693771	2.001896
N	-0.75183	-1.464148	-1.562513
H	-0.130853	-1.5346	-2.35858
H	-1.70111	-1.655996	-1.89553
Cl	-3.788404	-0.874746	-2.436884
