14
Coordinates from ORCA-job run
  C   -0.55271845225709     -0.06692134548680     -0.17049586360361
  C   0.81110820083719      0.59700948359400     -0.21778995236573
  F   -1.07043806252767     -0.18366490229532     -1.43245631586559
  H   0.80003370284688      1.39853759560224     -0.95022978573461
  H   1.10460416175568      0.96413409042617      0.76377125865378
  N   -0.55614650091646     -1.29954525319465      0.46079996791202
  H   -1.48699130714279     -1.61691439476914      0.69233802359522
  H   0.08906303222324     -1.38123259192394      1.23170344297675
  N   -1.53722059562380      0.95811501099582      0.47704992649967
  O   -1.28319002741969      2.14958268471501      0.33310769785334
  O   -2.51918570287823      0.48187418791752      1.03438390264230
  N   1.82135922889546     -0.41267059750342     -0.63985725373353
  O   2.35522066072245     -1.05822687816940      0.26133147045806
  O   2.02550166148485     -0.53207708990808     -1.84265651928807
