14
Coordinates from ORCA-job run
  C   -0.50882120243656     -0.21223696603870     -0.15362506950456
  C   0.96494747756424     -0.33442112076007      0.15611866891785
  F   -0.66956101167468     -0.02802472264293     -1.50402580608650
  H   1.34530069294732     -1.29416536183154     -0.19109502426071
  H   1.13614293131661     -0.21876658073024      1.22417431743043
  N   -1.22228524127564     -1.31098528084475      0.35842621464964
  H   -0.89141548119661     -2.18109663125689     -0.03792077609790
  H   -2.21398603835830     -1.21048946753035      0.17357091019781
  N   -1.12014570816311      1.01621717959395      0.52453086302103
  O   -0.63747652941660      1.35073296571959      1.59656963360102
  O   -2.09387318263950      1.50136540722393     -0.03443528064334
  N   1.76515674378721      0.71379548436148     -0.54347548169404
  O   1.26128831399010      1.82663670573615     -0.65048883043166
  O   2.88472823555551      0.38143838900038     -0.91832433909906
