14
Coordinates from ORCA-job run
  C   -0.58414123006593      0.04582686812540     -0.22706704298274
  C   0.86417483371151      0.38801395485127      0.14129003945049
  F   -0.69849949996940      0.19805521134641     -1.56705020943323
  H   1.09558644397015      1.41711373999319     -0.12991461737537
  H   1.03983513685807      0.20425072304646      1.20052194371310
  N   -1.14885741135465     -1.18540687324333      0.16156442742677
  H   -1.28993349328978     -1.21227677209767      1.16262674344525
  H   -0.54805847582968     -1.94830942074222     -0.12419408265653
  N   -1.41798143564506      1.13783230364872      0.44816931831758
  O   -1.47993444259725      1.04693526306175      1.67181112250801
  O   -1.91176016715254      2.00100545052285     -0.25761739832311
  N   1.79495937004042     -0.47853350849596     -0.63600642003018
  O   1.66218819646423     -1.69401874525924     -0.49503116803119
  O   2.62342217485990      0.07651180524238     -1.34810265602887
