14
Coordinates from ORCA-job run
  C   -0.61574492581410     -0.23128280574592     -0.20295270830432
  C   0.72761709916105     -0.03134181998655     -0.87220528595496
  F   -1.48596382692827     -0.62591331375008     -1.22036959694323
  H   1.01632947012947     -0.94440465406820     -1.38982201885550
  H   0.67980389065185      0.81290878606891     -1.55633872052680
  N   -0.55168342030181     -1.08211743038407      0.88872147198038
  H   -1.40762816099864     -1.11065680930362      1.42389449025515
  H   -0.20586768676857     -2.00127268889845      0.65350151536228
  N   -1.22143337140398      1.10336337323063      0.24443184345548
  O   -1.86533690188969      1.10102551573678      1.28649612866539
  O   -1.08306203147341      2.03965349086321     -0.52952872149911
  N   1.75525108803159      0.25314553935470      0.16292081375097
  O   2.63952453221049     -0.58376681116550      0.32297933446262
  O   1.61919424539404      1.29965962804817      0.78827145415163
