14
Coordinates from ORCA-job run
  C   -0.68754138017725     -0.26817596316894     -0.23380086437645
  C   0.61751574134892     -0.01290841816832     -0.96104688461303
  F   -1.67803664992666     -0.26904904396933     -1.18122505403418
  H   0.50119706895600      0.81027306692534     -1.65928843151063
  H   0.90714686835343     -0.92374418138704     -1.48701819394498
  N   -0.74200430651722     -1.45556288380924      0.48981805597058
  H   -1.61690274491312     -1.52407266004353      0.99552085323588
  H   0.03867559207124     -1.51355870156562      1.13020945090355
  N   -1.04429706771625      0.99360782522518      0.60981363714153
  O   -1.83813093157567      0.81710250895918      1.52610226313376
  O   -0.55210433496470      2.06161496813370      0.26079361392856
  N   1.74343397908393      0.34797225754245     -0.05196137748383
  O   2.65632534785674      0.99310326989699     -0.54767634176899
  O   1.69472281812062     -0.05860204457082      1.10875927341823
