14
Coordinates from ORCA-job run
  C   -0.59213929797249      0.00698973595728     -0.21150852256249
  C   0.84837556232593      0.43392454547071      0.09359469926852
  F   -0.75085133780191      0.07906305815116     -1.55354384809238
  H   1.02384948785346      1.45545008322263     -0.24090440563651
  H   1.06163964956240      0.31825566152222      1.15552934265830
  N   -1.08830883191459     -1.22486181656998      0.26049194103721
  H   -1.19710089723620     -1.20255518038367      1.26573417996975
  H   -0.46154082105666     -1.97479829977244     -0.00307412868036
  N   -1.45636954843163      1.09638069988559      0.42873639277044
  O   -2.00886754103949      1.89625870211495     -0.30756814798324
  O   -1.47970317465319      1.07140642068024      1.65686339852514
  N   1.79700325242915     -0.43200669816071     -0.66257931548041
  O   2.58090625517142      0.11928538089202     -1.42617555292047
  O   1.72310724276381     -1.64279229301001     -0.45359603287350
