14
Coordinates from ORCA-job run
  C   -0.59741975501409     -0.17228409778109     -0.29533354257010
  C   0.82774172826216     -0.00626722091191     -0.77788386980209
  F   -1.35447981707104     -0.41990398375186     -1.44153049623803
  H   0.91281413977672      0.89269471059777     -1.38434096099501
  H   1.12809620612805     -0.89046060830455     -1.33741295429666
  N   -0.71859127554198     -1.11607425513354      0.71207826783665
  H   -0.40490574666593     -2.03430934541510      0.43248683768320
  H   -1.63324120158692     -1.12818865866813      1.14001466240400
  N   -1.17918764062157      1.15667239145836      0.19914379839114
  O   -0.89077748401164      2.14474722260201     -0.46061296149944
  O   -1.94880441895796      1.10793224729186      1.15077658425522
  N   1.73358691324906      0.12315726588831      0.39361265936857
  O   1.56803580364178      1.11271382547587      1.09936813436484
  O   2.55713254841335     -0.77042949334800      0.56963384109770
