14
Coordinates from ORCA-job run
  C   -0.52105781332066     -0.19037838066587     -0.27173012385144
  C   0.97103898103668     -0.39549997002348     -0.11954704889893
  F   -0.80540211667578      0.31432391027133     -1.49015773030613
  H   1.28743477128072     -1.18368502649690     -0.79854212790762
  H   1.22539934792084     -0.64001529407862      0.91137554722362
  N   -1.20744845650575     -1.41817819876086     -0.11018206142568
  H   -2.18893902320684     -1.30076867034250     -0.33549646333925
  H   -1.11158672536530     -1.76761426785552      0.83494453802970
  N   -1.01815637719013      0.84734829380939      0.76098649730396
  O   -1.74047883301675      1.75209957737116      0.37967609568709
  O   -0.69744481419874      0.58552485221486      1.91694358512693
  N   1.73896104914655      0.83154271253157     -0.48042170307839
  O   1.27618196128319      1.90782894014318     -0.11497724175872
  O   2.79149804881197      0.65947152188226     -1.08487176280513
