14
Coordinates from ORCA-job run
  C   -0.59709168932318     -0.10778866432674     -0.16477001401257
  C   0.79620355305658      0.52610256735167     -0.07823082116050
  F   -0.81752392959967     -0.40262998418114     -1.46716012199076
  H   1.06541162263230      0.71103608631366      0.96096560584132
  H   0.83909466977254      1.43880937289700     -0.67095221215084
  N   -0.92907103528257     -1.21829782264527      0.63704046775389
  H   -0.23096692076542     -1.94358242261827      0.53024006983543
  H   -0.99919481292644     -0.94634283200861      1.60865424448777
  N   -1.55377420670991      1.01810972440914      0.23635970287742
  O   -1.52346423072393      1.31053843687357      1.42926651241424
  O   -2.22497695407792      1.53901024942654     -0.63838479176286
  N   1.80566377809604     -0.40622044579800     -0.65505273758557
  O   2.48808516152872      0.00357230776556     -1.58665278477982
  O   1.88060499432284     -1.52231657345910     -0.14132311976714
