14
Coordinates from ORCA-job run
  C   -0.52288380680752     -0.06978396894626     -0.08971513519603
  C   0.83818165417196      0.59463808639899     -0.00435964757017
  F   -0.70633225374984     -0.46995973958145     -1.40789937940257
  H   1.07992035080183      0.84867437109644      1.02623406777098
  H   0.87519262509831      1.47034307820661     -0.64374020230301
  N   -0.74928238211799     -1.06303368870284      0.85635819916403
  H   0.01370912859730     -1.72574098569453      0.88950862786099
  H   -1.64444883653656     -1.51205230172047      0.71134575185923
  N   -1.61489414532842      0.98050499462316      0.11881490006533
  O   -2.75984854798532      0.55668876042891      0.03768454984263
  O   -1.27163529140708      2.13364146914144      0.35628579184702
  N   1.88691328170615     -0.34773177676453     -0.50017976925941
  O   1.98209225560132     -1.43225304465512      0.07406748888145
  O   2.59231596795584      0.03606474616964     -1.42540524356046
