14
Coordinates from ORCA-job run
  C   -0.52760926126672     -0.10424424732170     -0.24321035010057
  C   0.80436334804253      0.61987510895769     -0.15747150496797
  F   -0.87636368560813     -0.33366231675025     -1.52554299272424
  H   0.83165603017660      1.41172518930908     -0.90517220733728
  H   0.97370493202242      1.00205705198108      0.84592808348483
  N   -0.54369839020926     -1.30903956776676      0.46760296305370
  H   -0.24633298763072     -1.20575084618760      1.42715021242248
  H   -1.43699568301763     -1.77905021851718      0.40316662588536
  N   -1.57805347655772      0.92313717715465      0.29429430775120
  O   -1.43830783574081      1.20529880211808      1.48165422435572
  O   -2.44170466884255      1.33555152785789     -0.46555364808356
  N   1.89650667622197     -0.34355586492183     -0.46671236681947
  O   2.44492142311002     -0.87478652430095      0.49581588763290
  O   2.13891357929999     -0.54555527161219     -1.65194923455309
