14
Coordinates from ORCA-job run
  C   -0.50424146653072     -0.26265041007025     -0.24112851746455
  C   0.98765361409401     -0.37161345426929     -0.00821526665671
  F   -0.76160255504843     -0.02650683656208     -1.54429831874211
  H   1.35496136639751     -1.26834316426648     -0.50154063932777
  H   1.21326762049009     -0.38952666017440      1.05763105634331
  N   -1.15405214231032     -1.45883708134541      0.14710289627739
  H   -2.13100273391809     -1.42844939672144     -0.12198198732988
  H   -1.07680577730565     -1.60933811345231      1.14499967802046
  N   -1.07304815817707      0.94169876486405      0.54446627431248
  O   -0.78405265319101      0.93350743316444      1.73780337655354
  O   -1.81273152409038      1.71968635742049     -0.03300597364112
  N   1.72501734132222      0.78624433735522     -0.59250137053636
  O   2.80220366075818      0.53735994424666     -1.12215524356501
  O   1.21343340750965      1.89476827981081     -0.46717596424365
