14
Coordinates from ORCA-job run
  C   -0.61916391328360     -0.22327260486572     -0.20047870867563
  C   0.72617625514618     -0.04751306642783     -0.87203681628545
  F   -1.49702194794748     -0.61160493222147     -1.21349673728144
  H   1.00166210964437     -0.96850009196833     -1.38287161427419
  H   0.69049472664690      0.79186841337485     -1.56289487925510
  N   -0.56577025104658     -1.06927646075399      0.89629059193986
  H   -0.23933135743168     -1.99572707212561      0.66134305399105
  H   -1.42187134494943     -1.08221752437961      1.43200291200549
  N   -1.20480855485168      1.12209265605782      0.24002759604344
  O   -1.84895830699932      1.13483056376197      1.28177416504578
  O   -1.05235680115441      2.05224214738234     -0.53879083441485
  N   1.75916743075874      0.23014289684664      0.16015445834257
  O   1.63379099754055      1.27960053645646      0.78280184520598
  O   2.63799095792742     -0.61266546113752      0.31817496761250
