14
Coordinates from ORCA-job run
  C   -0.59999441825832     -0.18092124331721     -0.18675140870846
  C   0.89815269806120     -0.38651109894450     -0.01289195441800
  F   -0.85832101803984     -0.01653003163152     -1.50234789326825
  H   1.18428707163211     -1.34340724754038     -0.44694094234458
  H   1.16040005954136     -0.33806737002714      1.04357924364040
  N   -1.42870699771243     -1.21376868751064      0.32477690385234
  H   -1.34916228889469     -1.28838948436456      1.32992928751839
  H   -1.22791812303172     -2.09932025214160     -0.12105898988133
  N   -1.03638659986236      1.08164887227608      0.55384808287436
  O   -1.57807309642422      1.96668363378891     -0.08094650467051
  O   -0.81925989903714      1.04511841319394      1.76150085249141
  N   1.68851016793323      0.66304969068185     -0.71927581912167
  O   2.56860734988275      0.28457002911130     -1.48511854129512
  O   1.39686509421007      1.82684477642548     -0.45830231666898
