14
Coordinates from ORCA-job run
  C   -0.59577898835855     -0.10900846335845     -0.17032641498445
  C   0.79465546335150      0.52822707494449     -0.06913074450317
  F   -0.80366005558963     -0.40057490261968     -1.47553135969729
  H   0.84002352489657      1.44405910430751     -0.65685918026769
  H   1.05492583116393      0.70986797383607      0.97298007084997
  N   -0.93290162496108     -1.22333643716990      0.62439423743185
  H   -1.00593881725961     -0.95700571224045      1.59738557313286
  H   -0.23471059248025     -1.94839109244726      0.51656425603618
  N   -1.55930760637303      1.01238475976339      0.22614777552347
  O   -2.23140495186048      1.52846191967463     -0.65073502905107
  O   -1.53435512791603      1.30527932558906      1.41908486275977
  N   1.81425390636407     -0.39698264939702     -0.64075125135315
  O   2.51615274230567      0.02745041116773     -1.55095712457405
  O   1.87904629671693     -1.52043131205012     -0.14226567130322
