14
Coordinates from ORCA-job run
  C   -0.62492056527191     -0.25401639259526     -0.38126012322814
  C   0.80217300004292      0.01770690756458     -0.81376198835109
  F   -1.39999333096698     -0.20694525499166     -1.51091548970090
  H   0.83201579009206      0.86431878063428     -1.49268186672699
  H   1.19608664675548     -0.87705795569580     -1.29794696131491
  N   -0.82806802551359     -1.46887492047165      0.26598190839942
  H   -0.19174826333633     -1.56306769094975      1.04651527912309
  H   -1.78664536265005     -1.54719262910232      0.58368213256672
  N   -1.14522484651755      0.97644633726246      0.42259344243740
  O   -2.10216084131035      0.76971831794368      1.15911813393997
  O   -0.59862083563195      2.05479619561275      0.21446126910778
  N   1.71366866720981      0.34123147808184      0.32162621077026
  O   1.43684191521867     -0.12627283478124      1.42620177679938
  O   2.69659605187977      1.01820966148809      0.05538627617801
