14
Coordinates from ORCA-job run
  C   -0.52701212032039     -0.25518781577609     -0.19613107506119
  C   0.97629528269015     -0.39240934652730     -0.08003976909623
  F   -0.88161426696766     -0.03192151251546     -1.47863131798675
  H   1.28529733093346     -0.40114039858967      0.96474494246034
  H   1.28535580384962     -1.30268465943658     -0.58823414285526
  N   -1.16805147329815     -1.43131403458094      0.26092523224561
  H   -1.01277949601165     -1.57133690401491      1.25116159161190
  H   -2.16268640219953     -1.38434594327405      0.07088987247762
  N   -1.00729388756186      0.97227656404211      0.61253404943850
  O   -0.62432224063565      0.97572809429247      1.77912414251326
  O   -1.77444508913268      1.75739327907833      0.08238640246348
  N   1.68741920812000      0.74152122514957     -0.73902364333663
  O   1.21093090623405      1.86259308667247     -0.58977504781925
  O   2.71290644430030      0.46182836548004     -1.34993123705542
