14
Coordinates from ORCA-job run
  C   -0.64698393846039     -0.32491499243731     -0.27402036125222
  C   0.69153077236361     -0.00533582051804     -0.90941644695667
  F   -1.55726631914748     -0.43096706650309     -1.29331556170936
  H   1.08365015645864     -0.91263500755211     -1.37115491464744
  H   0.57563754856245      0.78007554511929     -1.64996052640719
  N   -0.67832431038208     -1.48578115364399      0.49287795029323
  H   -1.58428813953674     -1.59788699377927      0.93172697269804
  H   0.05015713808815     -1.46359956025824      1.19420058331625
  N   -1.15335729285970      0.93903315422069      0.48522449821029
  O   -1.99930227996112      0.74092033524629      1.34894120806262
  O   -0.71271728586514      2.02573552851648      0.12514721674357
  N   1.71352011802614      0.46972345425895      0.06732784281166
  O   1.59928345160470      0.10617051538410      1.23767037358432
  O   2.61746038110895      1.15846206194625     -0.38424883474709
