14
Coordinates from ORCA-job run
  C   -0.60137825119072     -0.17826754934251     -0.18734116755434
  C   0.89554633673997     -0.39370340808180     -0.01555562909050
  F   -0.85999995087083     -0.00977585960386     -1.50244281937312
  H   1.17560628598413     -1.35144423864868     -0.45179398021029
  H   1.15829106316788     -0.34827857171201      1.04090386933701
  N   -1.43501229379330     -1.20577214568494      0.32562981205750
  H   -1.36983507381211     -1.26635560995887      1.33269541355578
  H   -1.22924038697892     -2.09714820205858     -0.10587499769046
  N   -1.02807042364616      1.08740507739292      0.55440055569884
  O   -0.81332311971698      1.04868923078596      1.76243598460786
  O   -1.55943380410356      1.97839592897025     -0.08085389855994
  N   1.69179340205417      0.65131713155625     -0.72199289118904
  O   1.41444689826796      1.81679155812033     -0.45280512083016
  O   2.56060931789846      0.26814665826554     -1.49840513075914
