14
Coordinates from ORCA-job run
  C   -0.61602163477683     -0.17526899293069     -0.13257902224567
  C   0.89188918221256     -0.38199894378256     -0.12354951966216
  F   -1.00893291804039      0.04882082708048     -1.40533687372654
  H   1.13251354987050     -1.31743185447580     -0.62658321763192
  H   1.26100989631887     -0.37928921187857      0.90166275570370
  N   -1.38763273002147     -1.23357544879948      0.41436894249150
  H   -1.23085272531028     -2.09887784762047     -0.08552994824045
  H   -1.20918530664613     -1.34881290618227      1.40284176477016
  N   -0.97306521957102      1.05083694207362      0.70650551407479
  O   -0.63242207477703      0.96075573069922      1.88235952556635
  O   -1.57677244794252      1.96146796773527      0.17190523283753
  N   1.60578266741302      0.70123148417820     -0.85992292407039
  O   1.34337111630366      1.85090773635924     -0.51790632637471
  O   2.40131864496706      0.36123451754381     -1.72923590349219
