14
Coordinates from ORCA-job run
  C   -0.61551201182324     -0.22862825582304     -0.20720317238403
  C   0.73379688903520     -0.03628247078636     -0.86582834196605
  F   -1.48029444374257     -0.61808453619079     -1.23103520906096
  H   0.69541346347796      0.80651716801549     -1.55246502571474
  H   1.02264743965061     -0.95147342588213     -1.37966655464823
  N   -0.56521218133271     -1.08087512087890      0.88448050855055
  H   -1.42489889165392     -1.10252827343404      1.41399818626485
  H   -0.22827132219914     -2.00321859070993      0.64866552246808
  N   -1.21712414388435      1.10928039342099      0.23663000834276
  O   -1.86996300712939      1.10956898284613      1.27302233427579
  O   -1.06557969643435      2.04576550702628     -0.53459932496473
  N   1.75620876735725      0.24625232978114      0.17547116301314
  O   2.64806993399891     -0.58377925438980      0.32843805580827
  O   1.61071920467974      1.28648554700494      0.80909185001532
