14
Coordinates from ORCA-job run
  C   -0.69266087210413     -0.26520552218637     -0.22121523696448
  C   0.60525660685819     -0.03246127694242     -0.96845927988558
  F   -1.69517363795074     -0.27026258491987     -1.15614942289586
  H   0.48708102401764      0.78117659720926     -1.67751994926195
  H   0.88066516665852     -0.95350470966684     -1.48418699824192
  N   -0.74893001004845     -1.44160561861250      0.51991115057131
  H   -1.61749253452596     -1.49450326760303      1.03827002793006
  H   0.03964069245532     -1.49814412164984      1.15075380731607
  N   -1.02720160030985      1.01169676481871      0.60847529400782
  O   -0.53089582323640      2.07017882761098      0.23697519070001
  O   -1.80998982241982      0.85551836859475      1.53784240255059
  N   1.74543659555456      0.33217001846467     -0.07885917710302
  O   2.65698946563592      0.96330365318261     -0.59464285887580
  O   1.70827474941521     -0.05835712830012      1.08780505015275
