14
Coordinates from ORCA-job run
  C   -0.57443015914172     -0.12227585263901     -0.18994202342633
  C   0.90601432073367     -0.32022778162259     -0.43644312384398
  F   -1.10290699326265      0.69319299989754     -1.12580271760267
  H   1.37373439929523     -0.83172238064950      0.40432586830845
  H   1.03596539130199     -0.88177594916036     -1.35847006485366
  N   -1.25216362622302     -1.36472882005443     -0.22584197745377
  H   -2.25420714059164     -1.21645701190530     -0.18412099205860
  H   -0.96105073892211     -1.96140217742120      0.53816707391773
  N   -0.79280297509983      0.57388153063666      1.17361490712793
  O   -0.23401300462039      0.01032636119138      2.11050040677650
  O   -1.54805081254294      1.52910489153796      1.22809640494086
  N   1.61694947249228      0.98013746586444     -0.60858872010129
  O   2.49751329432565      1.01343119598350     -1.46080101059915
  O   1.28844857225548      1.89851552834090      0.13630596886799
