14
Coordinates from ORCA-job run
  C   -0.55254495211296     -0.05618878167449     -0.20310103755131
  C   0.82855563612720      0.57509381100788     -0.19491545365395
  F   -1.01816166288955     -0.18985495615995     -1.46229060452851
  H   0.84859371875151      1.40151544163698     -0.90441056415479
  H   1.10427626773774      0.89249820164979      0.80752918547848
  N   -0.59444043220213     -1.29514162662108      0.44434544161664
  H   -1.52172040935414     -1.69882917717813      0.44189167429428
  H   -0.20103726348597     -1.27063217435715      1.37396807448208
  N   -1.48262102583450      1.00418704991001      0.47168540840428
  O   -1.22962770393952      1.20856714694840      1.65625380860130
  O   -2.37339908313128      1.51424438003645     -0.19143124844713
  N   1.82458313089509     -0.43853159351906     -0.63900182753960
  O   1.96591588386347     -0.58542756463792     -1.84842385486915
  O   2.40062789557504     -1.06250015704174      0.24890099786736
