14
Coordinates from ORCA-job run
  C   -0.61641935358878     -0.07941441719722     -0.09799264416228
  C   0.81589634303519      0.45668982982604     -0.20331177199564
  F   -0.98119926931861     -0.48173578344820     -1.33749256092848
  H   1.19611664864782      0.72129771125652      0.78266085443352
  H   0.85858018035575      1.30284771373369     -0.88770193498908
  N   -0.93962699047238     -1.08045257068303      0.84017348249790
  H   -0.88893401581695     -0.71505709279399      1.78186655194108
  H   -0.30852331358078     -1.86548908920957      0.73953400302557
  N   -1.45584496036525      1.14655287169098      0.27083969852445
  O   -2.17639622209613      1.62759718376549     -0.58737780977698
  O   -1.28896930811595      1.55015289923258      1.41916475409722
  N   1.70519022174039     -0.59659240212188     -0.77032228031244
  O   1.75111717858355     -1.66518048664466     -0.16134315574289
  O   2.32901286099215     -0.32221636740672     -1.78869718661196
