14
Coordinates from ORCA-job run
  C   -0.64446574491981     -0.03491612772041     -0.10491238752026
  C   0.80891405289895     -0.38040328803757     -0.39716375494399
  F   -1.10213601461237      0.76086639811598     -1.09549887394502
  H   0.85915244857695     -1.02019523535108     -1.27698884620332
  H   1.25704788601175     -0.86480142212963      0.46989697656925
  N   -1.52357234658291     -1.13862283590133      0.04938372205691
  H   -1.55397922919083     -1.70329680155406     -0.78937951816643
  H   -1.27733619389230     -1.69853629716542      0.85441123136145
  N   -0.73572915088762      0.73201928700516      1.21369390773941
  O   -1.23395235807492      1.84163691559378      1.20402063533313
  O   -0.31666296196262      0.10242873151952      2.18051016142190
  N   1.61812618354243      0.83536597483200     -0.70030847250600
  O   2.27641734631224      0.82959501132022     -1.73523638226937
  O   1.56717608278106      1.73985968947284      0.12857160107235
