16

C	0.0	0.0	0.0
C	-0.450233	-0.049396	-1.452849
F	1.42098	0.0	0.0
H	-0.219245	-1.015328	-1.893595
H	-1.522642	0.168995	-1.476991
N	-0.480169	1.144296	0.653863
H	-0.113178	1.199926	1.593672
H	-0.275166	1.987586	0.139297
C	-0.38495	-1.268273	0.739681
H	-0.055642	-1.176091	1.778496
H	0.128148	-2.124898	0.296055
H	-1.470461	-1.395457	0.714755
N	0.287124	0.946523	-2.277517
O	0.936302	0.530282	-3.238952
O	0.206538	2.13354	-1.959375
Cl	-3.773854	0.0	0.0
