16

C	0.0	0.0	0.0
C	-0.184411	0.035891	-1.550347
F	1.424239	0.0	0.0
H	0.723979	0.501093	-1.939211
H	-0.326482	-0.962954	-1.948084
N	-0.469193	1.169548	0.641431
H	-1.164622	0.973082	1.347532
H	-0.840802	1.837964	-0.015565
C	-0.514834	-1.249103	0.671801
H	-0.346036	-1.187379	1.747751
H	-1.589925	-1.312022	0.506249
H	-0.010176	-2.131342	0.289105
N	-1.291621	0.838946	-2.127942
O	-2.100303	0.244393	-2.830863
O	-1.25069	2.062712	-1.957052
Cl	-3.907025	0.0	0.0
