14

C	0.0	0.0	0.0
C	-0.382849	-0.024385	-1.513679
Br	1.92703	0.0	0.0
H	-1.478708	-0.212747	-1.437928
C	-0.641411	1.107587	0.692199
N	-0.659111	2.132044	1.293498
N	-0.429319	-1.304637	0.658696
O	-0.531454	-2.28625	-0.071883
O	-0.44621	-1.305037	1.883521
C	0.28789	-1.03058	-2.329952
N	0.754198	-1.79715	-3.090243
C	-0.176151	1.298092	-2.097311
N	-0.052805	2.347924	-2.611194
H	-2.191051	0.0	0.0
