15

C	0.0	0.0	0.0
C	-0.589452	0.114332	-1.39791
Cl	1.763478	0.0	0.0
H	-0.478829	1.154604	-1.715855
H	-1.668859	-0.084796	-1.294313
C	-0.536177	1.079668	0.908563
H	-0.235969	2.053971	0.516226
H	-0.13763	0.955647	1.913857
H	-1.627393	0.9977	0.914231
N	-0.372384	-1.369336	0.592854
O	-0.716015	-2.24495	-0.189685
O	-0.23829	-1.493113	1.803975
C	0.020315	-0.743512	-2.406847
N	0.519984	-1.37767	-3.25907
Cl	-3.718126	0.0	0.0
