15

C	0.0	0.0	0.0
C	-0.5839	-0.426835	-1.339719
Cl	1.760884	0.0	0.0
H	-1.663188	-0.577899	-1.17173
H	-0.479369	0.418593	-2.025607
C	-0.533462	1.348206	0.421485
H	-1.625911	1.287692	0.428942
H	-0.158438	1.604116	1.410783
H	-0.201369	2.099534	-0.298369
N	-0.377858	-1.042069	1.065052
O	-0.681216	-2.161536	0.672216
O	-0.291816	-0.684793	2.233729
C	0.037216	-1.59229	-1.956755
N	0.539033	-2.489867	-2.522427
Cl	-3.701458	0.0	0.0
