15

C	0.0	0.0	0.0
C	-0.294037	-0.345037	-1.478583
Cl	1.779209	0.0	0.0
H	0.011398	0.543847	-2.040467
H	0.400633	-1.139407	-1.754147
C	-0.569022	1.287467	0.514438
H	-1.661194	1.189272	0.497561
H	-0.251269	2.102206	-0.139764
H	-0.221876	1.47505	1.529316
N	-0.389298	-1.169979	0.896837
O	-0.502765	-0.933841	2.092533
O	-0.478383	-2.269393	0.363266
C	-1.583265	-0.793756	-2.011021
N	-2.336716	-1.296558	-2.76073
Cl	-3.644421	0.0	0.0
