15

C	0.0	0.0	0.0
C	-0.586273	0.210399	-1.389347
Cl	1.764276	0.0	0.0
H	-1.664689	-0.002392	-1.30049
H	-0.484932	1.272766	-1.629673
C	-0.528638	1.023675	0.976724
H	-0.212147	2.016941	0.651386
H	-0.136626	0.826841	1.97248
H	-1.62078	0.955363	0.974873
N	-0.377017	-1.404646	0.495692
O	-0.644333	-2.245399	-0.352819
O	-0.32311	-1.592262	1.704547
C	0.034391	-0.561632	-2.459567
N	0.560201	-1.135437	-3.337863
Cl	-3.695923	0.0	0.0
