15

C	0.0	0.0	0.0
C	-0.554009	0.005832	-1.416521
Cl	1.78825	0.0	0.0
H	-1.654537	-0.011714	-1.315763
H	-0.229382	-0.889756	-1.946816
C	-0.512165	1.136063	0.842744
H	-1.60369	1.065955	0.863262
H	-0.202432	2.079581	0.388426
H	-0.107077	1.074071	1.851167
N	-0.374729	-1.34318	0.645122
O	-0.476927	-2.311546	-0.099352
O	-0.468917	-1.364037	1.864807
C	-0.119296	1.188484	-2.146331
N	0.258406	2.120701	-2.752894
Cl	-3.668388	0.0	0.0
