15

C	0.0	0.0	0.0
C	-0.568346	-0.239686	-1.390001
Cl	1.776507	0.0	0.0
H	-0.227209	-1.199733	-1.778125
H	-1.666791	-0.265401	-1.268012
C	-0.509931	1.267329	0.638103
H	-0.213496	2.115563	0.017998
H	-1.600715	1.204009	0.689632
H	-0.088776	1.383836	1.634853
N	-0.37576	-1.208815	0.868661
O	-0.463679	-1.017964	2.073899
O	-0.484847	-2.290614	0.303713
C	-0.185747	0.827709	-2.304934
N	0.124855	1.679333	-3.051344
Cl	-3.680333	0.0	0.0
