15

C	0.0	0.0	0.0
C	-0.567279	-0.05559	-1.412664
Cl	1.764881	0.0	0.0
H	-0.224508	-0.95706	-1.921079
H	-1.664824	-0.096701	-1.297194
C	-0.520494	1.168916	0.79776
H	-0.101427	1.157775	1.801886
H	-0.232019	2.093145	0.293193
H	-1.610442	1.091192	0.837556
N	-0.376024	-1.315558	0.698529
O	-0.477349	-1.286671	1.91694
O	-0.467226	-2.313709	-0.00627
C	-0.182785	1.121565	-2.179724
N	0.134446	2.059671	-2.810517
Cl	-3.686159	0.0	0.0
