15

C	0.0	0.0	0.0
C	-0.57515	-0.139669	-1.400649
Cl	1.787095	0.0	0.0
H	-0.478013	0.831123	-1.894374
H	-1.652919	-0.33068	-1.267009
C	-0.523194	1.231449	0.69547
H	-0.206094	2.113892	0.135779
H	-0.131867	1.285174	1.709321
H	-1.615967	1.166222	0.710591
N	-0.362453	-1.243653	0.823
O	-0.59672	-2.27319	0.202928
O	-0.330829	-1.126329	2.041435
C	0.051699	-1.146423	-2.248945
N	0.554287	-1.90026	-2.994857
Cl	-3.691618	0.0	0.0
