15
Coordinates from ORCA-job run
  C   -0.63204431384110      0.42044332234026     -0.03299404008204
  C   0.75787841709264      0.06156214714461      0.53034744411724
  Br  -1.87336543011614      0.76008851123173      1.48037494096301
  H   1.13036826665591      1.00590131808489      0.94573864203905
  N   -1.24896350579149     -0.76015007451020     -0.77938354201770
  O   -2.14410765188844     -0.49417139147392     -1.56884353778075
  O   -0.81607324277889     -1.87700617886225     -0.52021728617079
  N   -0.53107607791848      1.46712383316574     -0.96025705498699
  H   -0.21582475290638      2.32513664515631     -0.52706483533373
  H   -1.40657339532604      1.61601153672325     -1.44718038659075
  C   1.63358881707972     -0.29090617784089     -0.60783259933690
  N   2.38060437944765     -0.62126112038635     -1.45232213996405
  N   0.74531144021120     -0.90311086318942      1.60259852732447
  H   0.59460331969633     -1.83334452980561      1.23730516226002
  H   1.62567373038352     -0.87631697777814      2.09973070555992
