15
Coordinates from ORCA-job run
  C   -0.67417775444518      0.18510661695286     -0.01454997504639
  C   0.76309199497465     -0.30758510044033      0.25492121553448
  Br  -1.93143824889802     -0.53029231718719      1.24020853328529
  H   1.36612404767902      0.13900618783498     -0.55415850687924
  N   -1.01310835606670     -0.34329470805259     -1.44805039568775
  O   -1.71507911872168     -1.32915149777596     -1.59696404139599
  O   -0.45603685747123      0.30125669798457     -2.33675818915697
  N   -0.68042495986463      1.60594422493215      0.03379688210127
  H   -0.21975397583948      1.97177191644847     -0.79361333543088
  H   -1.62318250167599      1.97054334550715      0.08723140893615
  C   0.86123631340004     -1.76354794168287      0.11262400898520
  N   0.99279121942709     -2.92388673800414     -0.00733643659033
  N   1.15557296210794      0.09175612710522      1.59156142344103
  H   1.05425834516674      1.09697081794025      1.66762738365511
  H   2.12012689022744     -0.16459763156258      1.76146002424901
