15
Coordinates from ORCA-job run
  C   -0.64818766380404      0.13677655319395     -0.19272643611769
  C   0.82804257228645     -0.15342943544405      0.11345009550451
  Br  -1.76703046771369     -0.87306886810634      1.13991198288897
  H   1.38809624967595      0.28012677875732     -0.72055029632331
  N   -1.06294616524667     -0.42175813443677     -1.54673722410154
  O   -2.19341935719364     -0.13848160808941     -1.91534995269072
  O   -0.22215457087550     -1.05862391198646     -2.17206195517575
  N   -0.86302935555667      1.50900809088554     -0.23995946591368
  H   -1.83491627029924      1.75344469059546     -0.37555760019207
  H   -0.44313820069124      1.96135654886307      0.56302463055897
  C   1.13492809864690     -1.58997385610266      0.17515241632205
  N   1.46845642021286     -2.70802626938302      0.31131887775659
  N   1.17540422038952      0.57451950533430      1.32784499655144
  H   0.85979542483314      0.05501132569482      2.13968844646184
  H   2.18109906533585      0.67411859022424      1.39055148447040
