15
Coordinates from ORCA-job run
  C   -0.58661314560826      0.43623617898490     -0.06112469086979
  C   0.50178475622490     -0.26051643070161      0.76288930428974
  Br  -1.39672362246818      1.88887228591194      1.04099604170618
  H   0.06581399660411     -0.55383000052979      1.71927213431094
  N   -1.72113395715474     -0.56936481721145     -0.25971945178412
  O   -2.23818479689236     -0.60140504956354     -1.36905798806220
  O   -2.03860757224296     -1.22855146928148      0.71625728903440
  N   -0.09981187832908      0.83299633793935     -1.31180641426100
  H   0.52064557093063      1.62953204124832     -1.23311355075885
  H   -0.84914900872717      1.01956308525297     -1.96651317019287
  C   1.59628006421792      0.70062195917041      0.99794992916766
  N   2.51291860439989      1.42648537933343      1.11642543206481
  N   0.88622590356309     -1.44970528371778      0.03268563507772
  H   1.40912782708222     -1.20283613298579     -0.79762295680889
  H   1.43642725839997     -2.06909808384990      0.61348245708629
