12

C	-0.2076	-0.02794	-1.486792
C	0.0	0.0	0.0
Br	-2.127524	-0.256431	-2.04701
H	1.094722	0.0	0.0
H	0.037875	0.947724	-1.910859
H	-0.431573	0.881957	0.474889
H	-0.376953	-0.910364	0.471824
C	0.658566	-1.100899	-2.119362
H	1.661797	-0.913168	-1.701104
H	0.324028	-2.095841	-1.809804
H	0.6619	-1.052701	-3.21322
F	2.753668	0.0	0.0
