13

C	0.0	0.0	0.0
C	-0.2293	-0.003582	-1.559948
Br	1.942984	0.0	0.0
H	0.597183	0.586298	-1.961241
H	-0.411754	-0.887971	0.467422
C	-0.375075	1.220141	0.702758
N	-0.620781	2.154671	1.374501
C	-1.405214	0.561832	-2.269048
N	-2.213137	0.832167	-3.073923
N	-0.031904	-1.38613	-1.995818
H	-0.891861	-1.879736	-1.7869
H	0.060065	-1.376362	-3.007428
Br	-3.119918	0.0	0.0
