13

C	0.0	0.0	0.0
C	-0.449722	-0.280448	-1.474323
Br	1.942992	0.0	0.0
H	0.463879	-0.369731	-2.067928
H	-0.340499	-0.821389	0.627305
C	-0.408184	1.286756	0.554283
N	-0.576074	2.351499	1.022268
C	-1.143007	0.87564	-2.090452
N	-1.495569	1.775413	-2.760561
N	-1.11349	-1.567671	-1.534358
H	-2.034135	-1.441641	-1.101142
H	-1.26215	-1.806817	-2.509488
Br	-3.459473	0.0	0.0
