12

C	-0.525345	0.005731	-1.417962
C	0.0	0.0	0.0
Cl	0.056856	-1.463231	-2.26181
H	1.091299	0.0	0.0
H	-0.124907	0.863276	-1.958225
H	-0.390147	-0.839568	0.576265
C	-1.987945	0.028184	-1.471487
N	-3.162629	0.057518	-1.469914
N	-0.332648	1.234526	0.712195
O	-0.739347	1.137786	1.879372
O	-0.506877	2.260938	0.018996
Cl	2.879073	0.0	0.0
