12

C	-0.496427	0.007137	-1.43699
C	0.0	0.0	0.0
Cl	-0.028996	-1.535563	-2.212693
H	1.091443	0.0	0.0
H	-0.003529	0.808456	-1.987922
H	-0.392731	-0.839972	0.569167
C	-1.948067	0.169373	-1.529605
N	-3.114921	0.300957	-1.586244
N	-0.427375	1.239377	0.694735
O	-0.537036	2.260505	0.014144
O	-0.59691	1.175778	1.90906
Cl	3.278088	0.0	0.0
