12

C	-0.595034	-0.002315	-1.400369
C	0.0	0.0	0.0
Cl	-0.38493	1.63216	-2.104326
H	1.088062	0.0	0.0
H	-1.671122	-0.178803	-1.355767
H	-0.349273	0.867855	0.559077
C	-0.018122	-0.993769	-2.304931
N	0.39824	-1.763739	-3.087448
N	-0.466719	-1.189449	0.759023
O	-0.317817	-1.160645	1.975768
O	-0.961703	-2.125725	0.126218
Cl	3.256241	0.0	0.0
