12

C	-0.4865	-0.026588	-1.430144
C	0.0	0.0	0.0
Cl	-2.286559	-0.102878	-1.516405
H	1.092644	0.0	0.0
H	-0.116284	-0.92778	-1.919454
H	-0.39879	0.839748	0.564979
C	-0.044743	1.159419	-2.157877
N	0.269325	2.112518	-2.768299
N	-0.427974	-1.237555	0.698531
O	-0.750323	-1.133433	1.879481
O	-0.394462	-2.289421	0.063052
Cl	3.24447	0.0	0.0
