12

C	-0.595776	-0.069206	-1.398323
C	0.0	0.0	0.0
Cl	-0.396951	1.535515	-2.174636
H	1.088341	0.0	0.0
H	-1.670927	-0.250302	-1.344709
H	-0.348937	0.89331	0.517446
C	-0.014204	-1.094837	-2.261251
N	0.395853	-1.892095	-3.01935
N	-0.465776	-1.151803	0.813945
O	-0.94302	-2.124981	0.224584
O	-0.334424	-1.058942	2.029298
Cl	3.254508	0.0	0.0
