12

C	-0.504445	0.028727	-1.428942
C	0.0	0.0	0.0
Cl	-0.001183	-1.400022	-2.368334
H	1.088354	0.0	0.0
H	-0.001503	0.879766	-1.897184
H	-0.323771	0.910143	0.512877
C	-1.948392	0.23718	-1.553995
N	-3.08818	0.48722	-1.682805
N	-0.544576	-1.12191	0.808428
O	-1.461812	-1.795678	0.335405
O	-0.057961	-1.264147	1.924205
Cl	3.294119	0.0	0.0
