16

C	-0.453473	0.076951	-1.445076
C	0.0	0.0	0.0
Br	0.550193	-1.177198	-2.645075
H	1.091373	0.0	0.0
C	-1.882913	-0.175313	-1.627216
N	-3.048804	-0.261646	-1.761883
C	-0.159988	1.405605	-1.989775
N	0.014862	2.481785	-2.4323
N	-0.454412	-1.21867	0.623553
O	-0.289623	-1.317611	1.851018
O	-0.867586	-2.149366	-0.096253
C	-0.330397	1.220781	0.836816
H	0.087847	1.053509	1.828756
H	0.165038	2.09441	0.409851
H	-1.406587	1.404326	0.919657
H	2.400781	0.0	0.0
