16

C	-0.420903	0.007001	-1.443362
C	0.0	0.0	0.0
Br	-2.434438	-0.0949	-1.673098
H	1.094229	0.0	0.0
C	-0.042466	1.277997	-2.065837
N	0.251095	2.296299	-2.57525
C	0.135404	-1.069539	-2.267623
N	0.56515	-1.835104	-3.05084
N	-0.384912	-1.223716	0.653512
O	-0.543926	-2.241309	-0.043578
O	-0.40105	-1.228753	1.895621
C	-0.376865	1.22565	0.796877
H	-0.006638	2.119357	0.290683
H	0.121708	1.16038	1.76338
H	-1.456432	1.305437	0.951354
H	2.390804	0.0	0.0
