16

C	-0.411144	0.001189	-1.448088
C	0.0	0.0	0.0
Br	-2.417236	-0.124281	-1.692485
H	1.094318	0.0	0.0
C	-0.038264	1.274896	-2.069123
N	0.248307	2.293513	-2.582871
C	0.167257	-1.072765	-2.262179
N	0.620988	-1.833823	-3.036508
N	-0.391686	-1.21941	0.655194
O	-0.410223	-1.219874	1.897679
O	-0.553882	-2.23986	-0.040073
C	-0.378843	1.230599	0.788395
H	-1.459672	1.317844	0.927861
H	0.105655	1.1643	1.761687
H	0.004215	2.12012	0.284679
H	2.396384	0.0	0.0
