16

C	-0.4503	-0.05023	-1.461581
C	0.0	0.0	0.0
Br	0.081343	1.646251	-2.352457
H	1.091978	0.0	0.0
C	0.187064	-1.109097	-2.252592
N	0.657983	-1.893317	-2.991218
C	-1.906238	-0.128358	-1.582978
N	-3.081012	-0.1349	-1.641304
N	-0.401954	-1.226791	0.647206
O	-0.767203	-2.183197	-0.069632
O	-0.227948	-1.313925	1.872892
C	-0.427309	1.219836	0.783914
H	-1.495124	1.44029	0.680576
H	-0.199167	1.026661	1.83101
H	0.162978	2.079839	0.465091
H	2.43711	0.0	0.0
