16

C	-0.446913	-0.040999	-1.463556
C	0.0	0.0	0.0
Br	0.09207	1.656649	-2.349637
H	1.092016	0.0	0.0
C	0.189517	-1.09795	-2.25833
N	0.65931	-1.88415	-2.995081
C	-1.903139	-0.114271	-1.587483
N	-3.078733	-0.113342	-1.641311
N	-0.406397	-1.23097	0.638463
O	-0.255503	-1.317872	1.86661
O	-0.757917	-2.186733	-0.08469
C	-0.436908	1.208565	0.795958
H	-0.137885	1.039324	1.828934
H	0.087338	2.09403	0.435463
H	-1.519085	1.373308	0.755656
H	2.44324	0.0	0.0
