15

C	0.0	0.0	0.0
C	-0.487679	0.413892	-1.399706
Cl	1.80136	0.0	0.0
H	0.341772	0.335891	-2.107358
H	-0.269509	-1.043118	0.177924
H	-0.781724	1.470084	-1.372575
C	-0.557542	0.867346	1.1078
H	-0.236529	1.904218	0.976657
H	-1.650796	0.823655	1.056853
H	-0.235347	0.519787	2.09169
C	-1.654924	-0.442246	-1.881777
H	-2.535007	-0.350549	-1.239608
H	-1.359154	-1.495912	-1.924462
H	-1.96401	-0.140607	-2.887463
Br	-4.829883	0.0	0.0
