17

C	-0.550947	-0.01043	-1.450911
C	0.0	0.0	0.0
Br	0.383326	-1.347727	-2.500158
H	1.093858	0.0	0.0
N	-1.959594	-0.184149	-1.634619
H	-2.241274	-1.059911	-1.204219
H	-2.466307	0.593009	-1.218877
N	-0.194987	1.391043	-2.011321
O	-1.12732	2.195849	-2.039112
O	0.982982	1.589101	-2.294753
C	-0.502224	-1.220358	0.637545
N	-0.946365	-2.166497	1.147684
C	-0.458571	1.234473	0.788743
H	0.003257	2.130841	0.379781
H	-0.116767	1.128124	1.821489
H	-1.54889	1.345305	0.792828
Br	3.41855	0.0	0.0
