17

C	-0.560419	0.01104	-1.42304
C	0.0	0.0	0.0
Br	0.375627	-1.406878	-2.484867
H	1.0921	0.0	0.0
N	-1.964481	-0.089529	-1.458339
H	-2.301796	-0.048053	-2.411625
H	-2.265667	-0.947351	-1.01196
N	-0.195042	1.292981	-2.168217
O	-0.903289	1.569253	-3.134164
O	0.773531	1.925409	-1.777372
C	-0.462089	-1.243136	0.61786
N	-0.908005	-2.201383	1.132147
C	-0.489416	1.189042	0.839613
H	-1.578887	1.247668	0.856928
H	-0.070134	2.112257	0.443183
H	-0.114701	1.065672	1.857214
Br	3.473568	0.0	0.0
