17

C	0.0	0.0	0.0
C	-0.435579	-0.041306	-1.489551
Br	1.957153	0.0	0.0
H	0.43958	0.169005	-2.11008
H	-0.241826	1.007419	0.340196
C	-0.642342	-0.987633	0.944141
H	-1.733105	-0.873748	0.809271
H	-0.382945	-0.730831	1.974411
H	-0.334424	-2.010747	0.738942
C	-1.545962	0.938375	-1.806675
H	-2.444188	0.702287	-1.202901
H	-1.185376	1.944022	-1.563168
H	-1.787049	0.905705	-2.870635
N	-0.783509	-1.442681	-1.936406
O	-1.703821	-1.590759	-2.733385
O	-0.044248	-2.34812	-1.547359
H	-3.681865	0.0	0.0
