16

C	-0.556902	0.128751	-1.413462
C	0.0	0.0	0.0
F	-0.174205	-0.929285	-2.175701
H	1.091684	0.0	0.0
N	-1.955329	0.251516	-1.410169
H	-2.220676	0.872547	-0.653097
H	-2.303927	0.557138	-2.309182
N	0.080311	1.344774	-2.131559
O	-0.198023	1.442471	-3.326105
O	0.725797	2.153505	-1.474476
C	-0.467561	-1.278472	0.537868
N	-0.85196	-2.275673	1.021789
N	-0.541194	1.099079	0.825086
H	-0.519195	0.809949	1.795315
H	0.120032	1.862093	0.730421
Cl	3.301343	0.0	0.0
