16

C	-0.552124	0.01195	-1.41994
C	0.0	0.0	0.0
F	-0.114968	-1.067424	-2.12605
H	1.091739	0.0	0.0
N	-1.960841	0.0559	-1.456288
H	-2.231776	0.883807	-0.935876
H	-2.238034	0.203886	-2.421741
N	0.072172	1.242552	-2.157643
O	-0.688256	1.88304	-2.885211
O	1.26409	1.438415	-1.994824
C	-0.464942	-1.207339	0.692872
N	-0.847524	-2.133379	1.302548
N	-0.470322	1.235746	0.647255
H	-1.162243	1.027509	1.357286
H	0.331661	1.661947	1.096862
Cl	3.195601	0.0	0.0
