16

C	-0.275684	0.043501	-1.493542
C	0.0	0.0	0.0
F	0.025975	1.328544	-1.916117
H	1.103402	0.0	0.0
N	0.438541	-0.953658	-2.163493
H	1.405135	-0.955421	-1.840171
H	0.39543	-0.80992	-3.165803
N	-1.744776	-0.111637	-1.87949
O	-2.534838	-0.518889	-1.037046
O	-2.009643	0.16183	-3.048717
C	-0.443139	-1.240384	0.62333
N	-0.747291	-2.21241	1.205811
N	-0.575186	1.179539	0.653844
H	0.110443	1.921831	0.559694
H	-0.660783	0.985446	1.643638
Cl	3.282358	0.0	0.0
