16

C	-0.556008	0.02128	-1.419279
C	0.0	0.0	0.0
F	-0.152048	-1.075657	-2.113312
H	1.095039	0.0	0.0
N	-1.959581	0.115184	-1.425859
H	-2.303618	0.350648	-2.348103
H	-2.230422	0.799913	-0.728146
N	0.063649	1.202479	-2.206605
O	-0.264747	1.25691	-3.390113
O	0.756781	2.019529	-1.616376
C	-0.460991	-1.23848	0.628763
N	-0.813293	-2.209263	1.187144
N	-0.539038	1.16229	0.738902
H	0.171628	1.883676	0.677996
H	-0.628316	0.913682	1.714928
Cl	3.291073	0.0	0.0
