14

C	0.0	0.0	0.0
C	-0.506397	0.13137	-1.437875
F	1.383061	0.0	0.0
H	0.351954	0.532385	-1.995744
H	-0.336687	0.862823	0.576336
H	-0.344033	-0.917867	0.482068
N	-1.582183	1.116569	-1.48285
H	-1.935704	1.155718	-2.435688
H	-2.37843	0.752579	-0.910847
C	-0.875463	-1.238543	-2.019069
H	-1.763328	-1.607497	-1.500519
H	-0.051985	-1.95697	-1.915968
H	-1.115204	-1.1483	-3.084363
H	-3.629094	0.0	0.0
