14

C	0.0	0.0	0.0
C	-0.428391	0.013271	-1.476856
F	1.391393	0.0	0.0
H	0.328119	0.653285	-1.954207
H	-0.340299	0.900971	0.513629
H	-0.3586	-0.880864	0.535779
N	-1.736456	0.56161	-1.794121
H	-2.4859	0.198205	-1.160739
H	-1.724949	1.559341	-1.59283
C	-0.296519	-1.38622	-2.06149
H	-1.051562	-2.043235	-1.620743
H	-0.47374	-1.350231	-3.138392
H	0.697914	-1.802897	-1.866018
H	-3.723657	0.0	0.0
