16

C	-0.484045	-0.009378	-1.436187
C	0.0	0.0	0.0
Br	-2.377414	-0.11156	-1.626909
H	1.093549	0.0	0.0
N	0.017748	1.269583	-2.150308
O	0.879375	1.91137	-1.565238
O	-0.439304	1.478001	-3.265185
N	0.199216	-1.123345	-2.291106
O	1.412776	-1.141391	-2.168084
O	-0.488598	-1.811343	-3.020653
N	-0.41157	-1.273416	0.68543
O	-0.586555	-1.221619	1.89704
O	-0.411207	-2.2869	-0.00938
C	-0.517765	1.131806	0.730287
N	-0.937369	2.063428	1.315826
Cl	2.672807	0.0	0.0
