15

C	-0.348718	0.018222	-1.509877
C	0.0	0.0	0.0
Br	-0.045789	-1.859861	-2.216637
H	1.096938	0.0	0.0
N	-1.752571	0.261518	-1.735831
H	-2.005708	0.007114	-2.683108
H	-1.91118	1.256694	-1.608016
N	0.52238	0.962681	-2.094436
H	1.491278	0.810551	-1.806589
H	0.44882	0.969723	-3.103746
C	-0.561832	-1.122169	0.73846
N	-0.994052	-2.014776	1.36711
C	-0.465349	1.260527	0.583004
N	-0.873495	2.267782	1.028961
Cl	3.207833	0.0	0.0
