15

C	-0.348884	-0.01903	-1.509621
C	0.0	0.0	0.0
Br	-0.048119	1.858862	-2.217216
H	1.096912	0.0	0.0
N	0.522489	-0.964221	-2.093492
H	1.491779	-0.812398	-1.806384
H	0.447538	-0.972565	-3.102625
N	-1.752403	-0.262945	-1.734832
H	-2.003835	-0.012361	-2.682491
H	-1.910477	-1.258331	-1.60327
C	-0.466001	-1.259941	0.582806
N	-0.874911	-2.266553	1.029035
C	-0.561832	1.122627	0.737752
N	-0.99519	2.013972	1.367377
Cl	3.206828	0.0	0.0
