15

C	-0.351703	0.024678	-1.508857
C	0.0	0.0	0.0
Br	-0.05029	-1.849655	-2.224842
H	1.096909	0.0	0.0
N	-1.756304	0.268464	-1.729926
H	-2.011928	0.019734	-2.677991
H	-1.914113	1.263522	-1.595717
N	0.517365	0.973011	-2.090827
H	1.4874	0.820808	-1.806719
H	0.439932	0.986092	-3.099728
C	-0.56069	-1.125431	0.734766
N	-0.991793	-2.018584	1.36354
C	-0.465618	1.257777	0.588444
N	-0.870875	2.263517	1.040488
Cl	3.206218	0.0	0.0
