15

C	-0.369879	0.053176	-1.493841
C	0.0	0.0	0.0
Br	0.159187	-1.899777	-2.234489
H	1.095207	0.0	0.0
N	-1.74914	0.227502	-1.717478
H	-1.957395	0.277418	-2.707234
H	-2.265427	-0.548384	-1.321411
N	0.433679	1.014909	-2.09806
H	0.331459	1.043178	-3.103654
H	1.411825	0.8876	-1.837622
C	-0.569028	-1.141634	0.704583
N	-1.083507	-2.033056	1.271361
C	-0.449475	1.240948	0.641255
N	-0.79549	2.226172	1.178741
Cl	3.180457	0.0	0.0
