15

C	-0.195708	-0.000416	-1.527879
C	0.0	0.0	0.0
Br	-2.107104	0.002282	-2.031761
H	1.101192	0.0	0.0
N	0.360894	1.244652	-1.999405
H	0.319796	1.275941	-3.011691
H	1.339824	1.26766	-1.708739
N	0.362235	-1.245647	-1.99814
H	0.319666	-1.278769	-3.009943
H	1.341508	-1.267318	-1.708847
C	-0.508331	-1.203559	0.644274
N	-0.902424	-2.164579	1.192019
C	-0.508556	1.20366	0.643927
N	-0.902815	2.164782	1.191412
Cl	3.186434	0.0	0.0
