15

C	-0.183242	-0.000395	-1.530225
C	0.0	0.0	0.0
Br	-2.089335	-0.003656	-2.052021
H	1.101187	0.0	0.0
N	0.37703	1.244933	-1.996656
H	0.34083	1.277722	-3.009321
H	1.354513	1.264545	-1.70215
N	0.381208	-1.245195	-1.995212
H	1.358043	-1.265245	-1.696091
H	0.350044	-1.277998	-3.007699
C	-0.511338	-1.203557	0.64119
N	-0.909332	-2.159644	1.194514
C	-0.512169	1.203742	0.640489
N	-0.910459	2.161468	1.19122
Cl	3.189154	0.0	0.0
