15

C	-0.351334	0.055897	-1.499763
C	0.0	0.0	0.0
Br	0.184795	-1.889586	-2.242232
H	1.09527	0.0	0.0
N	-1.724918	0.232101	-1.745535
H	-1.917665	0.295662	-2.739292
H	-2.246444	-0.548651	-1.369682
N	0.459513	1.018852	-2.085739
H	1.433247	0.89561	-1.809837
H	0.372393	1.049897	-3.092042
C	-0.582932	-1.134044	0.703568
N	-1.108793	-2.021352	1.265341
C	-0.449058	1.248579	0.627809
N	-0.793973	2.240369	1.153346
Cl	3.183344	0.0	0.0
