15

C	-0.271367	-0.0187	-1.516102
C	0.0	0.0	0.0
Br	-2.261492	0.463523	-1.85437
H	1.107116	0.0	0.0
N	0.487741	1.042092	-2.080468
H	0.395546	1.070747	-3.088196
H	1.465728	0.910512	-1.81039
N	-0.002026	-1.306741	-2.027677
H	-0.622658	-2.016473	-1.657566
H	-0.033602	-1.313028	-3.038543
C	-0.513695	-1.186415	0.66866
N	-0.932909	-2.163442	1.168561
C	-0.468043	1.220233	0.645902
N	-0.832934	2.185108	1.206401
Cl	3.184932	0.0	0.0
