15

C	-0.292876	0.016736	-1.509517
C	0.0	0.0	0.0
Br	-2.293147	-0.434068	-1.814645
H	1.094709	0.0	0.0
N	-0.006846	1.296026	-2.033999
H	-0.596848	2.023528	-1.64727
H	-0.075153	1.301129	-3.04362
N	0.43744	-1.061725	-2.08057
H	0.310979	-1.10364	-3.084595
H	1.425062	-0.933651	-1.845756
C	-0.469854	-1.217331	0.651818
N	-0.843804	-2.178484	1.209994
C	-0.503518	1.188414	0.674825
N	-0.91027	2.165107	1.187426
Cl	3.176632	0.0	0.0
