15

C	-0.266871	0.077179	-1.515597
C	0.0	0.0	0.0
Br	-2.251593	0.601303	-1.830335
H	1.098656	0.0	0.0
N	0.506291	1.159871	-2.011839
H	1.481518	1.002208	-1.748623
H	0.416879	1.255391	-3.015763
N	-0.006847	-1.180886	-2.101245
H	-0.019382	-1.122557	-3.110316
H	-0.648354	-1.896867	-1.789096
C	-0.522182	-1.224142	0.591246
N	-0.971771	-2.215905	1.031902
C	-0.466507	1.178055	0.722185
N	-0.846623	2.115655	1.317913
Cl	3.190428	0.0	0.0
