15

C	-0.204366	0.010937	-1.538044
C	0.0	0.0	0.0
Br	-2.152185	0.044001	-1.951191
H	1.100672	0.0	0.0
N	0.398948	1.210881	-2.016474
H	1.337595	1.278448	-1.62046
H	0.476127	1.14408	-3.025194
N	0.325145	-1.169509	-2.173581
H	1.315783	-1.217494	-1.930511
H	-0.136083	-2.007225	-1.834194
C	-0.493152	-1.228245	0.604289
N	-0.877681	-2.229334	1.083559
C	-0.518063	1.179991	0.676835
N	-0.928444	2.125246	1.240222
Cl	3.176519	0.0	0.0
