15

C	-0.355908	-0.254776	-1.484482
C	0.0	0.0	0.0
Br	-0.03348	1.485611	-2.477855
H	1.093557	0.0	0.0
N	0.501994	-1.289711	-1.917406
H	0.419725	-1.455353	-2.912213
H	1.47502	-1.102976	-1.663815
N	-1.764072	-0.51302	-1.663252
H	-2.016565	-0.41804	-2.638569
H	-1.937752	-1.470036	-1.367
C	-0.460005	-1.152541	0.77912
N	-0.854105	-2.073562	1.393455
C	-0.570722	1.220607	0.552967
N	-1.047635	2.171155	1.049314
Cl	3.206062	0.0	0.0
