15

C	-0.637602	8.4e-05	-1.367519
C	0.0	0.0	0.0
Br	-0.035579	-1.534995	-2.363822
H	1.086136	0.0	0.0
H	-1.72231	-0.028974	-1.316865
N	-0.28369	1.244738	-2.139127
O	0.680401	1.895374	-1.760142
O	-1.010289	1.487796	-3.098352
N	-0.519249	-1.193536	0.755092
O	0.290807	-1.95387	1.263939
O	-1.747885	-1.291322	0.808835
N	-0.496316	1.168998	0.799263
O	-0.029309	1.276229	1.927679
O	-1.341467	1.903683	0.284719
Br	3.366273	0.0	0.0
