15

C	-0.503729	-0.003857	-1.419631
C	0.0	0.0	0.0
Br	-0.064486	1.653003	-2.289375
H	1.08707	0.0	0.0
H	-0.01015	-0.804498	-1.97287
N	-1.992622	-0.31466	-1.569085
O	-2.228538	-1.51587	-1.463109
O	-2.801498	0.590469	-1.689262
N	-0.422982	-1.239967	0.745301
O	-1.559033	-1.303959	1.207466
O	0.461233	-2.084278	0.864823
N	-0.452954	1.223096	0.752385
O	-1.65943	1.409075	0.890909
O	0.448852	1.958675	1.1431
Br	2.755023	0.0	0.0
