18

C	0.0	0.0	0.0
C	-0.567968	0.400486	-1.366646
Br	1.977119	0.0	0.0
H	-1.645424	0.48348	-1.157226
C	-0.330515	1.041698	0.979808
N	-0.550517	1.842129	1.811461
C	-0.496037	-1.352545	0.489189
H	-0.118115	-2.150536	-0.151268
H	-1.591511	-1.325463	0.460418
H	-0.160409	-1.533708	1.51154
C	-0.367566	-0.667	-2.437307
H	0.694943	-0.893724	-2.578362
H	-0.904238	-1.586824	-2.199151
H	-0.768534	-0.289795	-3.381912
N	-0.071318	1.722096	-1.730492
H	0.779957	1.639867	-2.274678
H	-0.767008	2.194253	-2.294069
Br	-3.944526	0.0	0.0
