18

C	0.0	0.0	0.0
C	-0.406356	0.358275	-1.490613
Br	1.972773	0.0	0.0
H	0.323846	-0.191917	-2.096418
C	-0.394318	1.034914	0.949705
N	-0.673992	1.888666	1.708686
C	-0.525479	-1.357556	0.430266
H	-0.225916	-2.116197	-0.297388
H	-0.135651	-1.632683	1.412132
H	-1.617387	-1.298528	0.476511
C	-0.256174	1.851196	-1.752907
H	0.709866	2.239707	-1.425375
H	-0.375427	2.027452	-2.823396
H	-1.047308	2.394933	-1.230893
N	-1.712538	-0.06181	-1.91254
H	-2.477165	0.296362	-1.33605
H	-1.80504	-1.068572	-1.901135
Br	-4.444837	0.0	0.0
