18

C	0.0	0.0	0.0
C	-0.523803	-0.222007	-1.447174
Br	1.972392	0.0	0.0
H	-1.614387	-0.212296	-1.320515
C	-0.366086	1.350375	0.421534
N	-0.634161	2.451753	0.733324
C	-0.508826	-1.037055	0.988193
H	-0.223979	-0.770713	2.007569
H	-0.094903	-2.018143	0.750272
H	-1.601623	-1.052903	0.909699
C	-0.113892	-1.565015	-2.034848
H	0.968337	-1.629748	-2.176659
H	-0.592155	-1.649054	-3.011753
H	-0.441821	-2.403389	-1.417449
N	-0.18524	0.845443	-2.376902
H	-0.755335	1.656039	-2.17321
H	0.78745	1.109496	-2.276713
Br	-3.939303	0.0	0.0
