14
Coordinates from ORCA-job run
  C   0.98342231635307     -0.18166609402918      0.27995427698806
  C   -0.19704450664702      0.35930284466124     -0.54400644949901
  H   1.92429412848986      0.10369156431232     -0.21015520971622
  H   -0.22949917703460     -0.19217733312017     -1.49242757851644
  H   0.96780694841277      0.30645304073778      1.25894498033573
  N   0.82392047486352     -1.62024215469830      0.47026131686802
  H   1.36585952040653     -1.93066161889047      1.26593638381492
  H   1.16942515315520     -2.11653082405688     -0.34182968893626
  C   0.04258820109748      1.76738199439095     -0.87087746247834
  N   0.24456097398182      2.90069785892780     -1.10205082900354
  C   -1.53106739031152      0.18455378756202      0.18318828846097
  H   -1.54228038338533      0.77989250602307      1.09943058177773
  H   -2.36596262904850      0.50402297336336     -0.44302203339052
  H   -1.65402363033328     -0.86571854518354      0.44465342329489
