14
Coordinates from ORCA-job run
  C   0.99932756219286     -0.21041031342235      0.18867692472508
  C   -0.23537069464441      0.36722167248740     -0.52328520029844
  H   1.89931568540771      0.04967735265881     -0.38519687006216
  H   -0.36970569016527     -0.17844313629077     -1.46611206693001
  H   1.08740831735640      0.27442971755705      1.16545021408096
  N   0.81658744317103     -1.64448813790041      0.39145010348681
  H   1.42040699373405     -1.97314958824460      1.13340823023830
  H   1.07126468382947     -2.14758689344620     -0.44950068050333
  C   0.01321218843166      1.76963527135560     -0.86734011820030
  N   0.22497255393373      2.89817400866936     -1.11304110702788
  C   -1.50228638103134      0.22659929387168      0.32186319957004
  H   -1.63135865966735     -0.82092773177894      0.59083135077121
  H   -1.41295437654932      0.81709661485476      1.23691610050683
  H   -2.38081962599922      0.57317186962862     -0.22512008035711
