19

C	-0.463514	-2.2e-05	-1.460453
C	0.0	0.0	0.0
F	0.254333	0.924907	-2.155153
H	1.091319	0.0	0.0
N	-0.075963	-1.363149	-2.037908
O	1.032583	-1.467652	-2.540923
O	-0.917682	-2.256912	-1.929786
C	-1.929375	0.238143	-1.732203
H	-2.180198	1.258185	-1.442353
H	-2.55906	-0.458652	-1.185838
H	-2.109479	0.120175	-2.80259
C	-0.524487	-1.146505	0.839062
H	-0.209766	-0.989429	1.871966
H	-1.610498	-1.229887	0.81167
H	-0.076904	-2.079609	0.497742
N	-0.462269	1.306129	0.573224
O	0.281136	2.275944	0.461751
O	-1.583214	1.331983	1.094142
Cl	3.353636	0.0	0.0
