19

C	-0.532172	-0.001658	-1.436654
C	0.0	0.0	0.0
F	0.221446	0.808814	-2.22119
H	1.091267	0.0	0.0
N	-0.362218	-1.414132	-2.004426
O	-1.232821	-2.228738	-1.694228
O	0.598836	-1.625714	-2.728324
C	-1.984461	0.389544	-1.59817
H	-2.089502	1.44466	-1.343235
H	-2.277882	0.252903	-2.640709
H	-2.631792	-0.208267	-0.960944
C	-0.460169	-1.152047	0.870942
H	0.044428	-2.06006	0.54291
H	-0.141818	-0.950919	1.89383
H	-1.537497	-1.308451	0.861955
N	-0.456181	1.306402	0.579779
O	0.083715	2.326004	0.159542
O	-1.386186	1.288441	1.394324
Cl	3.289236	0.0	0.0
