19

C	-0.39499	-0.004614	-1.47568
C	0.0	0.0	0.0
F	0.091546	-1.165654	-2.003019
H	1.092609	0.0	0.0
N	-1.916802	-0.11453	-1.56974
O	-2.535078	0.863269	-1.154622
O	-2.411397	-1.142044	-2.017465
C	0.072841	1.144959	-2.327668
H	1.149517	1.246241	-2.181332
H	-0.143699	0.900279	-3.370708
H	-0.419949	2.071229	-2.048186
C	-0.520596	-1.211376	0.74249
H	-1.608778	-1.215993	0.822134
H	-0.098987	-1.222369	1.747276
H	-0.184129	-2.107067	0.22064
N	-0.421711	1.269449	0.670627
O	0.084225	2.313869	0.266118
O	-1.221687	1.197535	1.604737
Cl	3.284337	0.0	0.0
