19

C	-0.479176	0.008796	-1.453005
C	0.0	0.0	0.0
F	0.270048	0.883526	-2.17989
H	1.091333	0.0	0.0
N	-0.159392	-1.383354	-2.007435
O	0.975246	-1.575738	-2.416821
O	-1.071224	-2.212907	-1.961627
C	-1.93672	0.310478	-1.701168
H	-2.152932	0.17646	-2.762662
H	-2.12447	1.34937	-1.430473
H	-2.587917	-0.338248	-1.12162
C	-0.509581	-1.162428	0.829011
H	-0.036238	-2.084024	0.49031
H	-1.593171	-1.269274	0.793027
H	-0.210032	-1.002256	1.865955
N	-0.44791	1.293279	0.608416
O	0.272637	2.276859	0.460135
O	-1.530638	1.296646	1.204081
Cl	3.347613	0.0	0.0
