19

C	-0.574562	-0.080378	-1.403601
C	0.0	0.0	0.0
F	-1.943823	0.044264	-1.337751
H	1.09135	0.0	0.0
N	-0.09278	1.062837	-2.295488
O	1.088146	1.012439	-2.607655
O	-0.919005	1.887088	-2.666824
C	-0.218242	-1.365238	-2.113759
H	-0.756676	-2.190986	-1.648655
H	0.857249	-1.533133	-2.054449
H	-0.525504	-1.297067	-3.15953
C	-0.458498	-1.164176	0.859413
H	-1.543316	-1.278473	0.859007
H	-0.122455	-1.000231	1.881553
H	0.019217	-2.076914	0.501743
N	-0.432674	1.302392	0.610934
O	-1.087389	1.280687	1.654632
O	-0.088585	2.324471	0.020718
Cl	3.27947	0.0	0.0
