19

C	-0.391293	0.002536	-1.477731
C	0.0	0.0	0.0
F	0.067243	-1.171902	-2.000524
H	1.092604	0.0	0.0
N	-1.914557	-0.070498	-1.576478
O	-2.510375	0.920825	-1.161056
O	-2.432107	-1.084831	-2.028208
C	0.110392	1.137507	-2.329717
H	-0.1057	0.896349	-3.373766
H	-0.358962	2.077213	-2.055129
H	1.188394	1.210589	-2.176504
C	-0.52737	-1.210751	0.737875
H	-0.186138	-2.106348	0.219615
H	-1.616429	-1.215259	0.806714
H	-0.116622	-1.221984	1.747073
N	-0.41646	1.268831	0.677407
O	0.085887	2.314134	0.272271
O	-1.206429	1.193524	1.619231
Cl	3.273098	0.0	0.0
