15
Coordinates from ORCA-job run
  C   -0.56919760906966     -0.39047339304064      0.44373113794348
  C   0.85306393621543      0.18781573230069      0.28846456894430
  Br  -0.64597524720305     -1.74989225598586      1.78068838108535
  H   1.08227942870726      0.64678883518080      1.25394925454869
  N   -1.01917062904733     -0.91526359030447     -0.91789494929245
  O   -0.66578772351026     -2.05265130385843     -1.19616392861922
  O   -1.60139990818574     -0.11487580293935     -1.63610854674616
  N   -1.53630019113640      0.71165978734606      0.86321231928246
  O   -1.03934724219032      1.73130921916495      1.32329483754575
  O   -2.72279993059613      0.44597885293649      0.75713063665966
  N   0.84753001663279      1.18979913410759     -0.75195000435726
  H   1.26282276648206      0.86172699455362     -1.61249030170754
  H   1.29568179124480      2.04245898361855     -0.45184106416149
  C   1.81782550339666     -0.89552140893246      0.05105817220627
  N   2.64177503825988     -1.69585978414753     -0.19608051333182
