15
Coordinates from ORCA-job run
  C   -0.73194511607398      0.30873659483726      0.15923356474771
  C   0.79933504939872      0.45849961275331      0.09744090085161
  Br  -1.59066813736908      2.00714999016501      0.13157780273780
  H   1.03307534836380      1.20339715460743      0.86317305548190
  N   -1.08668104730442     -0.41633994372248      1.46129885458273
  O   -1.70765616833719     -1.46509679502315      1.37301753908691
  O   -0.66967265045631      0.13034338427202      2.47107893897111
  N   -1.25086496796189     -0.56908034955885     -0.97431272755244
  O   -2.42935415908248     -0.47661790020534     -1.26999597526524
  O   -0.42202001781920     -1.33727896367785     -1.45375221932328
  N   1.18046330660618      0.97328358281490     -1.19646079738821
  H   2.03260510805517      1.51231419200850     -1.12826224989918
  H   1.31386093551901      0.21865425787447     -1.85685100979574
  C   1.46889935298036     -0.79238658051230      0.50211521645248
  N   2.06162316348129     -1.75557823663292      0.82069910631184
