15
Coordinates from ORCA-job run
  C   -0.49361473429975     -0.36801120302990      0.33322342542111
  C   0.71601467545135      0.38736662976936     -0.22548055688560
  Br  -0.05240400067994     -2.09716020192733      0.98078667837698
  H   0.35497052782438      1.39276328993932     -0.45746681912042
  N   -1.52867945267212     -0.41818732589193     -0.80334041808148
  O   -1.89987040745905      0.69990327662894     -1.13899010681790
  O   -1.86749685127922     -1.49088398974673     -1.25958867795866
  N   -1.20048491467211      0.42087168535925      1.43226772562982
  O   -2.24390087716424     -0.06413506149516      1.84196107188391
  O   -0.67562793418504      1.47168095870414      1.77921283808067
  N   1.10287783806338     -0.26073779842162     -1.46310172099318
  H   1.65190731706812      0.37215273443878     -2.03043241984987
  H   1.65385869496401     -1.09121244958022     -1.28159103069001
  C   1.78219541847722      0.49335236155411      0.78204804369832
  N   2.70225470056300      0.55223709369898      1.51049196730630
