16

C	-0.411311	-0.064869	-1.477806
C	0.0	0.0	0.0
Cl	0.104277	1.469067	-2.277165
H	1.092119	0.0	0.0
C	0.25182	-1.146947	-2.21513
N	0.747029	-1.965027	-2.897035
C	-1.865816	-0.15581	-1.651401
N	-3.036464	-0.164052	-1.742648
N	-0.453388	-1.237409	0.661543
O	-0.848957	-2.174792	-0.044984
O	-0.374736	-1.292349	1.888533
C	-0.511029	1.207044	0.754709
H	-1.601836	1.309608	0.71721
H	-0.199948	1.100751	1.79185
H	-0.042982	2.105845	0.358864
F	2.479227	0.0	0.0
