16

C	-0.443266	-0.010151	-1.468135
C	0.0	0.0	0.0
Cl	0.138175	1.514513	-2.243196
H	1.092096	0.0	0.0
C	0.151391	-1.107799	-2.240019
N	0.613713	-1.929082	-2.941207
C	-1.905445	-0.02276	-1.609134
N	-3.078062	0.030803	-1.669008
N	-0.467123	-1.244732	0.635905
O	-0.947142	-2.136295	-0.080097
O	-0.323676	-1.348823	1.852474
C	-0.479484	1.19124	0.801731
H	-1.57138	1.286474	0.823477
H	-0.109967	1.070219	1.818705
H	-0.038711	2.099813	0.396131
F	2.480247	0.0	0.0
