16

C	-0.3491	-0.311709	-1.439006
C	0.0	0.0	0.0
Cl	-2.154189	-0.424955	-1.739109
H	1.107288	0.0	0.0
C	0.128265	0.789968	-2.285513
N	0.471017	1.669312	-2.985125
C	0.259426	-1.543396	-1.95859
N	0.735092	-2.472461	-2.498153
N	-0.45981	-1.069983	0.889296
O	-0.583887	-0.802431	2.086712
O	-0.648112	-2.194519	0.414824
C	-0.449922	1.359415	0.483314
H	-0.04261	1.515522	1.480212
H	-1.539087	1.462868	0.521793
H	-0.030606	2.127647	-0.167687
F	2.45475	0.0	0.0
