16

C	-0.350532	-0.15232	-1.464607
C	0.0	0.0	0.0
Cl	-2.154411	-0.21391	-1.776749
H	1.099343	0.0	0.0
C	0.141064	1.029011	-2.186519
N	0.493167	1.975377	-2.78689
C	0.248251	-1.327232	-2.111182
N	0.717858	-2.198656	-2.744106
N	-0.460543	-1.159592	0.770219
O	-0.680521	-2.218516	0.173954
O	-0.552244	-1.029864	1.992943
C	-0.446826	1.299765	0.628877
H	-0.039841	1.343422	1.637086
H	-1.535636	1.402283	0.676563
H	-0.023139	2.132975	0.066642
F	2.456919	0.0	0.0
