16

C	-0.448001	0.116297	-1.461208
C	0.0	0.0	0.0
Cl	0.148236	1.693201	-2.110865
H	1.111612	0.0	0.0
C	0.128521	-0.919495	-2.326483
N	0.571927	-1.685294	-3.099042
C	-1.910695	0.132383	-1.599937
N	-3.082097	0.208446	-1.661958
N	-0.473526	-1.28685	0.531793
O	-0.960956	-2.112441	-0.25414
O	-0.330133	-1.493567	1.736174
C	-0.465784	1.125353	0.900418
H	-1.55727	1.225695	0.93953
H	-0.021783	2.061742	0.567143
H	-0.08889	0.91862	1.900573
F	2.474494	0.0	0.0
