16

C	-0.392585	-0.192375	-1.4721
C	0.0	0.0	0.0
Cl	0.044223	1.308157	-2.37822
H	1.110139	0.0	0.0
C	0.33366	-1.286133	-2.129454
N	0.864776	-2.121387	-2.761737
C	-1.839559	-0.381007	-1.646788
N	-3.007375	-0.470993	-1.746865
N	-0.441945	-1.188457	0.747617
O	-0.738887	-2.206882	0.106492
O	-0.438398	-1.13523	1.977103
C	-0.523408	1.262208	0.645219
H	-1.606893	1.39027	0.529853
H	-0.285165	1.213821	1.706178
H	-0.004893	2.122993	0.227019
F	2.474331	0.0	0.0
