16

C	-0.412644	0.059467	-1.470671
C	0.0	0.0	0.0
Cl	0.349759	-1.245682	-2.442701
H	1.091321	0.0	0.0
C	-1.867305	0.029436	-1.680502
N	-3.031495	0.099377	-1.828214
C	0.078295	1.326182	-2.03195
N	0.378239	2.365514	-2.490888
N	-0.528784	-1.211617	0.647424
O	-1.172174	-2.027921	-0.021042
O	-0.277261	-1.350556	1.844418
C	-0.435131	1.225325	0.786039
H	-0.094174	1.092948	1.811619
H	0.068778	2.104711	0.384386
H	-1.520406	1.383679	0.780553
F	2.482417	0.0	0.0
