16

C	-0.400362	-0.190529	-1.46998
C	0.0	0.0	0.0
Cl	0.111309	1.278162	-2.389308
H	1.095333	0.0	0.0
C	0.283821	-1.323109	-2.105133
N	0.805692	-2.186958	-2.706174
C	-1.853111	-0.310731	-1.651311
N	-3.022498	-0.337735	-1.765788
N	-0.456593	-1.178387	0.757399
O	-0.381032	-1.135188	1.984564
O	-0.850754	-2.16962	0.127262
C	-0.513913	1.267388	0.646413
H	-1.60239	1.378641	0.573268
H	-0.024983	2.127236	0.192245
H	-0.228412	1.239667	1.696453
F	2.477646	0.0	0.0
