16

C	-0.435221	-0.173582	-1.455939
C	0.0	0.0	0.0
Cl	0.467976	-1.48352	-2.293079
H	1.109763	0.0	0.0
C	-1.877833	-0.413622	-1.611681
N	-3.042464	-0.518391	-1.734479
C	-0.125759	1.062754	-2.188428
N	0.079388	2.049228	-2.792923
N	-0.47521	-1.128657	0.81542
O	-0.344034	-1.031403	2.036474
O	-0.930858	-2.130076	0.251465
C	-0.450066	1.315677	0.607579
H	-1.535493	1.46791	0.564242
H	-0.129804	1.325291	1.647503
H	0.057005	2.135465	0.098729
F	2.475059	0.0	0.0
