16

C	-0.376387	0.077257	-1.461838
C	0.0	0.0	0.0
Cl	-2.185601	0.195737	-1.737743
H	1.106973	0.0	0.0
C	0.199581	1.306659	-2.024224
N	0.62186	2.293519	-2.50181
C	0.113175	-1.035428	-2.286055
N	0.495103	-1.837237	-3.0556
N	-0.482374	-1.241006	0.608019
O	-0.785302	-2.18838	-0.12489
O	-0.518144	-1.289386	1.839497
C	-0.403199	1.20645	0.820449
H	0.070741	1.120607	1.796159
H	-0.016196	2.108837	0.34536
H	-1.485856	1.294209	0.951514
F	2.454383	0.0	0.0
