16

C	-0.360468	0.015691	-1.466844
C	0.0	0.0	0.0
Cl	-2.150566	0.198115	-1.797989
H	1.099747	0.0	0.0
C	0.29299	1.176555	-2.091274
N	0.801479	2.07966	-2.64314
C	0.116754	-1.16675	-2.197205
N	0.538634	-2.037216	-2.864505
N	-0.496857	-1.207585	0.665087
O	-0.362938	-1.266651	1.888036
O	-0.990222	-2.112978	-0.017183
C	-0.391029	1.24634	0.765393
H	0.079983	2.111107	0.295466
H	0.015944	1.158307	1.770752
H	-1.473557	1.397735	0.819627
F	2.458366	0.0	0.0
