15

C	0.0	0.0	0.0
C	-0.230909	-0.099729	-1.524106
F	1.388559	0.0	0.0
H	0.242045	0.781647	-1.963291
H	-0.360673	-0.89687	0.502317
C	-0.519068	1.270384	0.607927
H	-0.217005	1.313058	1.656699
H	-1.61052	1.272861	0.551699
H	-0.099002	2.133908	0.086275
C	-1.513535	-0.304076	-2.195932
N	-2.273902	-0.535767	-3.06322
N	0.636791	-1.251995	-2.012125
O	0.452386	-2.343322	-1.490052
O	1.44485	-1.0012	-2.900097
Br	-3.776369	0.0	0.0
