15

C	0.0	0.0	0.0
C	-0.423077	0.296826	-1.451552
F	1.386541	0.0	0.0
H	0.514407	0.332246	-2.021394
H	-0.349929	-0.997417	0.256658
C	-0.430793	1.032493	1.013228
H	-0.013669	2.007358	0.74801
H	-1.517596	1.085956	1.0492
H	-0.041074	0.738065	1.990232
C	-1.101067	1.565206	-1.681938
N	-1.444785	2.672587	-1.871259
N	-1.1508	-0.845712	-2.138181
O	-0.886949	-1.974453	-1.746493
O	-1.815209	-0.556482	-3.122548
Br	-3.568773	0.0	0.0
