16
Coordinates from ORCA-job run
  C   0.81949918951346      0.55902000225343      0.25212718305774
  C   -0.69956240386568      0.30594584796817      0.27511621802021
  Br  1.18856876940258      2.46289883537993      0.50700665356009
  H   -1.06453704031390      0.66945757811275      1.24212734708944
  N   1.36417047251679      0.17135642685412     -1.04042756914903
  H   2.29244200933721      0.56075187838332     -1.15670231216943
  H   1.44679315263576     -0.84009829105576     -1.07756472843711
  C   1.46191204573373     -0.13089885657531      1.38226999145252
  N   1.97236734835820     -0.74535361925464      2.24557107626862
  C   -0.98736022712290     -1.19709885962265      0.16957944929308
  H   -0.69197621501982     -1.57966751007503     -0.81115471004501
  H   -2.06380237399591     -1.35784987817315      0.26778132393971
  H   -0.49286541636956     -1.78167753527241      0.94996594302273
  N   -1.31023460761383      1.11087205763633     -0.76632681235525
  H   -2.31056768093352      0.95511954352518     -0.77682531730812
  H   -0.92684702226260      0.83722237991571     -1.66354373624020
