16
Coordinates from ORCA-job run
  C   0.85791115392295      0.40347031818894      0.31798945660759
  C   -0.66387838905744      0.18958753010224      0.18276203898180
  Br  1.09779484348992      2.42406950973741      0.72445475907089
  H   -1.12470004835424      0.61433414481505      1.08356101748064
  N   1.51748472528077     -0.01198911814838     -0.83796018480835
  H   1.04618505343306      0.36331960802054     -1.65393429664669
  H   2.51188037276751      0.16572805039431     -0.83865985330373
  C   1.39657468063334     -0.23497300514328      1.51490158693707
  N   1.80281513471729     -0.78292930206041      2.47217552821881
  C   -0.98450846257350     -1.29758584285023      0.10095074823434
  H   -0.54745663008539     -1.72947495240932     -0.79979996324704
  H   -2.06924396042385     -1.43451191413808      0.07317761869161
  H   -0.60322271884999     -1.83519809547743      0.97033533656246
  N   -1.07899749396351      0.84938439698589     -1.04987300887370
  H   -1.19392968188253      1.84375248962897     -0.89538070357535
  H   -1.96370857905439      0.47101618235378     -1.36370008033035
