16
Coordinates from ORCA-job run
  C   0.86983692758145      0.39377017936705      0.29677564917554
  C   -0.65691383687254      0.19663606712854      0.19949017732461
  Br  1.14258662971679      2.41079631078964      0.69889184321462
  H   -1.09049742420550      0.62532206845293      1.11190792001378
  N   1.49570786729923     -0.02763390997599     -0.87588128655752
  H   1.00811430856397      0.35437196610659     -1.67916905567610
  H   2.49144016728066      0.14085750713446     -0.90135688299877
  C   1.43147909992817     -0.25213846631628      1.47911410396095
  N   1.85652123942037     -0.80582322549977      2.42477986762127
  C   -0.99576834005816     -1.28681636087951      0.12439401101270
  H   -0.58909530380354     -1.72173998118788     -0.78906850643436
  H   -0.59577984905395     -1.83032525956609      0.98155268995315
  H   -2.08220830535195     -1.41190131132042      0.12708566337158
  N   -1.09565939429353      0.86249992959829     -1.02171726179719
  H   -1.19728994952971      1.85761008725362     -0.86285857163968
  H   -1.99147383662176      0.49351439891482     -1.31394036054458
