16
Coordinates from ORCA-job run
  C   0.83936990772359      0.35501454491122      0.25812498544964
  C   -0.65752564165043      0.15778870459358     -0.04271679265679
  Br  1.03105292009358      0.94044309925226      2.19132742582588
  H   -1.12190016959810      1.14607887773473      0.12489787541131
  N   1.38984089829588      1.31579631186959     -0.63323465553443
  H   2.39571113835439      1.38660340043299     -0.54217182385944
  H   0.97703962814969      2.22668924918903     -0.46692138353931
  C   1.57151940448194     -0.90646107366832      0.15787057150537
  N   2.17359463985565     -1.91330029894621      0.09765621399522
  C   -1.33433850256987     -0.87196769925488      0.84541438324391
  H   -0.84585557965780     -1.84185193355471      0.73061334575778
  H   -1.32299170064451     -0.57984693062137      1.89396254306334
  H   -2.37779088277186     -0.98068644800496      0.53711101328274
  N   -0.71376059467093     -0.30726862636699     -1.41981544307587
  H   -1.66937284505064     -0.51379973340253     -1.68141958820596
  H   -0.33359262034061      0.38676855583656     -2.04969867066338
