16
Coordinates from ORCA-job run
  C   0.84180606812904      0.43266032000310     -0.05080097630547
  C   -0.49885400335491     -0.23645100516095      0.30027869092924
  Br  0.54976755147269      1.93504349026039     -1.29149434870379
  H   -0.22007712332069     -1.02742824498739      1.01229793654884
  N   1.71834826845260     -0.50474804803794     -0.71558794070254
  H   2.59794451601289     -0.05761027238934     -0.94960233223166
  H   1.91557771179200     -1.27366832689004     -0.08067204611588
  C   1.42888158887141      1.02269823627596      1.16348679411898
  N   1.99898377794678      1.39972059736524      2.12040857903720
  C   -1.17297409070335     -0.87999966545120     -0.90659436821155
  H   -2.04926175871449     -1.43937191618933     -0.56864469090137
  H   -0.50098365957907     -1.55653106320383     -1.43520194614810
  H   -1.50862635733796     -0.11303541955610     -1.60779310545878
  N   -1.30780240990689      0.71948351901871      1.03862336983452
  H   -1.77778783381909      1.34551568501685      0.39463061838727
  H   -2.01594224594095      0.23672211392586      1.57666576592308
