14

C	-0.531059	-0.295005	-1.414001
C	-0.01555	0.038481	-0.016784
Cl	0.311407	-1.740916	-2.079916
H	1.060911	-0.104432	0.049815
H	-0.168281	1.091982	0.217879
N	-1.961599	-0.537486	-1.565717
H	-2.446951	0.285431	-1.218048
H	-2.174722	-1.308716	-0.938919
C	-0.183761	0.83869	-2.286237
N	0.030064	1.77358	-2.964244
N	-0.630889	-0.725709	1.024715
O	-1.019687	-1.889097	0.77815
O	-0.607078	-0.238784	2.169946
H	2.438713	-0.141398	0.118521
