14

C	-0.545892	-0.240681	-1.405937
C	0.007672	-0.012763	-0.002618
Cl	0.419628	-1.484062	-2.282447
H	1.10142	-0.034608	-0.002285
H	-0.244423	0.981869	0.365051
N	-1.944544	-0.638571	-1.524457
H	-2.501354	0.07168	-1.056241
H	-2.027801	-1.497703	-0.987506
C	-0.384118	1.02138	-2.146005
N	-0.3139	2.049121	-2.710163
N	-0.453827	-0.958844	0.962739
O	-0.415063	-0.61027	2.157892
O	-0.721897	-2.124885	0.593471
H	2.45577	0.076384	0.000367
