14

C	-0.503239	0.076617	-1.426278
C	-0.001643	-0.001357	0.008632
Cl	-0.152677	-1.549456	-2.138879
H	1.100142	0.020071	0.004858
H	-0.295124	-0.92804	0.498292
N	-1.921636	0.330288	-1.623289
H	-2.430513	-0.332309	-1.04593
H	-2.088307	1.260603	-1.248616
C	0.235736	1.061729	-2.233645
N	0.76015	1.835456	-2.944272
N	-0.447522	1.094006	0.797828
O	-0.448316	0.957504	2.036654
O	-0.6637	2.188162	0.220696
H	2.430677	0.026138	-0.074697
