13
Coordinates from ORCA-job run
  C   0.60564897537152      0.25969407492766     -0.45565832275524
  C   -0.90958945865979      0.29860805054348     -0.44115295327921
  Cl  1.13995596021679      0.76152211085538     -2.07230135109550
  H   -1.30921024172716     -0.39608117876791     -1.17893937583596
  H   -1.26899637052708      1.30769724881512     -0.64101078527898
  C   1.20985661672733      1.11638298646640      0.55249401430961
  N   1.65625539260392      1.87202980307711      1.33420831283757
  N   1.10395902748996     -1.18744835721003     -0.26656346910695
  O   2.16648172245033     -1.32486627705234      0.31476166319749
  O   0.40500908781087     -2.05056445836519     -0.77303204714295
  N   -1.45977557211836     -0.11251902550040      0.88902889547165
  O   -0.68322247667446     -0.63236953459784      1.68666222003245
  O   -2.65537266296386      0.08791455680855      1.05150319864601
