13
Coordinates from ORCA-job run
  C   0.47000562256408      0.03466870495830     -0.39208183935056
  C   -0.68741990303670     -0.43658732976730      0.47668132509470
  Cl  0.08276403525761     -0.17128946433037     -2.10390518169828
  H   -0.44585089205320     -0.30213355849143      1.53157090658558
  H   -0.92361033696764     -1.47275927198175      0.25322504701440
  C   0.90225868168893      1.39890652368581     -0.12693963070359
  N   1.29127765194994      2.48493872327516      0.10007961885809
  N   1.69642636121727     -0.87679160910421     -0.09620009966712
  O   2.75102832559907     -0.51636787951335     -0.58861014017376
  O   1.48537035085253     -1.87282415058592      0.58166019126664
  N   -1.90666638992921      0.37704903522491      0.18786919453764
  O   -1.85599227956337      1.56570315923567      0.49103212084814
  O   -2.85859122757930     -0.21251288260550     -0.31438151261188
