13
Coordinates from ORCA-job run
  C   0.48821226814705      0.36614551180224     -0.39854322941017
  C   -0.61353838733687      0.37415209926024      0.65111633653022
  Cl  -0.08179475699229      0.96725512207712     -1.94205363779938
  H   -0.24979683493576     -0.08893526806408      1.56941718455408
  H   -0.95169945095061      1.39186086936099      0.83756329828326
  C   1.59710533300707      1.17997761088742      0.08766302923200
  N   2.46820661110348      1.84796396761804      0.50832049095516
  N   1.06485145258701     -1.08154420781134     -0.53843112049429
  O   1.36015731768205     -1.57835177766993      0.53750803493773
  O   1.20381635679959     -1.54463597939107     -1.65014187952183
  N   -1.80474977059244     -0.41157047922053      0.20756478398773
  O   -2.89831683756737      0.01846683024425      0.55348290086894
  O   -1.58445330095091     -1.43978429909334     -0.42446619212344
