13
Coordinates from ORCA-job run
  C   0.49549555634366      0.36524727830503     -0.39082747152070
  C   -0.62083003368258      0.37696055480855      0.64286471901007
  Cl  -0.04862880633493      0.97398042301705     -1.94105795271259
  H   -0.27168074761614     -0.08520314874641      1.56729482991094
  H   -0.95904438946267      1.39563099409236      0.82412012871967
  C   1.60344368370635      1.17107464527489      0.11052573940687
  N   2.47682650379372      1.83338000598231      0.53563495447840
  N   1.06509282610817     -1.08580449825957     -0.52641050059362
  O   1.34028407780001     -1.58734384578338      0.55270005171841
  O   1.21914062952728     -1.54624319877436     -1.63698901954076
  N   -1.80903560771800     -0.40559689660747      0.18512873377663
  O   -2.90310140624613      0.01433163258586      0.54162485823389
  O   -1.58696228621875     -1.42141394589489     -0.46560907088718
