13
Coordinates from ORCA-job run
  C   0.47511829854806      0.20463109639593     -0.61111389691804
  C   -0.99877736114130     -0.01995330741518     -0.33774316417063
  Cl  0.69257090887527      0.25529928387048     -2.37219890824556
  H   -1.31789659070867     -0.97061320144190     -0.76326112601554
  H   -1.59378079758071      0.79464682973210     -0.74978869758841
  C   0.98841788849704      1.42776029539205     -0.01470701968671
  N   1.35229660004085      2.45521859721757      0.42490377346791
  N   1.30012128740902     -0.99796895516016     -0.10917439056541
  O   0.75508380722576     -2.08506803191416     -0.21455179135467
  O   2.42732229529476     -0.75648757795564      0.28682307357917
  N   -1.28515573084346     -0.07980149409097      1.13028706755980
  O   -0.32509956664538     -0.17563096233942      1.89087262536213
  O   -2.46822103897125     -0.05203257229075      1.43965245457596
