13
Coordinates from ORCA-job run
  C   0.45596911028513      0.45178079894954     -0.34028122828150
  C   -0.56691848129478      0.20900400483959      0.76041495508819
  Cl  -0.23220041075864      1.35267851938959     -1.67572908184660
  H   -0.13546169676873     -0.43756857244594      1.52583799176636
  H   -0.89400752896194      1.15481599170766      1.18839093482478
  C   1.59106198209772      1.17004789898912      0.22847215906024
  N   2.48710962962766      1.75659322101755      0.71348774864257
  N   1.03246531512830     -0.91958880610240     -0.82712197906873
  O   1.07220023031082     -1.14188966425742     -2.01803856336478
  O   1.42782766356093     -1.61800884712861      0.09347519007572
  N   -1.78307592026528     -0.48149349877993      0.23508519738342
  O   -1.59714458144741     -1.37078886218564     -0.58951479942727
  O   -2.85782531151379     -0.12658218399311      0.70352147514763
