13
Coordinates from ORCA-job run
  C   0.45174657609386      0.06717917165328     -0.46471297871127
  C   -0.63773933207802     -0.40838803771766      0.49134558224548
  Cl  -0.06411865120788     -0.09653844795176     -2.12914873176561
  H   -0.32404278316718     -0.24517725968547      1.52321106584133
  H   -0.85964024138638     -1.45836139582506      0.30397641869065
  C   0.94823597875111      1.41025302271775     -0.20072110749970
  N   1.40590453431786      2.47702227962889     -0.01437868081411
  N   1.64867225901012     -0.89893643105496     -0.16706960885463
  O   2.09040362669791     -0.77420861025856      0.96680329206228
  O   2.00089104054749     -1.67726416971855     -1.03154894430158
  N   -1.90805697124434      0.34917361086940      0.28379872049548
  O   -2.93470462665129     -0.31594999293308      0.20072873892041
  O   -1.81755140968321      1.57119626027573      0.23871623369125
