13
Coordinates from ORCA-job run
  C   0.52099198558550      0.44186017118660     -0.24812258194885
  C   -0.69730973306277      0.22363168263100      0.63757403504431
  Cl  0.11736014600581      1.34672934214405     -1.69269084243726
  H   -0.43168891613883     -0.42574308923437      1.47296121581465
  H   -1.08328401691603      1.17720486945081      0.99311156624443
  C   1.53959098410111      1.14322882386885      0.52537007941874
  N   2.33383861154220      1.71813177909572      1.17419471238397
  N   1.15409309182731     -0.94272866829943     -0.61270217711601
  O   1.35539045573741     -1.64168538318521      0.36838603397271
  O   1.41396993563209     -1.17361761936570     -1.77385909933845
  N   -1.80329566632389     -0.44874295536588     -0.10867287513278
  O   -2.94086758211727     -0.07012448028729      0.14239649345077
  O   -1.47978929587269     -1.34814447263915     -0.87794656035624
