13
Coordinates from ORCA-job run
  C   0.56968567175323      0.27288322726195     -0.49216033071820
  C   -0.92097239811149     -0.00118979112420     -0.51357800991770
  Cl  1.09652745554499      0.50568218167434     -2.17127978751382
  H   -1.12617473383514     -0.90905325654792     -1.07957846853978
  H   -1.45962991030704      0.84152850654116     -0.94606096239934
  C   0.92676570932372      1.43686531765455      0.30334881038285
  N   1.16832473621933      2.42146991638109      0.89794772859201
  N   1.33158112997611     -0.96165528616109      0.03156854497244
  O   2.36051995397262     -0.74411972379922      0.64777534510024
  O   0.85149359686388     -2.04074650235909     -0.27658742428390
  N   -1.46310303065049     -0.21376592750044      0.86538380240409
  O   -2.68255138090840     -0.23504851021931      0.95705345471832
  O   -0.65146679984132     -0.37185015180182      1.77416729720278
