13
Coordinates from ORCA-job run
  C   0.49090929520813      0.02241437576759     -0.36548558254796
  C   -0.71538449311346     -0.41958198503126      0.45058799485810
  Cl  0.19396412788362     -0.22683937611865     -2.09015654212232
  H   -0.53170507426711     -0.25920712845276      1.51349898828716
  H   -0.94512344449087     -1.46006412333443      0.24128250341281
  C   0.91844290076917      1.39091229898540     -0.11455139834316
  N   1.30394600461889      2.48002965644615      0.10307168024612
  N   1.69280518282003     -0.88784111854220      0.01885195909978
  O   1.43870437701581     -1.86502433192367      0.70919957025760
  O   2.77484240638409     -0.54657053533358     -0.42518218707860
  N   -1.91204576465051      0.39154776123617      0.07364202149218
  O   -2.84354226787298     -0.20939685445787     -0.45315604924316
  O   -1.86681325030479      1.58962136075911      0.33739704168146
