13
Coordinates from ORCA-job run
  C   0.44066894994389     -0.07515259838632     -0.42905836726603
  C   -0.65203384830030     -0.31998029460194      0.60321249289348
  Cl  -0.06070204910193     -0.64594732023697     -2.02493367076689
  H   -0.31152931918139     -0.00048392648419      1.58848126916444
  H   -0.93758092016629     -1.36762777242041      0.59810417055897
  C   0.88060679587830      1.30997878828412     -0.50236017411909
  N   1.24158912964387      2.42759040800798     -0.55546014270931
  N   1.67594636965539     -0.92544696803293     -0.02374634359628
  O   1.46228557928674     -1.86215496022956      0.73289912965701
  O   2.73556960104794     -0.60100823787522     -0.53187029591365
  N   -1.86159274167316      0.48737741889158      0.26314699059129
  O   -1.79887784393641      1.69119239198038      0.50010865299881
  O   -2.81434970309664     -0.11833692889648     -0.21852371149274
