13
Coordinates from ORCA-job run
  C   0.51693946132011      0.32805329599480     -0.39340443245897
  C   -0.66156471843496      0.42978312935858      0.56424936685821
  Cl  0.06139878547239      0.76034541630386     -2.02866894623747
  H   -0.36787122420554      0.06047022781049      1.54785090251120
  H   -1.01408943792534      1.45781191377607      0.62387491599262
  C   1.58310859198115      1.19995862893772      0.08718277894990
  N   2.41232634327724      1.92317713428901      0.50150271029588
  N   1.10720725703462     -1.12075629692937     -0.34032892150916
  O   1.30818893406967     -1.70353586909341     -1.38397632234954
  O   1.34183338031069     -1.49240850266408      0.79915062904912
  N   -1.81319364572630     -0.40492062109149      0.10678603814600
  O   -2.93081507216033      0.06579928036182      0.27948184299292
  O   -1.54246865501345     -1.50477773705402     -0.36470056224070
