13
Coordinates from ORCA-job run
  C   0.47785192726087      0.05111372319631     -0.44205507724087
  C   -0.65961095759566     -0.39282136362515      0.47203700557601
  Cl  0.07141249950293     -0.22166852450830     -2.12225031014019
  H   -0.41425483471093     -0.16353918316403      1.50985530823289
  H   -0.84928488594019     -1.45684449287201      0.33525042862628
  C   0.93152057309286      1.41776897807066     -0.22685220541626
  N   1.36285345246623      2.49875507173728     -0.06060407858089
  N   1.67385742932607     -0.86797443012914     -0.01490378755505
  O   2.03198005914285     -0.67741099577431      1.13904658468169
  O   2.10537874245922     -1.67536696528684     -0.81417306100697
  N   -1.93026885570608      0.32105247314321      0.14443699397370
  O   -2.94224738761343     -0.36798522901906      0.07974271531981
  O   -1.85818776168475      1.53692093823140      0.00346948352985
