13
Coordinates from ORCA-job run
  C   0.54683055120205      0.32657903981814     -0.48626430054665
  C   -0.95750646382548      0.32118723866875     -0.30057554367469
  Cl  0.88809432159305      1.02368761077775     -2.08280515379083
  H   -1.42693193781875     -0.29499677640700     -1.06648291080116
  H   -1.35235733405789      1.33602246006249     -0.34048012163505
  C   1.24754750258012      1.07976763248300      0.54182918877091
  N   1.76286317413443      1.75556741905565      1.35368277257917
  N   1.08517422210137     -1.11809633958648     -0.52270583947755
  O   0.34665799374248     -1.93753893412854     -1.04519775670693
  O   2.20873861063083     -1.29028617952057     -0.08248599724596
  N   -1.34822468344980     -0.25484178958141      1.02465873469893
  O   -0.47884856050679     -0.83957479678879      1.66628135892704
  O   -2.52103739632559     -0.10847658485295      1.33954556890276
