13
Coordinates from ORCA-job run
  C   0.58948892288088      0.26258453735310     -0.47432893438446
  C   -0.92468823348494      0.29474845836069     -0.41150232946949
  Cl  1.06958929351622      0.76733609249087     -2.10706888186084
  H   -1.34414698919270     -0.40091962820501     -1.13727675382899
  H   -1.29464614722920      1.30234392245882     -0.59931656718790
  C   1.22158439080427      1.12185860411816      0.51431862553506
  N   1.68820036179042      1.88084269706286      1.28084541667771
  N   1.10019553757043     -1.18225286236058     -0.30198529946025
  O   2.18173592292723     -1.31464218384792      0.24441101412539
  O   0.38944251666170     -2.04847173746127     -0.78619281311851
  N   -1.43054952739138     -0.11963198231325      0.93495730325547
  O   -2.62169806055109      0.07355605981250      1.13450917462928
  O   -0.62650798830183     -0.63535197746896      1.70763004508756
