13
Coordinates from ORCA-job run
  C   0.53774147515963      0.30790725650458     -0.50744963900323
  C   -0.96227518418221      0.31743768060813     -0.28955961160572
  Cl  0.84781591129320      0.95285394807596     -2.13198713585447
  H   -1.45132661571631     -0.31928281318606     -1.02586584452849
  H   -1.35213432682529      1.33305564143239     -0.35265196275526
  C   1.26450773652990      1.08884059906286      0.48115101506574
  N   1.80471116665465      1.78749004500595      1.25664502165593
  N   1.06747094930871     -1.14032344533598     -0.50984654490470
  O   2.19869399900370     -1.30587814303524     -0.08713840862687
  O   0.31391389688421     -1.97099319786850     -0.99152223398492
  N   -1.32795149027184     -0.21476577979842      1.06081154131417
  O   -0.44797814686809     -0.78392278293742      1.70223157209994
  O   -2.49318937097029     -0.05241900852835      1.39518223112793
