13
Coordinates from ORCA-job run
  C   0.49939668827705      0.01131643564194     -0.42603584835183
  C   -0.69857646686323     -0.33929221735023      0.45067749228490
  Cl  0.14430094546100     -0.27598936740268     -2.11537088574029
  H   -0.47935546096446     -0.10225413373711      1.49275051880674
  H   -0.94844956895459     -1.39280891038918      0.32976482828493
  C   1.02962229518464      1.35163530792689     -0.22109926445906
  N   1.50830717430222      2.41330033757095     -0.06029436838931
  N   1.61534383135089     -0.97130291427724      0.06977029016788
  O   1.94709325103992     -0.76830689073171      1.22964321047229
  O   2.01645766778757     -1.83199366534563     -0.68870351370802
  N   -1.91132845789370      0.44218988111649      0.06198301637522
  O   -2.96790245221042     -0.17824803923332      0.02490000464402
  O   -1.75390944651688      1.63975417621078     -0.14798548038752
