13
Coordinates from ORCA-job run
  C   0.41495293760686     -0.07499307769290     -0.44766298354855
  C   -0.60935401702629     -0.30811726259490      0.65419052541073
  Cl  -0.17309121058932     -0.70821095414671     -1.99000366931430
  H   -0.22811703802692      0.06447434833343      1.60529562968604
  H   -0.85973916028882     -1.36322132209639      0.71117852719283
  C   0.82596368854222      1.31345107744408     -0.59370578856328
  N   1.18741263949564      2.42620282500041     -0.70903507273246
  N   1.69357790096058     -0.88458457803027     -0.09320587661672
  O   1.57326236733485     -1.73796525992418      0.77479836143892
  O   2.68967512216047     -0.61031762842116     -0.73961785342700
  N   -1.86396134378187      0.44250338454259      0.34800784871200
  O   -2.84268000689226     -0.22302077726055      0.02316477576304
  O   -1.80890187949513      1.66479922484653      0.45559557599879
