13
Coordinates from ORCA-job run
  C   0.47627102296294      0.40623798304190     -0.37053007855820
  C   -0.60844550465697      0.30260162489969      0.69208073154222
  Cl  -0.13283375341534      1.12157796533956     -1.84907220551066
  H   -0.22232692623695     -0.23487143268270      1.55933318343306
  H   -0.95950039908606      1.29382830274048      0.97297164183053
  C   1.57706599444264      1.19964671374969      0.16485160694862
  N   2.43377426364266      1.85669588701911      0.63030993351028
  N   1.07767173714142     -1.01312187243232     -0.64085066161735
  O   1.18358530051525     -1.38908909864309     -1.78837869512825
  O   1.42030514363750     -1.58274119539300      0.38374975012304
  N   -1.79298945049907     -0.45918131076256      0.19340480361785
  O   -1.56123368622182     -1.44723324969824     -0.49599856750436
  O   -2.89234374222618     -0.05335031717852      0.55012855731319
