13
Coordinates from ORCA-job run
  C   0.50187809685420      0.01242158066430     -0.41897109442670
  C   -0.70386235967092     -0.34209937601895      0.44522800031817
  Cl  0.16476013441064     -0.28006185108619     -2.11123345232406
  H   -0.49743030471937     -0.10208700255027      1.48913721541186
  H   -0.94853210215186     -1.39660960112235      0.32271962919153
  C   1.02330309650870      1.35603644140393     -0.21197355953699
  N   1.50607465060774      2.41544616870072     -0.04837046789955
  N   1.61885478580297     -0.96214263200301      0.09002476889338
  O   2.04076675110399     -1.81455847922829     -0.66655953348335
  O   1.93057449080518     -0.76153479308068      1.25574660611280
  N   -1.91374117169045      0.43449622439352      0.03898916385948
  O   -2.96304236234636     -0.19448040256325     -0.04040763966001
  O   -1.76160370551444      1.63717372249052     -0.14432963645659
