13
Coordinates from ORCA-job run
  C   0.47202548082001      0.39333871015359     -0.38820917435687
  C   -0.60045264420102      0.32715341627097      0.68969791450011
  Cl  -0.15231430910840      1.06128860374190     -1.88234204951465
  H   -0.94534445742046      1.32786853515717      0.94326028600395
  H   -0.20557510887017     -0.18393658341378      1.56889042958883
  C   1.58156808532231      1.20028231454952      0.10733261262159
  N   2.45640254213775      1.86208301187478      0.53036290166649
  N   1.06701739887832     -1.03619282415708     -0.61872591303615
  O   1.42061538392085     -1.57237631954638      0.42009053398245
  O   1.15805429931043     -1.45012702254977     -1.75435388771269
  N   -1.79276179882281     -0.44667564026285      0.22962380249446
  O   -1.57123360920869     -1.45755294462872     -0.42947006060920
  O   -2.88700126275813     -0.02615325718935      0.58484260437167
