15

C	-0.392625	0.028886	-1.452513
C	0.0	0.0	0.0
F	-1.78482	0.000932	-1.622811
H	1.094213	0.0	0.0
H	0.020475	-0.848663	-1.953504
C	0.09847	1.251551	-2.111526
N	0.419109	2.228757	-2.677673
N	-0.378597	-1.289101	0.564694
O	-0.283061	-2.292013	-0.160929
O	-0.655358	-1.341646	1.771982
C	-0.491216	1.16116	0.826248
H	-1.579306	1.181112	0.911345
H	-0.147915	2.090456	0.368987
H	-0.060083	1.10139	1.823001
H	2.545552	0.0	0.0
