15

C	-0.396036	0.033419	-1.449108
C	0.0	0.0	0.0
F	-1.788137	0.019514	-1.615475
H	1.094229	0.0	0.0
H	0.001005	-0.847907	-1.952994
C	0.102044	1.248944	-2.112698
N	0.431198	2.220582	-2.682476
N	-0.37899	-1.288351	0.564645
O	-0.290498	-2.291006	-0.161711
O	-0.643579	-1.342005	1.774897
C	-0.485864	1.162716	0.830434
H	-1.574054	1.178448	0.927102
H	-0.040759	1.103662	1.822835
H	-0.149141	2.092318	0.365563
H	2.544478	0.0	0.0
