15

C	-0.386723	0.022578	-1.452884
C	0.0	0.0	0.0
F	-1.776082	-0.026038	-1.628963
H	1.094217	0.0	0.0
H	0.037108	-0.848924	-1.951946
C	0.08674	1.24977	-2.11201
N	0.404798	2.230544	-2.672848
N	-0.373791	-1.290369	0.565452
O	-0.252286	-2.293965	-0.152508
O	-0.669996	-1.342452	1.768072
C	-0.49943	1.162011	0.823075
H	-0.151577	2.092041	0.367061
H	-1.589755	1.178552	0.89726
H	-0.076387	1.100176	1.825085
H	2.550375	0.0	0.0
