15

C	-0.528853	-0.010069	-1.424758
C	0.0	0.0	0.0
F	-0.380588	1.261707	-1.977012
H	1.09088	0.0	0.0
H	-1.597996	-0.244769	-1.441363
C	0.148995	-0.959187	-2.326217
N	0.60613	-1.661236	-3.147389
N	-0.449837	-1.188501	0.672101
O	-0.311493	-1.258181	1.905213
O	-0.856161	-2.139851	-0.032063
C	-0.351841	1.255299	0.767981
H	0.071934	1.167165	1.767654
H	-1.431262	1.425433	0.842353
H	0.119575	2.104752	0.273306
H	2.495543	0.0	0.0
