15

C	-0.392315	0.020292	-1.452015
C	0.0	0.0	0.0
F	-1.783448	-0.044675	-1.617924
H	1.094214	0.0	0.0
H	0.036783	-0.847802	-1.952736
C	0.059843	1.25095	-2.118898
N	0.35268	2.230998	-2.694405
N	-0.375556	-1.299786	0.55217
O	-0.756805	-1.356219	1.73073
O	-0.177683	-2.300976	-0.152758
C	-0.525449	1.149849	0.822363
H	-1.61712	1.158966	0.867756
H	-0.130591	1.079554	1.834997
H	-0.171329	2.086682	0.385443
H	2.560946	0.0	0.0
