15

C	0.0	0.0	0.0
C	-0.249095	0.170189	-1.527479
F	1.419965	0.0	0.0
H	0.440173	-0.564062	-1.978394
N	-0.428026	1.103701	0.762239
H	-1.103298	1.685528	0.294213
H	-0.81256	0.832306	1.65316
C	-0.349241	-1.317822	0.529801
N	-0.397037	-2.392156	0.997043
N	0.152831	1.547443	-1.839775
H	1.15943	1.583177	-1.74181
H	-0.096906	1.766488	-2.793781
C	-1.539904	-0.130763	-2.150919
N	-2.29455	-0.351272	-3.029352
Cl	-3.370987	0.0	0.0
