15

C	0.0	0.0	0.0
C	-0.1668	0.040731	-1.566549
F	1.41086	0.0	0.0
H	0.505153	-0.755905	-1.915905
N	-0.472325	1.095562	0.739078
H	-0.358796	1.914514	0.145904
H	-1.481707	0.940049	0.852327
C	-0.40063	-1.299066	0.563342
N	-0.525894	-2.381922	0.999959
N	0.30358	1.368484	-1.979197
H	-0.000925	1.561109	-2.924804
H	1.314589	1.373556	-1.952072
C	-1.439916	-0.234091	-2.244903
N	-2.151904	-0.485542	-3.148003
Cl	-3.315217	0.0	0.0
