15

C	0.0	0.0	0.0
C	-0.373576	0.478094	-1.435417
F	1.369351	0.0	0.0
H	0.388626	1.237837	-1.64731
N	-0.513957	0.907532	0.956823
H	-0.845649	0.433339	1.784469
H	-1.287464	1.425498	0.545469
C	-0.38355	-1.409219	0.267633
N	-0.543323	-2.518122	0.621848
N	-1.663937	1.110893	-1.476971
H	-1.885106	1.43366	-2.409164
H	-2.443561	0.535339	-1.124626
C	-0.142338	-0.614739	-2.406031
N	0.017156	-1.410474	-3.256434
Cl	-4.16343	0.0	0.0
