15

C	0.0	0.0	0.0
C	-0.420675	-0.055835	-1.485648
F	1.421928	0.0	0.0
H	-1.5188	-0.018366	-1.466092
N	-0.46106	1.103695	0.760918
H	-1.477441	0.991903	0.842883
H	-0.2781	1.957795	0.242949
C	-0.370967	-1.272567	0.657069
N	-0.576031	-2.288906	1.206907
N	0.019036	-1.236198	-2.211705
H	0.968894	-1.46423	-1.941542
H	-0.582654	-2.010169	-1.957199
C	0.084555	1.158859	-2.140497
N	0.488956	2.141372	-2.640821
Cl	-3.429655	0.0	0.0
