14

C	0.0	0.0	0.0
C	-0.368719	-0.074811	-1.514003
F	1.368502	0.0	0.0
H	0.409427	-0.688645	-1.985335
C	-0.564739	1.190734	0.645672
N	-0.589143	2.217767	1.23779
C	-0.562628	-1.200306	0.645918
N	-0.547144	-2.252874	1.191749
N	-0.208692	1.291418	-2.158631
O	-1.053476	1.650746	-2.970176
O	0.800122	1.917155	-1.847629
C	-1.704912	-0.612362	-1.771365
N	-2.459466	-1.21282	-2.465548
H	-2.113335	0.0	0.0
