14

C	0.0	0.0	0.0
C	-0.207583	-0.243359	-1.564121
F	1.378715	0.0	0.0
H	0.412126	0.522044	-2.037369
C	-0.521147	1.286446	0.464588
N	-0.516113	2.348757	0.989606
C	-0.469007	-1.088138	0.856289
N	-0.571878	-1.987455	1.611607
N	-1.583965	-0.049527	-1.994235
O	-2.345514	-0.926696	-1.436102
O	-1.911945	1.167792	-1.979695
C	0.27284	-1.576966	-1.920433
N	0.690497	-2.622741	-2.251978
H	-2.337134	0.0	0.0
