14

C	0.0	0.0	0.0
C	-0.304304	-0.15278	-1.534265
F	1.377063	0.0	0.0
H	0.244821	0.671308	-2.007633
C	-0.460176	1.265696	0.583499
N	-0.449366	2.268969	1.200618
C	-0.423056	-1.145117	0.816585
N	-0.567071	-2.066102	1.546175
N	-1.727124	-0.003872	-1.864256
O	-2.138766	1.14414	-1.417893
O	-2.366405	-0.99059	-1.203661
C	0.238935	-1.427848	-2.020326
N	0.7243	-2.420244	-2.433609
H	-2.414798	0.0	0.0
