12
Coordinates from ORCA-job run
  C   0.18891491115789     -0.27646920069208      0.20883898817803
  C   0.43311989112436      1.20961275781960      0.44819459152133
  Br  0.26754254737185     -1.20850701311177      1.94376759984035
  H   0.40493776054277      1.73730249696095     -0.50943694488347
  H   -0.34692939170547      1.60928528205349      1.09856500478848
  H   1.40375586247344      1.37735126818741      0.91535241226864
  C   -1.17366248697614     -0.54462800739254     -0.42136461095058
  H   -1.96010557701778     -0.15036101656865      0.22458577276701
  H   -1.22517966346342     -0.04475283641940     -1.39283528604600
  H   -1.33597782980629     -1.61300860361006     -0.56510008520393
  C   1.25187339817104     -0.83841730984720     -0.62261963729559
  N   2.09171057812776     -1.25740781737974     -1.32994780498427
