12
Coordinates from ORCA-job run
  C   0.18692232720534     -0.28639518171629      0.19728941060130
  C   0.45815230475205      1.18696552709722      0.48259349570211
  Br  0.27363951625191     -1.27729331760317      1.89846843198794
  H   0.42729108393412      1.74651241236780     -0.45663552300510
  H   1.43686583163820      1.32350308349858      0.94295171912513
  H   -0.30757920881220      1.57690799063917      1.15543875873195
  C   -1.18796689840836     -0.51167866484042     -0.42292459531630
  H   -1.24405262657787      0.02176973376566     -1.37606926530680
  H   -1.95942822844971     -0.12759310277326      0.24673732313010
  H   -1.36906370961574     -1.57192498976509     -0.60050585406048
  C   1.22981690876479     -0.83612933440861     -0.66731683813575
  N   2.05340269931748     -1.24364415626159     -1.40002706345409
