18

C	-0.352795	0.025684	-1.495485
C	0.0	0.0	0.0
F	-0.073235	-1.278896	-1.987359
H	1.097674	0.0	0.0
C	-1.815218	0.261185	-1.811661
H	-2.431201	-0.487144	-1.308684
H	-1.969475	0.162618	-2.88993
H	-2.121451	1.260444	-1.502631
N	0.483547	0.992386	-2.113042
H	0.39604	0.935005	-3.120199
H	1.454961	0.824744	-1.850322
C	-0.52968	-1.19702	0.640391
N	-1.011344	-2.112913	1.196361
C	-0.456533	1.2569	0.745019
H	-0.106182	2.134622	0.201007
H	-0.010834	1.267675	1.741434
H	-1.543996	1.30059	0.848929
Br	3.526192	0.0	0.0
