18

C	-0.343578	0.000202	-1.499912
C	0.0	0.0	0.0
F	-1.743301	-0.048252	-1.623766
H	1.097041	0.0	0.0
C	0.149306	1.257743	-2.181997
H	-0.028838	1.155558	-3.253789
H	1.218399	1.386316	-1.992487
H	-0.392263	2.129807	-1.814348
N	0.17293	-1.150522	-2.198377
H	1.190027	-1.094731	-2.179084
H	-0.0877	-1.990844	-1.691596
C	-0.482025	-1.240804	0.601292
N	-0.898648	-2.233337	1.072547
C	-0.510519	1.208093	0.785318
H	-0.278909	1.086573	1.845733
H	-1.590992	1.32461	0.66869
H	-0.006741	2.112902	0.442807
Br	3.512136	0.0	0.0
