18

C	-0.434143	-0.012506	-1.47712
C	0.0	0.0	0.0
F	-0.127739	1.24311	-2.005151
H	1.096007	0.0	0.0
C	0.372764	-1.018911	-2.276279
H	0.119368	-0.922832	-3.336882
H	1.439846	-0.834217	-2.131906
H	0.14275	-2.035364	-1.947588
N	-1.873152	-0.1343	-1.583941
H	-2.178581	-0.965329	-1.090448
H	-2.118346	-0.24665	-2.561747
C	-0.463132	-1.234743	0.62721
N	-0.902129	-2.217232	1.100706
C	-0.508851	1.224851	0.759609
H	-0.15078	1.192056	1.790449
H	-1.599106	1.273727	0.748981
H	-0.105989	2.118802	0.284927
Br	3.557728	0.0	0.0
