17
Coordinates from ORCA-job run
  C   -0.32139446000210     -0.04033539203386     -0.42672068918093
  C   0.72070511367659      0.13996379723706      0.69077983096995
  F   0.30844208228399      0.40662626378213     -1.60336208182686
  H   0.29158338427188     -0.26788411402563      1.61286755201195
  C   -0.66347956156412     -1.50269647155883     -0.62017896095072
  H   -1.31602359214329     -1.60563819734970     -1.48938931509866
  H   -1.18802140538278     -1.89145976022886      0.25613784254302
  H   0.24208924287772     -2.08636009128592     -0.77474187603569
  C   -1.54672949389143      0.82303948242409     -0.21420563032376
  H   -2.03761653431375      0.57400252455676      0.73002080679285
  H   -1.27881075370226      1.88031724650018     -0.20425606057459
  H   -2.25490286496206      0.65387985038598     -1.02747807596037
  C   0.98027974103281      1.57626922464700      0.92422846467502
  N   1.20665440376188      2.70874102817752      1.13948454973174
  N   1.92387572456313     -0.61643877474515      0.37172460058639
  H   2.60588984745415     -0.51683139925659      1.11377939812532
  H   2.32845912603964     -0.23719521722618     -0.47669035548466
