17
Coordinates from ORCA-job run
  C   -0.64310963135450     -0.19103734805203      0.10632895615805
  C   0.72135315613589      0.01868589145997      0.78752232100701
  F   -1.58892958544495     -0.08740897609963      1.13568001370960
  H   0.84491405891917     -0.80188868381348      1.50181871662250
  C   -0.95287911426713      0.89027272168716     -0.90717539574177
  H   -1.96960062829099      0.75090249547282     -1.27926945917224
  H   -0.26918541415063      0.83648897633168     -1.75680330061537
  H   -0.89101636265710      1.88029762987986     -0.44973624577046
  C   -0.74320021202239     -1.58617568498180     -0.47032977665877
  H   -0.62142401170176     -2.32640854137133      0.32398105884709
  H   0.02845855629644     -1.74421292975160     -1.22280638644652
  H   -1.72774564319686     -1.72719216021900     -0.92094638258248
  C   0.71479224571861      1.27392169527090      1.56474322729743
  N   0.73933245461448      2.26544015481017      2.19390401334398
  N   1.79983627815335     -0.06021860539450     -0.19202573882094
  H   2.68284298104081     -0.20826698852336      0.28131023372655
  H   1.87456087220755      0.81680035329414     -0.69419585490364
