17
Coordinates from ORCA-job run
  C   -0.65117434688927     -0.19139666741212      0.06513738439701
  C   0.56212208630926      0.36747108751208      0.83503660955996
  F   -1.46774259163405     -0.77449611407771      1.03795463798768
  H   0.14475282814314      0.97135937487682      1.64748703638326
  C   -1.45549002331182      0.91996878829367     -0.58043062683168
  H   -1.70471247749031      1.68916875029640      0.15506315233190
  H   -2.38821795959516      0.50279826298698     -0.96464787636952
  H   -0.91284935940455      1.38381457289175     -1.40542257191202
  C   -0.25584438666887     -1.27822647449484     -0.91111833780110
  H   0.45254323063412     -0.90236344672425     -1.65397945774830
  H   -1.14299904916380     -1.64155159658701     -1.43300848985652
  H   0.18726130485974     -2.11452738827932     -0.36968831354683
  C   1.34595379114042      1.25822824462547     -0.04352089725220
  N   2.01472751983047      1.91512691515342     -0.75214097492892
  N   1.35898241434283     -0.69608674512723      1.43073913644163
  H   1.91170552597896     -0.32704953384438      2.19443603116991
  H   2.00098149291888     -1.08223803008974      0.74910355797574
