17
Coordinates from ORCA-job run
  C   -0.27336747350339      0.01689529773693     -0.40179677659189
  C   0.74013821528043      0.22172502881743      0.74737245229580
  F   0.35475226238078      0.51534699998751     -1.55613752984588
  H   0.30285050288277     -0.20429968963206      1.65825228587257
  C   -0.54138827532037     -1.45528536653176     -0.64176441638774
  H   -1.00106564249377     -1.91720289849982      0.23564265266298
  H   -1.22132238768421     -1.56751616376248     -1.48798169637276
  H   0.38127851179672     -1.98442159004866     -0.88230863426315
  C   -1.54853738077092      0.80692852502150     -0.19587957808553
  H   -2.22840881975689      0.63144300653483     -1.03184025760715
  H   -1.33469585799569      1.87497292398365     -0.14392780341908
  H   -2.04868030730700      0.50284313932323      0.72733215126152
  C   0.92746612500046      1.66204173128285      0.99055426868262
  N   1.06106537617594      2.81377710845175      1.17139159265653
  N   2.04926025374916     -0.38185621619068      0.55152525299441
  H   2.38962422297754     -0.14939181567312     -0.37404204411615
  H   1.99203067458844     -1.38800002080111      0.63360808026292
