17
Coordinates from ORCA-job run
  C   -0.65391302783883     -0.16797060514111      0.09830905328374
  C   0.67999747186246      0.11066497714238      0.81611205364964
  F   -1.61867088134308     -0.18891400423434      1.11668432520713
  H   0.74390817123769     -0.61592481417193      1.64038376449682
  C   -1.02564978143959      0.91994186547970     -0.88254062828831
  H   -0.22516333359853      1.05436642610852     -1.61052833862567
  H   -1.94685529622882      0.65066095502652     -1.40309240282666
  H   -1.19065738603241      1.86120148428773     -0.35574407436197
  C   -0.63305919349537     -1.54533618631199     -0.53223534977471
  H   -0.34023704599286     -2.30206128659535      0.20099283118484
  H   0.05267054980898     -1.57361405817363     -1.38032645906907
  H   -1.63525608768616     -1.79008584789914     -0.88893278231403
  C   0.66164954152614      1.44349082955534      1.42739373496795
  N   0.67392824959382      2.51510785317975      1.90593477543883
  N   1.79075666415390      0.02135133261073     -0.13516563229337
  H   2.08353870291548     -0.94476182344262     -0.21516633432245
  H   2.58501268255718      0.55288290257944      0.19892146364731
