17
Coordinates from ORCA-job run
  C   -0.56413443014287     -0.21339463243013      0.05841414359571
  C   0.71186207716184      0.34922480608928      0.71292900713221
  F   -1.14637958991189     -1.00123862930531      1.07329263901527
  H   0.37547955793800      0.98281507544451      1.54916199623122
  C   -1.54876084897999      0.88654170907825     -0.27376914218779
  H   -2.48141198212495      0.44255092451881     -0.62682270755684
  H   -1.15661388981910      1.54067271635160     -1.05484112884382
  H   -1.76796609674013      1.48511140865833      0.61344580879685
  C   -0.26758813611639     -1.12196965653431     -1.11309709890409
  H   0.16880062306371     -0.55419554946245     -1.93748448739909
  H   0.43301548403034     -1.90179427407080     -0.81848055592351
  H   -1.19739737871158     -1.57992787727207     -1.45647762234673
  C   1.41729908001165      1.21322633000138     -0.23895747895786
  N   1.97334605673389      1.91394123772530     -0.99901841424049
  N   1.58267603984384     -0.74602214918076      1.12590146421804
  H   2.39999921345835     -0.37931668408684      1.59876067788454
  H   1.06777422030528     -1.31822475552479      1.78504289948638
