17
Coordinates from ORCA-job run
  C   -0.20586598721148     -0.40901821172123     -0.39695123918947
  C   0.84199937806784      0.00336855301507      0.65430404183431
  F   0.49032873707423     -1.30326832776897     -1.23670836208899
  H   1.10506487639644     -0.91443858630871      1.20409444652486
  C   -1.34668925583664     -1.18078807442575      0.22961992014723
  H   -2.00738507047127     -1.55140736930603     -0.55636042872310
  H   -1.92682415111149     -0.54570023268358      0.90185409976938
  H   -0.96655566000316     -2.03762619559223      0.79073319797075
  C   -0.66786710722001      0.75245872469630     -1.24751795177908
  H   -1.23403646985992      1.46653746273656     -0.64589039912331
  H   0.18812964044947      1.26565920131434     -1.68302972371052
  H   -1.31197710716866      0.37864042277948     -2.04598161746045
  C   0.24096067884088      0.93523166862681      1.61374477412094
  N   -0.24623175237014      1.67195760955443      2.38685157838633
  N   1.98116657212643      0.63598078164993     -0.00174251198859
  H   2.37577696803147     -0.03474833786072     -0.65087095005552
  H   2.69100571026600      0.86716091129429      0.68285112536526
