17
Coordinates from ORCA-job run
  C   -0.31792297346230     -0.03731762812094     -0.42993455334530
  C   0.70734118907277      0.13688021121920      0.70387107333337
  F   0.32409134753692      0.42849348979814     -1.59251154969850
  H   0.26783410639661     -0.28417209542541      1.61484192756299
  C   -0.64621002691979     -1.49972188493724     -0.64570636954449
  H   -1.29178760715441     -1.59719811010145     -1.52077652827228
  H   -1.17302406923097     -1.90498945013069      0.22174517669961
  H   0.26567562943928     -2.07295759151126     -0.80165646608897
  C   -1.55220963396011      0.81460190523891     -0.22353267296067
  H   -2.05650573669670      0.54737838171698      0.70847663634237
  H   -2.24611782181123      0.65390782346714     -1.05058482014280
  H   -1.29174245551902      1.87330829762259     -0.19281144615216
  C   0.95716822186736      1.57254216396903      0.95360646674333
  N   1.20852378279455      2.70181707312980      1.15790012510984
  N   1.92026815525700     -0.60686201352535      0.39291382494908
  H   2.58925423726517     -0.51501936055438      1.14765976402927
  H   2.33636365512486     -0.21169121185506     -0.44250058856469
