17
Coordinates from ORCA-job run
  C   -0.65652834425385     -0.15892300314667      0.09834446522154
  C   0.67637985487312      0.11903312410770      0.81856317507281
  F   -1.62711033234204     -0.14911807560690      1.11150872089601
  H   0.72682728102309     -0.59134429471666      1.65761405790674
  C   -1.01116866723554      0.91324300330667     -0.90580852505555
  H   -1.16384993212496      1.86822075525438     -0.40017070788405
  H   -0.20748238343592      1.02072194660399     -1.63496319598761
  H   -1.93503298920375      0.64543260104177     -1.42240716486460
  C   -0.64747180184129     -1.54854623436393     -0.50475059879159
  H   -1.64875340802828     -1.78762788419352     -0.86788463386880
  H   0.04689071245378     -1.60257438369658     -1.34457975269391
  H   -0.37249387392535     -2.29422545740681      0.24655883608694
  C   0.67068625151074      1.46466539944951      1.40045492663073
  N   0.69343681404312      2.54726029802971      1.85323188301139
  N   1.79171513994189     -0.00267974255444     -0.12392488051796
  H   2.07591486584845     -0.97286758983205     -0.18176500639940
  H   2.58904081269678      0.52932953772382      0.20197840123731
