17
Coordinates from ORCA-job run
  C   -0.27581950532863      0.01372875802074     -0.40027409170569
  C   0.74518439766826      0.22916005737264      0.74033220781760
  F   0.34771292205613      0.49393441571771     -1.56466389107674
  H   0.31003993835370     -0.18045091363322      1.65968537927608
  C   -0.55158651268623     -1.46040955731002     -0.61897122736793
  H   -1.24002522926151     -1.58108499428352     -1.45715528260318
  H   0.36696990423346     -1.99563323667012     -0.86175382056292
  H   -1.00425544834024     -1.90959597414907      0.26866534702351
  C   -1.54635373571924      0.81191243273655     -0.19741900460888
  H   -1.32770022240738      1.87944131488770     -0.15673208418057
  H   -2.22980534856414      0.63128440903058     -1.02931983963970
  H   -2.04460009366632      0.51897429389967      0.73033869935572
  C   0.94380338162620      1.67171063699859      0.96002910583038
  N   1.08745473710811      2.82540192839636      1.11999798912135
  N   2.04935643679052     -0.38610027764792      0.54662564519613
  H   2.38604462304368     -0.16975545772129     -0.38418636484749
  H   1.98557975509362     -1.39051783564538      0.64380123297232
