17
Coordinates from ORCA-job run
  C   -0.55057667242764     -0.19253362525727      0.06935612949559
  C   0.67200227061193      0.35699175360894      0.84169004197211
  F   -1.17659035607009     -1.05206473357143      0.99332501085349
  H   0.26642887004400      0.91112326114059      1.69682885314287
  C   -1.53663388957674      0.90562524797564     -0.26550970867272
  H   -2.44669069129477      0.46596101152764     -0.67846558248368
  H   -1.80458077788697      1.46410933229704      0.63465242447942
  H   -1.11897527987272      1.59823000992707     -0.99880415080710
  C   -0.16732774750714     -1.02663662954865     -1.13287317266596
  H   0.36173431898891     -0.42390061425413     -1.87417058774994
  H   0.46600891535699     -1.86382262633043     -0.83551216911839
  H   -1.06770953125018     -1.43645152118330     -1.59416650623903
  C   1.39628624632482      1.30845592253267     -0.00701555450033
  N   1.95524222714821      2.04495174483222     -0.73011498348027
  N   1.59639555055416     -0.63331180926438      1.37121143245885
  H   2.08990917635369     -1.10245587194695      0.62213233771604
  H   1.06607737050355     -1.32427085248528      1.88843618559905
