17
Coordinates from ORCA-job run
  C   -0.16211603541568     -0.43864464086334     -0.35964762363092
  C   0.84454365916726     -0.05708304137097      0.75062333418149
  F   0.54638120467964     -1.35511973429429     -1.16119017593704
  H   1.06154441184002     -0.98341284015482      1.29632710472671
  C   -1.36249643978025     -1.16693175942839      0.20523510874685
  H   -1.96770443099164     -0.50402467315122      0.82663188881388
  H   -1.98157854485071     -1.54106308195385     -0.61254295290862
  H   -1.04060974513693     -2.01930124517937      0.80824560177785
  C   -0.54336188015943      0.72961934015334     -1.24157860925083
  H   0.34156972529200      1.16898328904516     -1.70443007545739
  H   -1.20144073398453      0.38378203453346     -2.04080951457325
  H   -1.06517872959007      1.49844556018062     -0.66764456992788
  C   0.20941609369039      0.87572358155635      1.68720002410776
  N   -0.29536282179129      1.64847596195940      2.41235097393329
  N   2.11787250456644      0.48747053695933      0.30555987858773
  H   2.50408511517927     -0.13152945903779     -0.39741687811668
  H   1.99343664728551      1.40361017104638     -0.10691351507295
