19
Coordinates from ORCA-job run
  C   -0.68996556066030      0.37374893003064     -0.09535685701789
  C   0.77799093497594      0.07607193158462     -0.43317338973641
  F   -0.80925923733114      1.77928939478811     -0.04955431653754
  H   0.92459681450292      0.43942855662590     -1.45758048787903
  C   -1.61436789758306     -0.10878453198583     -1.19377540955875
  H   -2.64942396029910      0.14155745103512     -0.95024090015149
  H   -1.51741037672451     -1.18657505043872     -1.31915203115241
  H   -1.35543521091156      0.38193661721472     -2.13521241801531
  C   -1.10975517992250     -0.14771655516116      1.26502862739316
  H   -1.05838503456042     -1.23770128769022      1.29232216225538
  H   -2.14085345941519      0.15189947207046      1.46379401288168
  H   -0.48356938209006      0.26505966188625      2.05794699253298
  N   0.96158086067198     -1.37889674520839     -0.46168281427938
  H   1.76042840309952     -1.60947983128996     -1.03984356947012
  H   1.17492545169592     -1.70804681647887      0.47379861305258
  C   1.76406160412743      0.80894864772500      0.47385106548725
  H   1.56838204106111      1.88169976137291      0.49320065299770
  H   2.78398100142037      0.64836043542874      0.11399218929745
  H   1.71147818794265      0.43019995849068      1.49863787790017
