19
Coordinates from ORCA-job run
  C   -0.68801813893202     -0.29480057423236     -0.25662374342611
  C   0.83175489323661     -0.17786549873497     -0.39899778719626
  F   -1.03155256468115     -1.45727610287743     -0.99439794563996
  H   1.01274797022606     -0.05420714629137     -1.48046954213083
  C   -1.15087759519690     -0.53399429341010      1.16531614510088
  H   -1.01593313318956      0.36094919825810      1.77601531822959
  H   -0.58533275036474     -1.35145093107422      1.61049924109158
  H   -2.21313811997542     -0.78801168486012      1.15879556147605
  C   -1.42525616330572      0.85172090641078     -0.91933760654349
  H   -2.48963581087316      0.61243914206029     -0.96659393200749
  H   -1.06273944652778      1.00484589564715     -1.93868024708990
  H   -1.30781357207008      1.78028040314382     -0.35841744406755
  N   1.44546879326425     -1.39657714315148      0.12661572848083
  H   1.09534372725022     -2.18923180762782     -0.39871932467613
  H   2.44805527442751     -1.35563115535748     -0.01575543075287
  C   1.41172151971199      1.02307652630134      0.33332881991879
  H   1.25391933253753      0.92627069797340      1.40886421061499
  H   2.49054790834377      1.07700227483351      0.16080999966198
  H   0.97973787611857      1.96346129298897     -0.01325202104412
