19
Coordinates from ORCA-job run
  C   -0.74048621691266     -0.31395633234407     -0.28730161634903
  C   0.78187483295464     -0.26298525160797     -0.47309299105386
  F   -1.19711800284704     -1.35177522029966     -1.11791793677926
  H   0.92899935488737     -0.29122783011957     -1.55927071043752
  C   -1.15450381838366     -0.67941093804406      1.12379505276704
  H   -2.24383569561709     -0.72629308768542      1.18604291273540
  H   -0.80260055792011      0.05721517995918      1.85071036502793
  H   -0.75120861550106     -1.66042169179407      1.37389230917815
  C   -1.42808175437815      0.94703986470330     -0.77869988684316
  H   -1.07319877163926      1.21629289637207     -1.77712062472889
  H   -1.26183083515480      1.78931952655565     -0.10509034286316
  H   -2.50238384720633      0.76139766224939     -0.83880588066613
  N   1.38409974249493     -1.48115737383449      0.07321139076233
  H   2.22752284600424     -1.70670845882834     -0.43848640742184
  H   1.65288443241107     -1.32992994201005      1.03919208385042
  C   1.41360123503244      1.01793366495627      0.07421084164847
  H   2.49611633495701      0.97687665977250     -0.07024805148787
  H   1.04455941668006      1.91699468879945     -0.42298338415818
  H   1.22658992013840      1.11979598319990      1.14796287681916
