19
Coordinates from ORCA-job run
  C   -0.66678448747019      0.04862824277082      0.23679184029021
  C   0.79847442598381     -0.09093867744698     -0.21097157776340
  F   -0.67567064431954      0.57510999841860      1.53925866051327
  H   0.77164973038701     -0.19909037630491     -1.30874035948626
  C   -1.43489617185397      1.02707723744586     -0.63514735053327
  H   -0.95581887153357      2.00665787896467     -0.65374825073594
  H   -2.44223613135069      1.15392275930603     -0.23329540663972
  H   -1.51550796913738      0.65667691946803     -1.65981983777075
  C   -1.37094903696498     -1.29248067547308      0.30915484572356
  H   -1.34932403703827     -1.79899584655579     -0.66055186208137
  H   -2.41386079542064     -1.14926629959726      0.59923700523539
  H   -0.88321568221640     -1.91791616604377      1.05588767419105
  N   1.42069770103288     -1.24639922763539      0.44163174285365
  H   1.17181323963490     -2.10201567067486     -0.03990652749447
  H   2.42857504885251     -1.15896289883623      0.38925778112459
  C   1.61854430564709      1.14381911079464      0.13937235735622
  H   2.62051533382704      1.06246939315213     -0.29177399339827
  H   1.17003768678297      2.06263270414578     -0.23801420839676
  H   1.70795635515742      1.21907159410170      1.22337746701228
