15

C	0.0	0.0	0.0
C	-0.552288	-0.012382	-1.440487
Cl	1.781069	0.0	0.0
H	-1.657056	-0.22142	-1.224267
C	-0.481589	1.197806	0.695553
N	-0.735248	2.222612	1.213998
C	-0.444258	-1.208601	0.705818
N	-0.665902	-2.213764	1.271219
N	0.178013	-1.006446	-2.271899
O	0.053726	-2.177854	-1.923689
O	0.847582	-0.60608	-3.222057
N	-0.438988	1.293572	-2.136432
O	-1.185801	1.423786	-3.10233
O	0.381636	2.119003	-1.742582
F	-2.512118	0.0	0.0
