15

C	0.0	0.0	0.0
C	-0.500523	-0.021569	-1.495876
Cl	1.780691	0.0	0.0
H	-1.549306	-0.285287	-1.580368
C	-0.484396	1.188512	0.727075
N	-0.884931	2.131289	1.309343
C	-0.435658	-1.213172	0.710631
N	-0.801218	-2.165171	1.2982
N	0.187669	-1.049571	-2.300488
O	-0.153468	-2.194796	-2.013941
O	0.954465	-0.700629	-3.189872
N	-0.409364	1.30756	-2.156092
O	0.399971	2.130392	-1.746554
O	-1.168498	1.444497	-3.115188
F	-1.898429	0.0	0.0
