15

C	0.0	0.0	0.0
C	-0.470738	-0.024092	-1.491054
Cl	1.78149	0.0	0.0
H	-1.51543	-0.315774	-1.535598
C	-0.464733	1.175191	0.736309
N	-0.756447	2.17204	1.291501
C	-0.411938	-1.213327	0.711595
N	-0.731194	-2.199225	1.266683
N	0.297037	-1.017493	-2.310221
O	0.052549	-2.186671	-2.015986
O	1.040247	-0.639777	-3.209778
N	-0.369272	1.302729	-2.160864
O	-1.084956	1.420966	-3.149046
O	0.450608	2.121507	-1.765259
F	-2.337224	0.0	0.0
