15

C	0.0	0.0	0.0
C	-0.257028	-0.005603	-1.530264
Cl	1.79087	0.0	0.0
H	0.325633	0.808763	-1.952688
C	-0.431401	1.266883	0.592923
N	-0.647044	2.232511	1.228076
C	-0.447011	-1.145619	0.786223
N	-0.712127	-2.056418	1.482465
N	-1.642504	0.187867	-2.10858
O	-1.953771	1.356402	-2.259536
O	-2.231877	-0.795066	-2.52942
N	0.273388	-1.238736	-2.205221
O	0.607687	-1.071903	-3.374115
O	0.294746	-2.292274	-1.590034
F	-2.23182	0.0	0.0
