15

C	0.0	0.0	0.0
C	-0.336918	0.046418	-1.52111
Cl	1.788691	0.0	0.0
H	0.175131	-0.793439	-1.994422
C	-0.408906	1.148184	0.820547
N	-0.729296	2.037447	1.518021
C	-0.457343	-1.266522	0.575044
N	-0.567638	-2.325132	1.075288
N	0.174908	1.271752	-2.221554
O	0.389569	2.289988	-1.569722
O	0.317979	1.134595	-3.448184
N	-1.79531	-0.070696	-2.06056
O	-2.353085	0.964715	-2.398274
O	-2.115492	-1.213894	-2.347687
F	-2.31096	0.0	0.0
