16

C	-0.591489	-0.004443	-1.408724
C	0.0	0.0	0.0
Br	0.007752	1.588494	-2.358948
H	1.09066	0.0	0.0
H	-0.162901	-0.838339	-1.961591
C	-2.108722	-0.045162	-1.408466
H	-2.496198	-0.042118	-2.428514
H	-2.463257	-0.953917	-0.911217
H	-2.505779	0.82716	-0.886569
N	-0.377642	-1.376586	0.570445
O	-0.034876	-2.360627	-0.078119
O	-1.02216	-1.423014	1.620245
N	-0.477161	1.062121	0.819962
H	-1.295034	0.777886	1.342131
H	0.250291	1.317675	1.474409
Cl	3.315359	0.0	0.0
