16

C	-0.518241	-0.003318	-1.448766
C	0.0	0.0	0.0
Br	-0.094348	1.72183	-2.269412
H	1.090681	0.0	0.0
H	0.064237	-0.732575	-2.010947
C	-2.008997	-0.268023	-1.584037
H	-2.245074	-1.270154	-1.21512
H	-2.312483	-0.207778	-2.63054
H	-2.600441	0.458264	-1.019735
N	-0.44315	-1.363293	0.518591
O	0.036641	-2.336793	-0.061538
O	-1.290724	-1.422232	1.405126
N	-0.453693	1.023964	0.871805
H	-1.331856	1.438666	0.598841
H	0.262189	1.731229	0.948843
Cl	3.332822	0.0	0.0
