16

C	-0.539975	-0.001569	-1.426954
C	0.0	0.0	0.0
Br	0.024047	1.666867	-2.295165
H	1.100569	0.0	0.0
H	-0.029021	-0.782278	-1.985979
C	-2.049174	-0.121768	-1.516946
H	-2.360107	-1.088254	-1.111514
H	-2.377887	-0.064478	-2.556478
H	-2.523433	0.673371	-0.942374
N	-0.365384	-1.319547	0.625607
O	-0.323458	-2.317372	-0.093446
O	-0.623187	-1.336566	1.827328
N	-0.588375	1.054547	0.805819
H	-0.158501	1.917097	0.487369
H	-0.272674	0.910752	1.758568
Cl	3.326576	0.0	0.0
