16

C	-0.345393	-0.005503	-1.489532
C	0.0	0.0	0.0
Br	-2.302122	0.074923	-1.782913
H	1.093184	0.0	0.0
H	0.008946	0.958054	-1.860993
C	0.264949	-1.130468	-2.297523
H	-0.179926	-2.09239	-2.048115
H	0.13259	-0.940273	-3.365084
H	1.331582	-1.166868	-2.056837
N	-0.502195	-1.275241	0.626356
O	-1.518742	-1.218676	1.314936
O	0.115841	-2.306918	0.364203
N	-0.448918	1.116392	0.761225
H	-1.347689	1.465033	0.459492
H	0.256509	1.837661	0.747531
Cl	3.315749	0.0	0.0
