16

C	-0.4237	0.004931	-1.460233
C	0.0	0.0	0.0
Br	-2.392929	-0.136287	-1.611732
H	1.093869	0.0	0.0
H	-0.213004	1.020826	-1.794312
C	0.255187	-1.005958	-2.359874
H	1.331741	-0.949399	-2.168315
H	-0.078743	-2.020584	-2.154772
H	0.053069	-0.76551	-3.406202
N	-0.420767	-1.309198	0.663233
O	0.040915	-2.350003	0.205339
O	-1.197813	-1.24918	1.61761
N	-0.469876	1.144775	0.701557
H	0.109633	1.290952	1.517349
H	-1.427879	1.013731	0.99961
Cl	3.309887	0.0	0.0
