16

C	-0.519856	0.092971	-1.431103
C	0.0	0.0	0.0
Br	-0.180418	-1.572254	-2.408207
H	1.090837	0.0	0.0
H	-1.609912	0.180225	-1.414103
C	0.151987	1.241881	-2.16263
H	1.236489	1.117897	-2.119975
H	-0.11118	2.188914	-1.68305
H	-0.172692	1.28212	-3.203855
N	-0.563654	-1.240824	0.63748
O	-1.795907	-1.293291	0.683033
O	0.197898	-2.090158	1.080666
N	-0.429271	1.106216	0.816322
H	-1.294393	1.523596	0.502036
H	0.309761	1.791419	0.87925
Cl	3.373423	0.0	0.0
