14

C	-0.260508	0.114418	0.034863
C	-0.322668	0.164693	-1.501208
F	0.728433	-0.745778	0.431093
H	-0.331734	-0.897212	-1.764987
H	-1.272498	-0.233291	0.340236
N	0.065865	1.457403	0.608768
O	-0.721747	2.362003	0.326783
O	1.065622	1.586284	1.308495
C	0.900974	0.768829	-2.053178
N	1.877436	1.260418	-2.482267
N	-1.528355	0.747372	-2.054295
H	-2.25518	0.175645	-1.567888
H	-1.60471	1.69321	-1.696886
F	-2.656453	-0.915665	-0.363236
