14

C	-0.309917	0.075331	0.06318
C	-0.415989	-0.114553	-1.459459
F	0.545217	-0.856458	0.58827
H	-0.59963	-1.189961	-1.543736
H	-1.353052	-0.052674	0.429194
N	0.241742	1.423618	0.405522
O	-0.399409	2.385045	-0.021902
O	1.267609	1.502207	1.074195
C	0.866861	0.190114	-2.113857
N	1.892538	0.448587	-2.624194
N	-1.534713	0.5549	-2.091547
H	-1.449308	1.546493	-1.897804
H	-2.324388	0.194823	-1.510031
F	-2.850039	-0.608707	-0.137688
