14

C	-0.290497	0.061372	0.08971
C	-0.514415	0.1403	-1.426675
F	0.776622	-0.781443	0.295267
H	0.445864	0.43772	-1.869656
H	-1.205172	-0.329742	0.569287
N	0.122872	1.405477	0.605579
O	-0.739324	2.072796	1.17583
O	1.278048	1.771921	0.384476
C	-1.480097	1.205392	-1.737164
N	-2.213907	2.077139	-2.018355
N	-0.970406	-1.121741	-1.97865
H	-1.716106	-1.420197	-1.292436
H	-0.200535	-1.774924	-1.874959
F	-2.486607	-1.400469	0.103009
