18

C	0.0	0.0	0.0
C	-0.378095	0.037447	-1.492393
F	1.362154	0.0	0.0
H	0.014946	0.947339	-1.946374
C	-0.358749	1.232822	0.871438
H	0.151207	1.133759	1.83162
H	-1.430215	1.289233	1.019383
H	-0.042185	2.135122	0.342053
N	-0.357294	-1.407584	0.747741
O	0.583513	-1.8042	1.457426
O	-1.397605	-2.067684	0.616264
N	-1.874348	0.023911	-1.938649
O	-2.436825	1.123227	-2.019988
O	-2.304561	-1.042784	-2.362853
N	0.279432	-1.081656	-2.234847
O	0.394799	-2.17061	-1.679301
O	0.546049	-0.862206	-3.418983
F	-2.119377	0.0	0.0
