18

C	0.0	0.0	0.0
C	-0.37903	0.035936	-1.49231
F	1.362352	0.0	0.0
H	0.0037	0.950441	-1.945647
C	-0.358272	1.234192	0.869873
H	-1.429098	1.287679	1.023534
H	-0.048761	2.135919	0.335272
H	0.157563	1.141516	1.827588
N	-0.355994	-1.408459	0.751409
O	0.595999	-1.8178	1.438727
O	-1.405384	-2.058308	0.643344
N	-1.876338	0.007783	-1.935781
O	-2.446065	1.102737	-2.028188
O	-2.300472	-1.065876	-2.348614
N	0.28991	-1.076466	-2.233284
O	0.388534	-2.170917	-1.685278
O	0.571529	-0.850173	-3.41309
F	-2.114792	0.0	0.0
