18

C	0.0	0.0	0.0
C	-0.356634	0.059934	-1.47271
F	1.359698	0.0	0.0
H	0.03583	1.005487	-1.840898
C	-0.410932	1.150429	0.88718
H	-1.495849	1.182004	0.963277
H	-0.002212	2.065518	0.441929
H	0.08017	0.994679	1.851339
N	-0.190075	-1.440656	0.774915
O	0.877979	-1.963457	1.069166
O	-1.279259	-1.87013	1.089635
N	-1.753416	-0.019569	-2.044843
O	-2.171193	-1.128113	-2.338903
O	-2.192409	1.058327	-2.418482
N	0.431911	-0.981667	-2.223512
O	0.465826	-2.119695	-1.774451
O	0.96528	-0.602156	-3.266942
F	-2.4976	0.0	0.0
