18

C	0.0	0.0	0.0
C	-0.445546	-0.101407	-1.464901
F	1.36627	0.0	0.0
H	-0.587161	-1.136909	-1.744524
C	-0.362034	1.246757	0.773993
H	-0.056749	2.099146	0.167804
H	-1.430041	1.254844	0.95124
H	0.22204	1.232294	1.695349
N	-0.39382	-1.270804	0.733178
O	-0.503448	-1.189771	1.948934
O	-0.424203	-2.315983	0.089456
N	0.667396	0.426085	-2.349531
O	1.097205	-0.339553	-3.213686
O	1.042494	1.580796	-2.170661
N	-1.655196	0.637736	-1.967488
O	-2.364288	-0.021766	-2.722546
O	-1.717238	1.845588	-1.794275
F	-2.431653	0.0	0.0
