19

C	0.0	0.0	0.0
C	-0.501846	0.254132	-1.429491
F	1.357664	0.0	0.0
H	-1.587997	0.348593	-1.274305
N	-0.298778	1.257538	0.888892
O	-1.06809	1.163443	1.829834
O	0.333798	2.274895	0.594414
N	-0.578106	-1.081307	0.686034
H	-1.615373	-0.841005	0.577888
H	-0.384946	-1.919195	0.149957
C	-0.223243	-0.999514	-2.26374
H	-0.803372	-1.854108	-1.908987
H	0.842002	-1.261644	-2.25574
H	-0.516872	-0.824419	-3.302782
C	0.092511	1.475844	-2.126383
H	1.186635	1.451982	-2.121522
H	-0.222613	2.406694	-1.658242
H	-0.244362	1.490518	-3.168481
F	-2.852355	0.0	0.0
