19

C	0.0	0.0	0.0
C	-0.19022	-0.201412	-1.551328
F	1.395891	0.0	0.0
H	0.3473	-1.158805	-1.651606
N	-0.349328	1.413334	0.463859
O	-0.03921	1.690916	1.618469
O	-0.853489	2.193398	-0.337725
N	-0.629442	-0.888827	0.863605
H	-0.477374	-1.822778	0.494562
H	-1.678399	-0.623334	0.670988
C	0.581836	0.814042	-2.408228
H	-0.019485	1.708828	-2.564727
H	1.536142	1.102047	-1.96955
H	0.785278	0.36998	-3.388888
C	-1.567143	-0.409805	-2.165666
H	-2.143743	0.510889	-2.139564
H	-2.164008	-1.129929	-1.618829
H	-1.414209	-0.731548	-3.205515
F	-2.861626	0.0	0.0
