19

C	0.0	0.0	0.0
C	-0.201637	0.05548	-1.571653
F	1.360663	0.0	0.0
H	0.215698	-0.936434	-1.816144
N	-0.388806	1.308406	0.697307
O	-0.533377	2.308158	-0.002878
O	-0.435559	1.299041	1.921609
N	-0.618787	-1.037954	0.696461
H	-1.65792	-0.753148	0.581939
H	-0.47792	-1.884011	0.15332
C	0.69712	1.074936	-2.295052
H	1.701584	1.137638	-1.878378
H	0.787129	0.77549	-3.345341
H	0.244563	2.065396	-2.2655
C	-1.585302	0.120666	-2.199258
H	-1.466891	-0.04885	-3.278921
H	-2.026007	1.103593	-2.032971
H	-2.283165	-0.573923	-1.747325
F	-2.872057	0.0	0.0
