19

C	0.0	0.0	0.0
C	-0.472131	0.060381	-1.466876
F	1.371076	0.0	0.0
H	-1.555148	0.21845	-1.353451
N	-0.339961	1.320767	0.750353
O	0.014785	2.357319	0.190547
O	-0.836038	1.273152	1.864754
N	-0.550369	-1.027298	0.785188
H	-1.591161	-0.828239	0.63246
H	-0.294986	-1.919806	0.367313
C	-0.23448	-1.32733	-2.074253
H	0.81663	-1.631542	-1.979935
H	-0.484744	-1.318931	-3.137811
H	-0.866028	-2.081501	-1.59757
C	0.193939	1.109287	-2.358362
H	1.285188	1.064508	-2.283242
H	-0.079876	0.914944	-3.401128
H	-0.121693	2.118447	-2.106367
F	-2.796334	0.0	0.0
