19

C	0.0	0.0	0.0
C	-0.21192	0.143508	-1.556606
F	1.363256	0.0	0.0
H	0.433697	-0.68472	-1.888492
N	-0.337092	1.291193	0.760046
O	0.200046	1.408436	1.860516
O	-1.085756	2.115964	0.246576
N	-0.658164	-1.033427	0.665855
H	-0.525598	-1.873053	0.10964
H	-1.709161	-0.717328	0.515339
C	0.40873	1.427125	-2.122753
H	1.378313	1.654352	-1.674789
H	0.554068	1.313589	-3.203074
H	-0.26225	2.271986	-1.961359
C	-1.574406	-0.09112	-2.191366
H	-2.288886	0.665434	-1.884422
H	-1.431653	-0.097675	-3.282235
H	-2.012836	-1.035638	-1.879395
F	-2.913525	0.0	0.0
