19

C	0.0	0.0	0.0
C	-0.229478	0.095116	-1.546636
F	1.362164	0.0	0.0
H	0.414235	-0.74345	-1.841277
N	-0.309513	1.32647	0.762139
O	-0.863499	2.261458	0.197953
O	0.027952	1.32259	1.94896
N	-0.63916	-1.068156	0.594533
H	-0.442033	-1.051788	1.590885
H	-1.690461	-0.79261	0.417803
C	0.397012	1.360743	-2.153927
H	0.71867	1.144114	-3.177296
H	1.270208	1.707895	-1.600402
H	-0.332862	2.167474	-2.189203
C	-1.57909	-0.160396	-2.197767
H	-1.990007	-1.124128	-1.906534
H	-1.416279	-0.146707	-3.285
H	-2.313326	0.577169	-1.895065
F	-2.870426	0.0	0.0
