19

C	0.0	0.0	0.0
C	-0.414111	-0.087089	-1.497968
F	1.366658	0.0	0.0
H	0.549006	-0.022655	-2.01664
N	-0.184525	1.50424	0.537856
O	0.364477	2.40311	-0.096585
O	-0.768463	1.664538	1.605731
N	-0.625228	-0.891684	0.837957
H	-0.427611	-0.64648	1.801609
H	-1.662104	-0.684611	0.636082
C	-1.323307	1.022972	-2.03504
H	-1.573439	0.787121	-3.076273
H	-0.83563	1.997502	-2.016985
H	-2.23217	1.015695	-1.427731
C	-1.051124	-1.444896	-1.803505
H	-0.461617	-2.274971	-1.409595
H	-2.041265	-1.444662	-1.347074
H	-1.14422	-1.561491	-2.889078
F	-2.9122	0.0	0.0
