15

C	0.0	0.0	0.0
C	-0.524446	-0.03875	-1.41627
F	1.402475	0.0	0.0
H	-0.189463	0.870792	-1.934712
H	-0.315201	-0.917311	0.508479
H	-1.618274	-0.006961	-1.268221
C	-0.53145	1.185959	0.763996
H	-1.626319	1.054952	0.716395
H	-0.21849	2.119108	0.281572
H	-0.164718	1.183449	1.796072
C	-0.075334	-1.279649	-2.178872
H	1.015686	-1.363459	-2.210469
H	-0.472182	-2.17938	-1.698011
H	-0.445467	-1.270003	-3.209559
F	-2.995974	0.0	0.0
