16

C	0.0	0.0	0.0
C	-0.503755	0.319623	-1.478936
Br	1.936671	0.0	0.0
H	0.260218	-0.193213	-2.075203
N	-0.474044	0.909647	1.137872
O	-0.888273	0.352257	2.145853
O	-0.352895	2.11525	0.971431
C	-0.393	-1.366619	0.329244
N	-0.62696	-2.503973	0.515022
N	-0.376035	1.736605	-1.747953
H	-0.709066	1.848504	-2.699483
H	-1.021692	2.247109	-1.157169
N	-1.76334	-0.235737	-1.85475
H	-2.564697	0.053237	-1.281676
H	-1.745782	-1.248607	-1.849577
Br	-4.484549	0.0	0.0
