18

C	0.0	0.0	0.0
C	-0.468808	0.299825	-1.427133
F	1.394355	0.0	0.0
H	-1.546576	0.47962	-1.351013
C	-0.419385	1.090426	0.967088
H	-1.508385	1.106831	1.030911
H	-0.052363	2.055968	0.620432
H	0.002881	0.869988	1.953739
N	-0.448508	-1.321694	0.371416
H	-0.236115	-1.465255	1.353575
H	-1.468467	-1.306708	0.290138
N	-0.167844	-0.838764	-2.308333
H	-0.031955	-1.654017	-1.71891
H	-0.985922	-1.025864	-2.877
N	0.16629	1.533872	-1.878805
H	-0.292221	1.815268	-2.737927
H	1.117934	1.280843	-2.126654
Br	-3.91748	0.0	0.0
