18

C	0.0	0.0	0.0
C	-0.438447	0.514665	-1.364289
F	1.448369	0.0	0.0
H	-1.532898	0.522916	-1.330052
C	-0.454127	0.87603	1.140176
H	-1.54634	0.911794	1.120469
H	-0.042287	1.878725	1.040268
H	-0.124587	0.438501	2.087967
N	-0.461166	-1.317315	0.157128
H	-0.155646	-1.730013	1.025385
H	-0.229699	-1.878037	-0.649888
N	-0.022715	-0.458805	-2.383674
H	-0.575941	-0.326531	-3.220872
H	0.951772	-0.297767	-2.610749
N	0.047412	1.877552	-1.538098
H	-0.285822	2.244732	-2.420961
H	1.061611	1.859008	-1.558053
Br	-4.25659	0.0	0.0
