18

C	0.0	0.0	0.0
C	-0.279658	0.353028	-1.4945
F	1.40283	0.0	0.0
H	0.283985	1.287193	-1.648905
C	-0.448722	1.069369	0.97262
H	-1.539464	1.090982	1.020594
H	-0.057488	0.843764	1.971119
H	-0.074333	2.051093	0.670381
N	-0.488095	-1.319714	0.287461
H	-0.389968	-1.509662	1.279692
H	-1.490051	-1.315311	0.090779
N	-1.65437	0.541327	-1.875982
H	-1.993516	-0.264944	-2.380599
H	-2.308808	0.707676	-1.118039
N	0.316971	-0.645706	-2.380029
H	0.041339	-1.55267	-2.012545
H	1.320768	-0.598788	-2.254285
Br	-4.360863	0.0	0.0
