18

C	0.0	0.0	0.0
C	-0.297582	0.071736	-1.518035
F	1.410001	0.0	0.0
H	0.229973	-0.812203	-1.911739
C	-0.463693	1.200363	0.793064
H	-0.091443	1.119948	1.819706
H	-0.102688	2.123329	0.340858
H	-1.556646	1.20853	0.815924
N	-0.453038	-1.270116	0.505787
H	-1.466706	-1.281905	0.399553
H	-0.276378	-1.300833	1.505142
N	0.25058	1.329623	-2.026389
H	-0.004075	1.371762	-3.005591
H	1.259772	1.31067	-1.947885
N	-1.659666	-0.010361	-1.97285
H	-2.281506	0.59714	-1.448265
H	-2.031407	-0.939785	-1.830915
Br	-4.331181	0.0	0.0
