18

C	0.0	0.0	0.0
C	-0.328083	0.213892	-1.505742
F	1.38758	0.0	0.0
H	0.302976	1.071235	-1.779138
C	-0.44752	1.170811	0.854201
H	-0.075064	2.113273	0.442387
H	-1.537597	1.197108	0.91012
H	-0.04157	1.053031	1.864171
N	-0.48124	-1.280683	0.454612
H	-0.234485	-1.396568	1.432833
H	-1.500733	-1.254522	0.411787
N	-1.682576	0.562223	-1.880752
H	-1.945978	1.463849	-1.50008
H	-2.373961	-0.080958	-1.502426
N	0.134956	-0.958329	-2.241395
H	-0.048253	-1.777749	-1.672346
H	-0.436326	-1.009891	-3.076791
Br	-4.36654	0.0	0.0
