15

C	-0.251301	-0.039112	-1.493867
C	0.0	0.0	0.0
F	-0.11509	1.213036	-2.021633
H	1.093448	0.0	0.0
H	-0.331638	-0.940943	0.444216
C	0.720642	-0.976993	-2.168823
H	1.705682	-0.706333	-1.765303
H	0.663642	-0.856574	-3.253238
H	0.494461	-2.00815	-1.895315
N	-1.689015	-0.461699	-1.809194
O	-2.019412	-1.571466	-1.394613
O	-2.408979	0.301864	-2.443854
C	-0.627475	1.125227	0.658524
N	-1.134777	2.027399	1.215228
F	2.600923	0.0	0.0
