15

C	-0.333162	0.156635	-1.472461
C	0.0	0.0	0.0
F	-1.600628	0.661206	-1.679682
H	1.090991	0.0	0.0
H	-0.311618	0.930564	0.486745
C	0.711917	1.014888	-2.146477
H	1.69277	0.672563	-1.79516
H	0.61159	0.979544	-3.232912
H	0.56376	2.044072	-1.806432
N	-0.344652	-1.220809	-2.123574
O	0.74897	-1.70638	-2.39264
O	-1.435132	-1.755319	-2.305269
C	-0.633039	-1.121737	0.660379
N	-1.131675	-2.028925	1.217435
F	2.592666	0.0	0.0
