15

C	-0.261459	0.061212	-1.479445
C	0.0	0.0	0.0
F	-1.611311	0.129784	-1.811261
H	1.09321	0.0	0.0
H	-0.40305	-0.915188	0.431184
C	0.513369	1.168139	-2.129681
H	0.123263	2.116613	-1.754602
H	0.423872	1.133287	-3.212291
H	1.547542	1.04568	-1.800672
N	0.153557	-1.295245	-2.068541
O	-0.217417	-2.297099	-1.461778
O	0.750581	-1.303871	-3.142566
C	-0.537598	1.163929	0.670625
N	-0.969273	2.10249	1.231832
F	2.569141	0.0	0.0
