17
Coordinates from ORCA-job run
  C   0.74509916342064      0.58979856638791     -0.49625531976256
  C   -0.61827058088468      0.22124679984652      0.10353781981039
  Br  1.00863234036829      2.51251744366853     -0.60572195558094
  H   -1.35439591468127      0.76596797029930     -0.49702709117555
  C   1.84962832692495      0.01065064557429      0.25313190941016
  N   2.69182761581662     -0.45068578621947      0.93223699452244
  N   0.77802713833274      0.05175138649667     -1.93536951695033
  O   -0.07714486788812      0.49590971340418     -2.68542121849316
  O   1.60723691879174     -0.81359703906059     -2.18643703547309
  C   -0.71670945538840      0.65021903629117      1.56406081341760
  H   -0.54291515290960      1.71920117329506      1.69116331922497
  H   0.00046639279489      0.10374545598394      2.18204115674113
  H   -1.71896957116993      0.42575862009588      1.93561830186396
  C   -0.85728109926011     -1.28334860159670     -0.04396057754122
  H   -0.07530301512852     -1.86082896259443      0.45645954229171
  H   -0.90833504386617     -1.59646334467130     -1.08832043266306
  H   -1.81159319527306     -1.53884307720096      0.42126329035755
