17
Coordinates from ORCA-job run
  C   0.73138972251988      0.61079398902991     -0.49169920628608
  C   -0.62100130882414      0.20800043392970      0.11101090419157
  Br  0.95971806322096      2.53947319683775     -0.57053285930692
  H   -1.37091051698865      0.74873320632662     -0.47591663284999
  C   1.85136550287676      0.03856180798043      0.23974234562307
  N   2.70616862307729     -0.42025394027665      0.90447553658088
  N   0.76316748940279      0.09722281576637     -1.94008730850128
  O   1.60441370430811     -0.75022693762456     -2.21093128329210
  O   -0.10473997780419      0.53910710535581     -2.67660571238630
  C   -0.71736429969948      0.61239989309112      1.57880149920438
  H   -0.56771565764536      1.68313230936959      1.72083419966975
  H   0.01758924773645      0.07372668522096      2.18259669517165
  H   -1.71092659926879      0.35844605451174      1.95464343883154
  C   -0.83405600859976     -1.29817770776010     -0.05793178712889
  H   -0.87937167155887     -1.59785680517504     -1.10655576687426
  H   -0.04248113830630     -1.86915966732287      0.43500669596013
  H   -1.78424517444669     -1.57592243926079      0.40314924139284
