17
Coordinates from ORCA-job run
  C   0.76815735989728      0.44995554701609     -0.52509600251329
  C   -0.22764123448363     -0.26081928889903      0.41250486834074
  Br  0.03281918663219      2.02507941998773     -1.37192432285413
  H   0.36147091406132     -1.08405918489986      0.83581928623450
  C   1.98067295017392      0.83543830527373      0.18385693033470
  N   2.93171794280000      1.15134211313721      0.79903658093464
  N   1.17532684565272     -0.58670270685559     -1.59755567166687
  O   1.88270764920157     -1.48496460253337     -1.15660784578753
  O   0.72328224697472     -0.48654336620039     -2.72441067212906
  C   -1.41303434879226     -0.84548729576550     -0.34845933337948
  H   -1.10875568841804     -1.59398944240924     -1.08271738039247
  H   -2.08229217487098     -1.33562203159283      0.36208544167772
  H   -1.97773827359437     -0.06532904542055     -0.86290812149863
  C   -0.67091574999081      0.65469492631767      1.54923503897718
  H   0.17901332533651      1.09347937359397      2.07672794991475
  H   -1.24756731863404      0.07140535161846      2.27081508056393
  H   -1.30722363194609      1.46112192763151      1.18059817324331
