17
Coordinates from ORCA-job run
  C   0.59389523049289      0.66959355290909     -0.68598437331544
  C   -0.59791221189182      0.30123584281940      0.22578322496385
  Br  0.01312962635339      1.59137222580327     -2.29067417073759
  H   -1.12437886865484      1.25237485895523      0.36754294992553
  C   1.55134483854562      1.53260212790235     -0.00831660702706
  N   2.27597531953888      2.26448827194137      0.55899967636629
  N   1.32023234264791     -0.62915697492621     -1.07833236450508
  O   0.92933361271348     -1.22686388028257     -2.06753735253211
  O   2.18598862024215     -0.99106902555482     -0.28809691804726
  C   -0.12779707579491     -0.20092060189099      1.59228896143145
  H   -1.00487616405783     -0.35956603860510      2.22392690802811
  H   0.40350014251915     -1.15083986433082      1.51055396174731
  H   0.52446265313477      0.51502835808011      2.09469271228570
  C   -1.54859831531596     -0.69940272926157     -0.42675132281568
  H   -2.44459981296023     -0.78260957045227      0.19234204893589
  H   -1.09669587048241     -1.69151901300657     -0.49296482283235
  H   -1.85400406703025     -0.39374754009990     -1.42747251187157
