17
Coordinates from ORCA-job run
  C   0.77415750314423      0.44832488724891     -0.51776365001953
  C   -0.23024706062786     -0.26419117869943      0.40875729713563
  Br  0.06030845551394      2.04749118574433     -1.33673946875113
  H   0.34794045201173     -1.10086915013606      0.82044455264081
  C   1.99330810880410      0.80390348471382      0.19575164414100
  N   2.95022967300674      1.09628586015482      0.81329699384885
  N   1.16529422677738     -0.57583387790320     -1.60897495890319
  O   1.85644410031644     -1.49408103146052     -1.18416222109360
  O   0.71500401334484     -0.44744381429337     -2.73365589486083
  C   -1.42305974227954     -0.82261876759195     -0.36041144499958
  H   -1.12892912441717     -1.56602019255294     -1.10384332727027
  H   -1.97605311587489     -0.02769403952694     -0.86486446296106
  H   -2.09970611924029     -1.31151687345597      0.34393390644505
  C   -0.66252068533170      0.63961812922488      1.55933460353504
  H   -1.24237487166527      0.05164555855128      2.27425398313280
  H   -1.29241928120469      1.45647899872445      1.20353567207719
  H   0.19262346772202      1.06352082125789      2.09010677590281
