17
Coordinates from ORCA-job run
  C   0.65941160872883      0.55612509116582     -0.56866573531489
  C   -0.16411687344462     -0.28260588519919      0.42819972322211
  Br  -0.36449859054446      1.95652952422639     -1.42142509618489
  H   0.57161935952009     -0.98172054404486      0.84504743536412
  C   1.81592719986708      1.16222165728656      0.07683153586804
  N   2.72385285328924      1.65352170986224      0.63992005824387
  N   1.19555385158428     -0.43057329950362     -1.63260189499434
  O   0.69132561258819     -0.44178205032177     -2.74149075321738
  O   2.06011934485672     -1.18383169252116     -1.20053955308639
  C   -1.26257261547928     -1.08146543795227     -0.26572009647204
  H   -0.86517245001089     -1.79003915676496     -0.99502869799034
  H   -1.97116914837084     -0.42348651322842     -0.77274281322398
  H   -1.81049067230578     -1.65496125659043      0.48515405783126
  C   -0.71119653727375      0.58032752206465      1.56095511759803
  H   -1.15021832052050     -0.06886608473270      2.32194046719028
  H   -1.49008525269015      1.25500800796185      1.20148227650781
  H   0.07171063020584      1.17359840829186      2.03868396865873
