17
Coordinates from ORCA-job run
  C   0.77279468078501      0.52370322817501     -0.52905789030903
  C   -0.60397785726287      0.25917865367349      0.09481704838035
  Br  1.13803065096245      2.42172535475248     -0.73434838962806
  H   -1.31431530596055      0.81206226710315     -0.52886914651966
  C   1.85009369573150     -0.07742901733425      0.24225181064729
  N   2.67083397344102     -0.55084268579959      0.93888575148589
  N   0.76552349182451     -0.08541638260827     -1.94012918022660
  O   -0.07363458085865      0.36362286652902     -2.70510810206837
  O   1.54129995654284     -1.00913364507584     -2.15043218113790
  C   -0.66887923503238      0.76563495056420      1.53233545513066
  H   -0.44277613606204      1.82996805743041      1.60382940047953
  H   -1.67755437899767      0.60889045146743      1.92084911361607
  H   0.02644072283003      0.21693359150826      2.17291573787427
  C   -0.92429274198704     -1.23580000670838      0.02506136991588
  H   -1.89110592806613     -1.41390490943744      0.50062869165641
  H   -0.99277440127923     -1.60012967258695     -1.00160855791388
  H   -0.17470660661084     -1.82806310165273      0.55697906861714
