17
Coordinates from ORCA-job run
  C   0.74778395644390      0.46682456376838     -0.53538886349161
  C   -0.21563425200603     -0.26679811628796      0.41779547734566
  Br  -0.04113577027952      2.01842487635612     -1.37589334988243
  H   0.39980949260471     -1.07374217081930      0.83485908779909
  C   1.96118107013460      0.88624757587504      0.15303683597355
  N   2.92113572077976      1.25102202408362      0.72591935185752
  N   1.16772034223309     -0.56248944149273     -1.61085769816774
  O   1.90148459318087     -1.44248457405188     -1.17626909937535
  O   0.69979434729015     -0.47634495140664     -2.73229997025040
  C   -1.39690400178027     -0.88380696296731     -0.32382068947969
  H   -2.04185481711952     -1.39009578315453      0.39774848379154
  H   -1.08447836873965     -1.62517313867637     -1.06184864896956
  H   -1.98993368029129     -0.11957716373411     -0.83014057410249
  C   -0.66575779686029      0.64060792589927      1.55850362317702
  H   -1.33378799346589      1.42471907656605      1.19805659053693
  H   -1.20995386890259      0.04364610899883      2.29390111314467
  H   0.17953102677795      1.10902015104352      2.06769833009330
