10
Coordinates from ORCA-job run
  C   -0.82089080939336     -0.64883335128588     -0.00657277147445
  C   0.29647073940689      0.10165735463491      0.04955557132861
  H   -0.77780695128658     -1.67759454458433      0.33891207617213
  C   -2.04820060773450     -0.12848514451461     -0.49959844018156
  N   -3.07463859059180      0.28344837493898     -0.90477205411385
  N   1.54779672761709     -0.51238020618181      0.57183863610461
  O   2.54339601066346      0.20308442473945      0.54420061480837
  O   1.47705904067966     -1.66368567775982      0.97674774832600
  C   0.40205849757579      1.45934401496957     -0.36117900684387
  N   0.45275594306335      2.58344475504354     -0.70813237412599
