10
Coordinates from ORCA-job run
  C   -0.91243176454850     -0.39017625317958      0.33258546020880
  C   0.31234639659861      0.05658158937071     -0.00679407421445
  H   -1.00992722231081     -1.05354543305646      1.18702340371468
  C   -2.07343469606414     -0.01319774793961     -0.39565375737613
  N   -3.04546341634050      0.28920168178959     -0.98804976377266
  N   1.48534596404640     -0.38318053074680      0.79685398939632
  O   1.26318769877853     -1.09999593871027      1.76186847844241
  O   2.57715091673465      0.01780637918479      0.40836218659461
  C   0.60147100721358      0.92723963570157     -1.09395002469877
  N   0.80175511589217      1.64926661758604     -2.00224589829481
