10
Coordinates from ORCA-job run
  C   -1.04380591361584      0.28723014208111     -0.09397693690179
  C   0.30359940818972      0.35103336045440     -0.09416232744688
  H   -1.58829755886519      1.16858968088893     -0.42335840953589
  C   -1.81802980912124     -0.84676672949857      0.27904101540585
  N   -2.54314741767630     -1.73473675225455      0.54727288300302
  N   1.15652644113634     -0.79735909451494      0.29320806926038
  O   2.26420608990227     -0.83129047710453     -0.23289058822616
  O   0.68201985679328     -1.60097933121042      1.08453492986505
  C   1.01597939334829      1.51183154622922     -0.51162268773027
  N   1.57094950990868      2.49344765492935     -0.84904594769332
