10
Coordinates from ORCA-job run
  C   -0.99399948507141      0.10062435426404     -0.42760350241090
  C   0.32706023075188      0.26784190209332     -0.21303349564405
  H   -1.43367290634444      0.61383659360729     -1.27917635321363
  C   -1.86251558458514     -0.71088031946883      0.35430129593368
  N   -2.65719287902815     -1.36820261836505      0.92245342398705
  N   1.04849996129148     -0.41164561460827      0.88899057892700
  O   0.39966340360617     -0.69749394347952      1.88612609579762
  O   2.23725434190041     -0.63217269506990      0.68223873688847
  C   1.14509856678367      1.07500631780553     -1.05496298440280
  N   1.78980435069554      1.76208602322140     -1.76033379586243
