10
Coordinates from ORCA-job run
  C   -0.90350192210423     -0.46529141415522      0.24856203189468
  C   0.31211257845889      0.05927656046312     -0.00032375436726
  H   -0.98238054936719     -1.30297020935711      0.93527884931983
  C   -2.07877010890553      0.04821626589637     -0.36436153295918
  N   -3.06425334359828      0.45880458768291     -0.86197227212881
  N   1.50033612569112     -0.52916736305894      0.67599672760803
  O   2.57772199664432     -0.00877050885091      0.40750909847164
  O   1.30299196904789     -1.46963858814074      1.43163064337676
  C   0.57706004851636      1.15203706541481     -0.87144965407802
  N   0.75768320561664      2.05850360410570     -1.60087013713766
