10
Coordinates from ORCA-job run
  C   -0.90948421230976     -0.47632839638276      0.19906400166207
  C   0.31372105575607      0.04981708157621     -0.00417616499645
  H   -0.99255970126728     -1.41614093405784      0.73734081854061
  C   -2.08747393994315      0.16309143623736     -0.27421469727894
  N   -3.07526182660725      0.67473622531896     -0.66152473827105
  N   1.50253931713645     -0.67360466549755      0.52399308794976
  O   1.30484280282853     -1.75593682760069      1.05723531528139
  O   2.57992904034081     -0.10706452824037      0.37635795627568
  C   0.58653002663813      1.26598720297896     -0.68922786324534
  N   0.77621743742747      2.27544340566772     -1.26484771591773
