10
Coordinates from ORCA-job run
  C   -0.91534614460114     -0.45557883036358      0.21816478720273
  C   0.31386677154992      0.05360793373580      0.00681678390406
  H   -1.02578790185751     -1.28952494008446      0.90511246517808
  C   -2.06419406854218      0.06619051383860     -0.43622388207379
  N   -3.02872748546950      0.48088580669304     -0.97022609573266
  N   1.47018299586181     -0.53738304865278      0.73380982435102
  O   2.54679239062243      0.02556333943108      0.56824974106129
  O   1.24939560676079     -1.51878304893148      1.42870704561886
  C   0.61999490916708      1.13873786510570     -0.86042141374466
  N   0.83482292650831      2.03428440922809     -1.59398925576493
