10
Coordinates from ORCA-job run
  C   -0.76843179217675     -0.68696499739938     -0.18016828381389
  C   0.28805122150458      0.10747403270377      0.07980204626465
  H   -0.65430662815422     -1.76166507165220     -0.07358565918854
  C   -2.02244883048458     -0.15383057951971     -0.58471559104601
  N   -3.06969042410741      0.27121407791898     -0.91666522915698
  N   1.57291401406573     -0.51970071501626      0.49350049066733
  O   1.57551399994361     -1.73138638293624      0.65523232952718
  O   2.51944472525335      0.24777566481454      0.63125327546135
  C   0.29645519506653      1.52696636899346     -0.01141384069462
  N   0.26249851908917      2.70111760209305     -0.09223953802048
