10
Coordinates from ORCA-job run
  C   -0.90747189385622     -0.49769330528494      0.15086187210525
  C   0.31294398375160      0.05455940255478      0.00900430688392
  H   -0.99332596715530     -1.45691916796843      0.65274471854997
  C   -2.07864673476762      0.14033711974549     -0.34057640600916
  N   -3.06070510031815      0.65237518187329     -0.74162351825982
  N   1.49541113734282     -0.66876783652163      0.55103008050310
  O   1.29563715116675     -1.76424534592842      1.05591425498376
  O   2.57059717518581     -0.08976635390350      0.44003442175180
  C   0.58797722500929      1.29881615366117     -0.62282920238975
  N   0.77658302364102      2.33230415177218     -1.15456052811907
