10
Coordinates from ORCA-job run
  C   -0.80732680550321     -0.66238798078080     -0.04324431119748
  C   0.29961815128657      0.10089144748469      0.03681980037219
  H   -0.72356487874715     -1.72757042213516      0.15116980508247
  C   -2.07520422198949     -0.11228281854341     -0.37549588122273
  N   -3.13468431678988      0.32144770474709     -0.65249627790947
  N   1.59155721556334     -0.54399696570785      0.39680209556192
  O   1.58823417824135     -1.75855645151120      0.53814195418328
  O   2.54803737971915      0.21318303831534      0.52126412127644
  C   0.35316398901324      1.50420630415788     -0.18857052524129
  N   0.36016930920605      2.66506614397342     -0.38539078090533
