10
Coordinates from ORCA-job run
  C   -1.04862698730132      0.23431042425933     -0.16317978802090
  C   0.29458207856605      0.35000714965718     -0.12238695782390
  H   -1.61085993642092      1.05284384523675     -0.60553099767151
  C   -1.79666718300819     -0.88222735858687      0.30437028427760
  N   -2.50556370785178     -1.75972659542433      0.64194080536489
  N   1.17030753306460     -0.71485359056112      0.42137150521387
  O   0.69213040395200     -1.44569153218253      1.27833125321379
  O   2.29860133567126     -0.76328250935072     -0.05723837477640
  C   0.98404606425041      1.48465834606947     -0.63832183232924
  N   1.52205039907789      2.44296182088281     -1.05935589744820
