10
Coordinates from ORCA-job run
  C   -0.90073747291298     -0.45414539268675      0.27477776329611
  C   0.31055049842609      0.06858281777706      0.00273122248085
  H   -0.98054284488177     -1.21718730804056      1.04352016347014
  C   -2.06988620139374     -0.03462418890458     -0.41634784373384
  N   -3.05035042265534      0.29863080129047     -0.97754479296382
  N   1.49190139887115     -0.42657229402908      0.76055941295301
  O   1.28676736323455     -1.25888551672986      1.63217124565292
  O   2.57289018624897      0.05095247619336      0.43287617883026
  C   0.57850340909449      1.07067875275067     -0.97045889203283
  N   0.76190408596857      1.90256985237927     -1.78328445795279
