10
Coordinates from ORCA-job run
  C   -1.05000334428955      0.22413128618688     -0.16666075474686
  C   0.28752518430208      0.36940582688582     -0.07104511654296
  H   -1.63716827642181      1.11135163932780     -0.39003956289594
  C   -1.76561261084180     -0.99105710769201      0.02159248566171
  N   -2.45150254823320     -1.93592987711969      0.17413545696177
  N   1.18959585269929     -0.75620858327149      0.26973600749942
  O   2.22693960251039     -0.44335346428967      0.84471108069581
  O   0.81765807276770     -1.88045201883109     -0.03844561949693
  C   0.93707094775693      1.62579695076937     -0.24153074945031
  N   1.44449711974997      2.67531534803409     -0.40345322768571
