10
Coordinates from ORCA-job run
  C   -0.81100665458502     -0.65582965861294     -0.07773423842931
  C   0.29610160046276      0.09934247710955      0.05930060996857
  H   -0.75889048344673     -1.71166529714370      0.17140382704011
  C   -2.03862921371233     -0.10675407443963     -0.53785886207685
  N   -3.06470221963072      0.32947728364324     -0.91768532659267
  N   1.54720584897854     -0.54275690401858      0.54705137295792
  O   1.49834655378100     -1.73753403539645      0.80150834932754
  O   2.52005943102175      0.19678842429389      0.64904085734447
  C   0.38749614500666      1.49003888683620     -0.22503303972332
  N   0.42501899212410      2.64089289772843     -0.47099354981648
