10
Coordinates from ORCA-job run
  C   -0.80558330945784     -0.64959581176985     -0.15424744734970
  C   0.29403111252759      0.09455257732360      0.07326567959241
  H   -0.74776800238558     -1.72536822445392     -0.01666092994396
  C   -2.03269341495183     -0.06346931340773     -0.56772564643366
  N   -3.05820367046593      0.40193880053385     -0.91276760048088
  N   1.54579121995844     -0.58657377758668      0.50355866129997
  O   2.51121329507843      0.14489899709135      0.69468563767705
  O   1.50444632430682     -1.80211268922889      0.62758045990294
  C   0.37749399369560      1.50810677857997     -0.06208604093516
  N   0.41127245169430      2.67862266291830     -0.18560277332901
