10
Coordinates from ORCA-job run
  C   -1.02831478128527      0.07306120085156     -0.34290560185414
  C   0.26577584469773      0.37536835018146     -0.11218249139691
  H   -1.64166791634152      0.82798295425084     -0.82840561089183
  C   -1.66979846601344     -1.14531887958700      0.01548611090598
  N   -2.29605715231153     -2.10532042921989      0.28498385116344
  N   1.19106715392445     -0.55372937837613      0.57817347097178
  O   0.95340873671952     -1.75009585375373      0.48161364107095
  O   2.10814147104272     -0.02127496182461      1.19468934250323
  C   0.83650896769476      1.62978366768074     -0.47300173217142
  N   1.28093614187259      2.66954332979677     -0.79945098030108
