10
Coordinates from ORCA-job run
  C   -1.03190322224530      0.20101263387710     -0.27466098295981
  C   0.30136201183826      0.34237762901420     -0.12709178504320
  H   -1.55893879298916      0.96595618301510     -0.83940744697845
  C   -1.80918335808407     -0.88046023783075      0.22609381383699
  N   -2.53660270754774     -1.73609356120992      0.57996938845248
  N   1.13495566820614     -0.65482139419863      0.58508000216066
  O   2.30060203922476     -0.72915151494797      0.21055156652216
  O   0.58975186626475     -1.31238988375836      1.46103964131025
  C   1.02279917520483      1.43812084694185     -0.68227949309982
  N   1.58615732012752      2.36444929909739     -1.14029470420126
