10
Coordinates from ORCA-job run
  C   -0.97802906117818      0.00475626719804     -0.47364976608160
  C   0.32513222952714      0.25457869995904     -0.23131368549067
  H   -1.40123472469220      0.39470341515276     -1.39601131539600
  C   -1.84570653158850     -0.74733073822945      0.36649891968066
  N   -2.63777789279066     -1.36575202565512      0.98025308451780
  N   1.02556863891488     -0.25682829187532      0.97047856911236
  O   0.34655944353967     -0.45278976889079      1.96931026309601
  O   2.23039933842837     -0.44451478329446      0.83711517019233
  C   1.14543032627700      0.99239953015988     -1.13250731842687
  N   1.79065823356248      1.62077769547542     -1.89017392120402
