10
Coordinates from ORCA-job run
  C   -0.89262295965541     -0.50329207411874      0.21003160407729
  C   0.31200019232622      0.06181949307314     -0.00038538350766
  H   -0.94769079328760     -1.41682998194339      0.79474407356860
  C   -2.08640838257477      0.06578086222529     -0.31097330756296
  N   -3.08647704281840      0.52320997901699     -0.73279143352607
  N   1.52057483225089     -0.58749765190325      0.57646380086950
  O   2.58651421123203     -0.02571654831373      0.34883908049928
  O   1.34931951916778     -1.61290276045797      1.21987838498943
  C   0.54677130088109      1.25312356756484     -0.74142697006880
  N   0.69901912247815      2.24130511485682     -1.36337984933859
