10
Coordinates from ORCA-job run
  C   -1.01370359490222      0.11930604854884     -0.34604455249093
  C   0.32483281418330      0.24398111101528     -0.22940941985063
  H   -1.49708700941227      0.70301900820978     -1.12577626615774
  C   -1.86234915922432     -0.69767991801711      0.45195658674742
  N   -2.66642349555114     -1.32479661227735      1.04057213919272
  N   1.12573118395024     -0.47843914250030      0.79043254053562
  O   0.53923933448560     -1.30035904647174      1.48016820012356
  O   2.31345771550881     -0.17528206964664      0.84361620182749
  C   1.07870492038605      1.09950176084968     -1.08529221868669
  N   1.65959729057594      1.81174886028956     -1.82022321124081
