10
Coordinates from ORCA-job run
  C   -0.99553691373130      0.06971881332149     -0.43025416848190
  C   0.32342154856332      0.26293579786048     -0.22454523385178
  H   -1.44155867313602      0.53770969755757     -1.30429619961833
  C   -1.85319145947674     -0.71813125328238      0.38719582441627
  N   -2.63999983102013     -1.35902474345575      0.98444735106687
  N   1.05313424377618     -0.35616699231429      0.90715803927725
  O   2.24452925155976     -0.57142075865982      0.71010172576472
  O   0.40808347673680     -0.60239706588900      1.91728721377141
  C   1.13173678592503      1.03917482742994     -1.10400472086111
  N   1.76838157080312      1.69760167743177     -1.84308983148340
