10
Coordinates from ORCA-job run
  C   -0.88404474307859     -0.54800428058798      0.11120865692761
  C   0.31065268035747      0.06698162251218      0.01440377461105
  H   -0.92821969448332     -1.54231928467664      0.54569783367040
  C   -2.08151909067866      0.07155842223999     -0.33885672434421
  N   -3.08379987181049      0.57126461524705     -0.70397080227827
  N   1.52389890572900     -0.63965164570767      0.50770387415176
  O   1.36590581013083     -1.75629318717446      0.97953674307187
  O   2.58010984828244     -0.02739131692285      0.39264204079634
  C   0.52928735359720      1.36382726762907     -0.52752973992044
  N   0.66872880195414      2.44102778744130     -0.98183565668612
