10
Coordinates from ORCA-job run
  C   -0.96584961295159     -0.03191834877614     -0.49701990780861
  C   0.33313667893423      0.23052443538863     -0.24565293583877
  H   -1.36218621858968      0.27194468810192     -1.46274056799630
  C   -1.86094837931513     -0.69743696085566      0.38617519435405
  N   -2.67369842557187     -1.25176794515967      1.03301226683764
  N   0.99753398770893     -0.17124275561579      1.01732386449831
  O   2.20332251263818     -0.38018760637411      0.93373009269314
  O   0.29126581354130     -0.26679285004245      2.01186504218713
  C   1.18324999551049      0.87421492345913     -1.19027261272048
  N   1.85417364809513      1.42166241987414     -1.98742043620610
