10
Coordinates from ORCA-job run
  C   -0.84615451360090     -0.60283271015026      0.12261701094801
  C   0.29927162063027      0.10069468320020      0.03409402888854
  H   -0.86051492126075     -1.50624009031368      0.72524565262965
  C   -2.02852950330745     -0.19517424666556     -0.55287313955920
  N   -3.01795983790918      0.12480570885331     -1.10613556899465
  N   1.49980118366847     -0.38781941804415      0.76614728124088
  O   2.51181894215825      0.29370455549893      0.64352444011351
  O   1.37560695357098     -1.41437701085375      1.41835191601255
  C   0.47790089219798      1.29845687315010     -0.71190217339453
  N   0.58875918385235      2.28878165532486     -1.33906944788475
