10
Coordinates from ORCA-job run
  C   -0.95174003237193     -0.14156069873765     -0.48554679203046
  C   0.28884435779138      0.30609700657216     -0.20050346736090
  H   -1.42625027091081      0.25717657926688     -1.37908247300877
  C   -1.70453175252071     -1.08991914192043      0.26167331145890
  N   -2.42192374556659     -1.86219759955048      0.78619444000713
  N   1.06953708025325     -0.14754391004884      0.97770497953623
  O   0.50880386520917     -0.89993415765448      1.76182806782392
  O   2.21746905015362      0.27949615857324      1.04909929101839
  C   0.95439774259169      1.25718916900915     -1.02839247520436
  N   1.46539370537092      2.04119659449044     -1.74197488224007
