10
Coordinates from ORCA-job run
  C   -0.82790562990537     -0.63677714323014     -0.06385151513898
  C   0.30033806471599      0.09107890572979      0.04556454824421
  H   -0.77984405757397     -1.70691337732937      0.11480373324795
  C   -2.07205514541019     -0.04164892949444     -0.40773493058767
  N   -3.11155144430168      0.43255029012176     -0.69392423229836
  N   1.56766879787985     -0.60039013525642      0.40895220036868
  O   1.51335212609241     -1.80927015100038      0.58215328966130
  O   2.55764906609309      0.11713578530162      0.50160975350736
  C   0.40149162860758      1.49544340274914     -0.15566381502921
  N   0.45085659380230      2.65879135240843     -0.33090903197529
