14

C	-0.164323	-0.106399	-1.526974
C	0.0	0.0	0.0
F	-0.089945	1.201807	-2.075871
H	1.09784	0.0	0.0
H	-1.14932	-0.475088	-1.848787
N	0.88434	-0.942472	-1.97743
H	0.983621	-0.906185	-2.981994
H	1.754844	-0.660131	-1.492209
N	-0.425996	-1.199508	0.719693
H	-1.290791	-1.558361	0.327315
H	0.295916	-1.892876	0.562467
C	-0.631302	1.189291	0.546126
N	-1.17541	2.131891	0.989366
F	2.656726	0.0	0.0
