14

C	-0.113642	0.032864	-1.518822
C	0.0	0.0	0.0
F	-1.41643	0.313695	-1.974128
H	1.096985	0.0	0.0
H	0.079644	-0.99155	-1.876267
N	0.801763	1.017008	-2.005253
H	1.67247	0.878134	-1.469034
H	0.990341	0.869564	-2.989976
N	-0.531355	-1.190271	0.652824
H	-1.342523	-1.53273	0.152256
H	0.190615	-1.897887	0.62801
C	-0.541942	1.213422	0.599454
N	-0.996789	2.168922	1.109856
F	2.641746	0.0	0.0
