14

C	-0.188212	0.089725	-1.506082
C	0.0	0.0	0.0
F	-1.462882	0.573307	-1.872432
H	1.095863	0.0	0.0
H	-0.16999	-0.938208	-1.893306
N	0.824769	0.961374	-2.013043
H	1.684463	0.771956	-1.474423
H	0.993416	0.780073	-2.994265
N	-0.528696	-1.236746	0.568055
H	-1.486282	-1.107195	0.872042
H	0.027289	-1.466097	1.383173
C	-0.482947	1.205759	0.670026
N	-0.887717	2.128199	1.276969
F	2.645614	0.0	0.0
