14

C	-0.347407	-0.200214	-1.461439
C	0.0	0.0	0.0
F	-1.618034	-0.887306	-1.563171
H	1.099877	0.0	0.0
H	0.381518	-0.896912	-1.881997
N	-0.366541	1.001491	-2.2003
H	-0.618249	0.846449	-3.167195
H	-1.007116	1.659796	-1.781202
N	-0.333573	-1.160935	0.827613
H	0.521206	-1.695095	0.926602
H	-1.034895	-1.725668	0.3701
C	-0.609317	1.205089	0.535013
N	-1.088107	2.196224	0.94686
F	2.566854	0.0	0.0
