14

C	-0.513729	0.044488	-1.426676
C	0.0	0.0	0.0
F	0.085384	-1.040241	-2.109551
H	1.099118	0.0	0.0
H	-0.163831	0.942639	-1.941146
N	-1.932022	-0.058552	-1.477292
H	-2.231297	-0.245315	-2.42633
H	-2.179393	-0.845548	-0.886126
N	-0.480203	-1.271657	0.614586
H	0.295655	-1.911961	0.47197
H	-0.53493	-1.132652	1.616831
C	-0.504218	1.143246	0.741161
N	-0.875499	2.067439	1.365879
F	2.588034	0.0	0.0
