14

C	-0.462349	-0.124922	-1.44115
C	0.0	0.0	0.0
F	-0.125325	-1.364851	-1.943533
H	1.094842	0.0	0.0
H	0.101175	0.603401	-2.042964
N	-1.904315	-0.011213	-1.571743
H	-2.14383	-0.036447	-2.556904
H	-2.192814	0.890448	-1.207717
N	-0.446698	-1.117476	0.821152
H	0.25361	-1.260299	1.539107
H	-1.345944	-0.944223	1.250715
C	-0.447413	1.300909	0.502244
N	-0.847249	2.330809	0.909795
F	2.578638	0.0	0.0
