17

C	0.0	0.0	0.0
C	-0.199049	-0.127753	-1.553343
Br	1.95279	0.0	0.0
H	0.339926	-1.018237	-1.857957
N	-0.513803	1.217492	0.525435
H	-0.349164	1.203178	1.529819
H	-1.548792	1.070851	0.392172
N	-0.489803	-1.242313	0.535653
H	-1.527396	-1.088265	0.459012
H	-0.271518	-1.2503	1.52972
N	0.396931	0.992934	-2.355978
O	1.121079	0.632522	-3.288774
O	0.107495	2.149441	-2.084922
N	-1.582464	-0.341412	-2.148634
O	-2.171968	0.619652	-2.616165
O	-1.92501	-1.514869	-2.208785
H	-2.864379	0.0	0.0
