14

C	-0.292926	0.033067	-1.491949
C	0.0	0.0	0.0
Br	-0.31987	-1.857617	-2.235239
H	1.0944	0.0	0.0
H	-0.31581	0.962422	0.412525
N	-1.705643	0.511718	-1.820495
O	-2.536198	0.479367	-0.919509
O	-1.900788	0.899116	-2.967394
N	0.60866	0.889318	-2.106323
H	0.524613	0.908817	-3.112327
H	1.564977	0.722329	-1.786287
C	-0.587835	-1.079484	0.768664
N	-1.038375	-1.94139	1.425491
Cl	3.287796	0.0	0.0
