14

C	-0.280746	-0.027551	-1.494185
C	0.0	0.0	0.0
Br	-0.133879	-1.985893	-2.092838
H	1.093779	0.0	0.0
H	-0.398993	-0.868304	0.517804
N	-1.732414	0.267042	-1.854803
O	-2.581831	-0.016741	-1.019383
O	-1.940139	0.741844	-2.966272
N	0.551357	0.850341	-2.154338
H	0.450384	0.847238	-3.158463
H	1.518176	0.762494	-1.837437
C	-0.490705	1.236427	0.597923
N	-0.895603	2.220407	1.094426
Cl	3.279635	0.0	0.0
