14

C	-0.292704	-0.076545	-1.497691
C	0.0	0.0	0.0
Br	-2.21464	-0.277106	-1.864465
H	1.097147	0.0	0.0
H	-0.396234	0.906173	0.456101
N	0.088222	1.300609	-2.083831
O	0.791255	1.318235	-3.082663
O	-0.358218	2.277451	-1.492316
N	0.418526	-1.075952	-2.209137
H	0.134686	-1.986946	-1.866237
H	1.413194	-0.951665	-2.009135
C	-0.47817	-1.192027	0.67922
N	-0.862962	-2.165303	1.212224
Cl	3.25643	0.0	0.0
