14

C	-0.597428	-0.001917	-1.398231
C	0.0	0.0	0.0
Br	0.139456	1.473779	-2.42935
H	1.089189	0.0	0.0
H	-0.331225	0.922479	0.484523
N	-0.129985	-1.281444	-2.16002
O	-0.860261	-1.642448	-3.080821
O	0.901854	-1.820789	-1.798643
N	-2.009599	0.094594	-1.392128
H	-2.390751	-0.641734	-0.805519
H	-2.361124	-0.024391	-2.334917
C	-0.528747	-1.14402	0.737709
N	-1.011328	-2.071887	1.272687
Cl	3.346658	0.0	0.0
