14

C	-0.293745	0.154487	-1.483725
C	0.0	0.0	0.0
Br	-0.306686	-1.66713	-2.379059
H	1.092633	0.0	0.0
H	-0.316637	0.924557	0.490909
N	-1.709743	0.650172	-1.772584
O	-1.912248	1.112893	-2.889645
O	-2.535303	0.557261	-0.871037
N	0.602049	1.066159	-2.025589
H	1.559456	0.880067	-1.718396
H	0.52005	1.161294	-3.027332
C	-0.587531	-1.139251	0.677374
N	-1.046147	-2.042265	1.269846
Cl	3.286568	0.0	0.0
