14

C	-0.295467	0.079555	-1.489707
C	0.0	0.0	0.0
Br	-0.332989	-1.787148	-2.290917
H	1.094422	0.0	0.0
H	-0.315321	0.949114	0.442679
N	-1.706787	0.574449	-1.800376
O	-1.903698	0.995209	-2.935087
O	-2.534748	0.520737	-0.89773
N	0.609452	0.949396	-2.079411
H	0.525036	1.000263	-3.084068
H	1.564968	0.770562	-1.763778
C	-0.587744	-1.101769	0.736163
N	-1.040287	-1.977056	1.373943
Cl	3.285252	0.0	0.0
