15

C	-0.366727	0.12862	-1.475254
C	0.0	0.0	0.0
Cl	-0.192084	-1.525726	-2.305641
H	1.091645	0.0	0.0
H	-1.42555	0.356063	-1.629693
N	0.488097	1.120675	-2.005107
H	0.414437	1.186511	-3.010693
H	1.454483	0.922886	-1.7239
N	-0.641849	-1.215561	0.580168
O	0.056761	-2.088326	1.082953
O	-1.875966	-1.235892	0.533243
N	-0.424447	1.125913	0.787501
H	-1.207479	1.607924	0.364138
H	0.362946	1.759695	0.850089
H	2.820023	0.0	0.0
