15

C	-0.49	0.03788	-1.437871
C	0.0	0.0	0.0
Cl	0.043626	1.579401	-2.191421
H	1.088792	0.0	0.0
H	0.017432	-0.739435	-2.011303
N	-1.942055	0.003559	-1.507912
H	-2.226711	0.087867	-2.477777
H	-2.210436	-0.921799	-1.187759
N	-0.356875	-1.320939	0.583902
O	-0.214946	-1.472597	1.794081
O	-0.644962	-2.25057	-0.197962
N	-0.459518	1.056666	0.836809
H	-1.233202	1.544042	0.404644
H	0.313326	1.689334	1.002875
H	2.622893	0.0	0.0
