15

C	-0.42713	0.057782	-1.443491
C	0.0	0.0	0.0
Cl	-2.429494	0.179693	-1.433631
H	1.09185	0.0	0.0
H	-0.225726	1.058932	-1.816734
N	0.039065	-0.910274	-2.29482
H	-0.260077	-0.822743	-3.252349
H	-0.007607	-1.843507	-1.914474
N	-0.433745	-1.277132	0.638531
O	-0.929245	-1.268916	1.761245
O	-0.185661	-2.319037	0.009279
N	-0.378528	1.120658	0.777731
H	0.407495	1.748868	0.860816
H	-1.221015	1.575844	0.464572
H	2.591891	0.0	0.0
