15

C	-0.406014	0.103886	-1.454523
C	0.0	0.0	0.0
Cl	0.048359	-1.451568	-2.326961
H	1.097176	0.0	0.0
H	-1.484744	0.17584	-1.595401
N	0.282024	1.239616	-1.967819
H	0.170971	1.308205	-2.971063
H	1.273772	1.138922	-1.739268
N	-0.583922	-1.187704	0.67469
O	-0.0293	-1.550326	1.709057
O	-1.616585	-1.684706	0.221626
N	-0.475287	1.155633	0.756652
H	-0.55873	1.920079	0.095992
H	0.290212	1.407447	1.377232
H	2.787066	0.0	0.0
