15

C	-0.536615	-0.070904	-1.423782
C	0.0	0.0	0.0
Cl	0.08766	1.369704	-2.304601
H	1.091301	0.0	0.0
H	-0.118195	-0.935034	-1.931858
N	-1.977475	-0.084376	-1.528005
H	-2.282647	-0.998431	-1.208612
H	-2.312043	0.612259	-0.865843
N	-0.376365	-1.195885	0.706093
O	-0.492507	-1.1535	1.948164
O	-0.428812	-2.263703	0.057816
N	-0.476602	1.185065	0.687983
H	0.324374	1.809995	0.747184
H	-0.687261	0.900015	1.636678
H	2.489923	0.0	0.0
