15

C	-0.496512	0.036781	-1.438259
C	0.0	0.0	0.0
Cl	0.040188	1.642595	-2.175825
H	1.090509	0.0	0.0
H	0.03741	-0.708792	-2.020902
N	-1.902387	-0.162778	-1.550151
H	-2.189424	-0.151803	-2.520465
H	-2.413916	0.561447	-1.061456
N	-0.403539	-1.350675	0.520511
O	-0.089314	-2.306326	-0.195956
O	-0.943059	-1.457283	1.618893
N	-0.4109	1.046204	0.869611
H	0.388389	1.651079	1.016331
H	-1.192225	1.591909	0.530727
H	2.671118	0.0	0.0
