15

C	-0.430053	0.066976	-1.437903
C	0.0	0.0	0.0
Cl	-2.409144	0.35533	-1.442299
H	1.096929	0.0	0.0
H	-0.136138	1.041568	-1.820012
N	-0.050276	-0.942148	-2.290766
H	-0.256768	-1.859005	-1.924185
H	-0.331281	-0.800013	-3.24853
N	-0.414512	-1.249816	0.684134
O	-0.51205	-1.247976	1.907726
O	-0.517673	-2.281596	-0.002688
N	-0.341301	1.142666	0.772412
H	0.477924	1.730551	0.86738
H	-1.140187	1.644838	0.413019
H	2.54918	0.0	0.0
