15

C	-0.514955	-0.062861	-1.436419
C	0.0	0.0	0.0
Cl	0.164541	-1.46447	-2.324966
H	1.097881	0.0	0.0
H	-1.602492	-0.185586	-1.467739
N	-0.130821	1.130804	-2.171997
H	0.888357	1.115674	-2.21209
H	-0.366072	1.895959	-1.545013
N	-0.483391	-1.081756	0.860368
O	-0.975086	-2.097819	0.34662
O	-0.32317	-0.941365	2.084007
N	-0.294196	1.293173	0.593173
H	0.562696	1.587755	1.059629
H	-1.011638	1.204988	1.304064
H	2.561749	0.0	0.0
