15
Coordinates from ORCA-job run
  C   1.14761041157209     -0.38277272061492      0.39309862281638
  C   -0.32238971445200      0.04497612657919      0.28339453276424
  Cl  1.76024791373086     -1.12682912953098     -1.11923896158797
  H   -0.55446376334894      0.47337788122340      1.26811199811384
  H   1.24816632652350     -1.15246758034407      1.16280842726364
  C   2.00641386901165      0.74332706362385      0.75281005209668
  N   2.67956395939310      1.64985678098361      1.07551643130806
  C   -1.22846201257426     -1.16236746887716      0.06346033505193
  H   -2.27542740382175     -0.85414597126784      0.10826438236632
  H   -1.05176934293686     -1.61338917093698     -0.91482356292524
  H   -1.07086663761942     -1.92847795580972      0.82780201615587
  C   -0.53679921680685      1.12214651806807     -0.77375252975318
  H   -1.57644564951397      1.45672331016115     -0.75430753199817
  H   -0.32585291355749      0.73617513814472     -1.77303872614451
  H   0.09947417440033      1.99286717859769     -0.59910548552789
