15
Coordinates from ORCA-job run
  C   1.10336997163499     -0.09638708821771      0.72133773033873
  C   -0.40059615665862      0.02096443961931      0.44912230047721
  Cl  1.48966935195824     -1.53837359453774      1.71186079706776
  H   -0.88275270638641     -0.00665232491060      1.43341859934982
  H   1.43818856392753      0.76213719869437      1.30885531787000
  C   1.87568543819658     -0.13486326854072     -0.51877996105579
  N   2.49271874003806     -0.13461789928799     -1.51801670817016
  C   -0.92676100823849     -1.13103121387510     -0.39843930756549
  H   -2.00613392228199     -1.02952005321541     -0.53259644615652
  H   -0.73505027025008     -2.09857272024236      0.06750384453521
  H   -0.46344821479161     -1.12700436410141     -1.38901989726286
  C   -0.68563241061413      1.37154328019697     -0.20638878355624
  H   -1.76271944167113      1.50766455751531     -0.32709805089635
  H   -0.30954607386314      2.20259362309953      0.39683236249913
  H   -0.22799186099982      1.43211942780356     -1.19759179747445
