15
Coordinates from ORCA-job run
  C   1.14596882368287     -0.36437689999245      0.34591468041963
  C   -0.18145027202714     -0.12527484293291     -0.38415058258634
  Cl  1.85998777593554     -1.95515197795953     -0.07195013178674
  H   0.02019797824150     -0.22946284890749     -1.45656886759549
  H   0.97207553292164     -0.38457978048574      1.42612137368354
  C   2.12958793699403      0.67517621798567      0.05132360625058
  N   2.89656090639338      1.52994887412562     -0.19464481273867
  C   -0.67737363802574      1.29248778829551     -0.10024285742760
  H   -0.82393410683827      1.44578403438081      0.97383647401553
  H   -1.63997847522286      1.45202755199811     -0.59120601134589
  H   0.01606136524640      2.05306394572175     -0.46340534780365
  C   -1.22417994206866     -1.15707388717314      0.03544708745394
  H   -2.16078240751893     -0.97658146685290     -0.49680036976737
  H   -1.42995340134053     -1.08046396473617      1.10799203226498
  H   -0.90478807637325     -2.17652274346716     -0.18166627303645
