15
Coordinates from ORCA-job run
  C   1.20532240874886     -0.54754961024182     -0.04039045550911
  C   -0.25976355806963     -0.32512638959910     -0.43363131960103
  Cl  2.30475466853630     -0.36580355170654     -1.44349210227534
  H   -0.44858052455974     -1.00994097974285     -1.26874055883720
  H   1.34120810936235     -1.57433639074807      0.30853010058979
  C   1.62104261602756      0.36076217110858      1.02608854550791
  N   1.90762562414185      1.09279489142173      1.89862854098800
  C   -0.52524792925613      1.10479209658002     -0.88901548610902
  H   -0.35194989683990      1.81061682802010     -0.07188763203896
  H   -1.56625005128066      1.20588669262950     -1.20462044561402
  H   0.11021630758179      1.38785591628859     -1.72942358311645
  C   -1.15751309838761     -0.71316328380777      0.74030867530679
  H   -2.20728678557563     -0.63619311317957      0.44818794607389
  H   -0.99852831465771     -0.04850151787266      1.59386769286072
  H   -0.97604957577170     -1.74109375915014      1.06659008177402
