15
Coordinates from ORCA-job run
  C   1.15463748975622     -0.38316562315231      0.37925238573102
  C   -0.31595849715369      0.04751211768360      0.29023778951777
  Cl  1.73675447932941     -1.15301834871862     -1.13218953678565
  H   -0.53020323158194      0.48604525772317      1.27457443398556
  H   1.26751928814603     -1.14103495097498      1.15889584539853
  C   2.02223550199197      0.74661114274036      0.70405303045997
  N   2.68412056775625      1.67442478464062      0.98726586964545
  C   -1.22858360025664     -1.15965308486091      0.09759660965704
  H   -2.27361077535497     -0.84919183171632      0.16586473643078
  H   -1.05409645997578     -1.92254617193437      0.86146835249849
  H   -1.07595902857955     -1.61554879567025     -0.88246430346514
  C   -0.54586436494496      1.11458318016823     -0.77385120461346
  H   0.08911841075866      1.98901937567469     -0.61379847966018
  H   -1.58651113991518      1.44555527772981     -0.74588179389166
  H   -0.34459863997584      0.72040767066725     -1.77202373490853
