17

C	-0.474866	0.065192	-1.444853
C	0.0	0.0	0.0
Cl	0.047465	-1.544711	-2.231077
H	1.092971	0.0	0.0
H	-0.338581	-0.94449	0.440595
N	-1.896652	0.206539	-1.528783
H	-2.343616	-0.555147	-1.029795
H	-2.192664	0.160585	-2.497095
C	0.2254	1.150118	-2.239226
H	1.305546	1.041501	-2.128968
H	-0.041052	1.087835	-3.2982
H	-0.084456	2.126258	-1.858595
C	-0.489246	1.177367	0.842234
H	-0.107658	1.067103	1.860454
H	-1.579045	1.242075	0.876184
H	-0.101763	2.123595	0.458691
Cl	3.607381	0.0	0.0
