17

C	-0.398377	-0.025975	-1.462975
C	0.0	0.0	0.0
Cl	-2.246107	-0.601702	-1.523865
H	1.09579	0.0	0.0
H	-0.32322	-0.942433	0.449585
N	-0.278073	1.231379	-2.08056
H	-0.529493	1.194678	-3.059147
H	-0.820702	1.943577	-1.612755
C	0.369958	-1.080492	-2.228221
H	0.061389	-1.108059	-3.277319
H	0.200923	-2.064396	-1.790703
H	1.432728	-0.834896	-2.147821
C	-0.535391	1.179506	0.796982
H	-0.078683	2.114062	0.462839
H	-1.624883	1.25955	0.725617
H	-0.270892	1.060573	1.849852
Cl	3.585681	0.0	0.0
