17

C	-0.294029	0.000168	-1.490534
C	0.0	0.0	0.0
Cl	-2.102219	0.227093	-1.782644
H	1.098351	0.0	0.0
H	-0.338972	0.958203	0.402995
N	0.37409	1.147226	-2.05467
H	1.322595	1.165504	-1.681554
H	0.430027	1.054933	-3.062575
C	0.082651	-1.315119	-2.157147
H	-0.510038	-2.152364	-1.785142
H	1.142438	-1.497085	-1.952145
H	-0.068705	-1.24361	-3.23813
C	-0.552018	-1.167744	0.797644
H	-0.340124	-1.018421	1.859151
H	-1.634672	-1.266309	0.675128
H	-0.07847	-2.107718	0.507337
Cl	3.503117	0.0	0.0
