17

C	-0.449858	0.067113	-1.45735
C	0.0	0.0	0.0
Cl	-0.229146	-1.579725	-2.189449
H	1.094113	0.0	0.0
H	-0.363329	-0.931207	0.440418
N	-1.882027	0.345531	-1.557565
H	-2.143983	0.343544	-2.540147
H	-2.034271	1.289212	-1.211854
C	0.436525	1.014718	-2.258392
H	1.488985	0.741278	-2.139757
H	0.305679	2.035366	-1.882174
H	0.15653	0.997976	-3.316671
C	-0.482418	1.184558	0.837282
H	-0.008005	1.138654	1.819677
H	-1.566478	1.174672	0.984662
H	-0.191575	2.141782	0.395824
Cl	3.608555	0.0	0.0
