12
Coordinates from ORCA-job run
  C   -0.59797422740469      0.26994460070492      0.28162452690008
  C   0.75036197309401     -0.18279200107276      0.82959457880128
  F   -1.47765013016802      0.32920314131560      1.31073456316372
  H   0.58578770569930     -1.13532042619699      1.34166364222816
  H   1.08010530063296      0.55491011138824      1.56625895532248
  N   -1.09924430918906     -0.81497410070801     -0.68377887616189
  O   -1.52792388239157     -1.82125144996445     -0.14053628697014
  O   -0.97324970583628     -0.59234856881968     -1.88002535014643
  C   -0.54882207973883      1.55342588391075     -0.41704384754157
  N   -0.48851902363117      2.61786377627457     -0.91067413097740
  C   1.74636818011103     -0.32906379100087     -0.22558620389937
  N   2.55076019882232     -0.45059717583132     -1.07123157071891
