12
Coordinates from ORCA-job run
  C   -0.51601296634845      0.25440772324897      0.24050766242895
  C   1.00803756523807      0.27867592994863      0.27542885044051
  F   -1.01542315459516     -0.12619528117605      1.43210400497074
  H   1.31881864327772      1.01664087281016      1.02016575701130
  H   1.38346115157586      0.58790821780154     -0.70213639907866
  N   -0.94998025380838     -0.77946410766207     -0.81505855436212
  O   -1.57339661190349     -1.74836485639138     -0.42135034602724
  O   -0.58796772973444     -0.51039734258467     -1.95205080891887
  C   -1.07013576425403      1.55010058308152     -0.15981620884731
  N   -1.48821093886526      2.60756865037507     -0.45479638974261
  C   1.53522370666489     -1.03645408456839      0.62926572647222
  N   1.95658635275268     -2.09542630488332      0.90773670565307
