12
Coordinates from ORCA-job run
  C   -0.47631507834739      0.36787991519047      0.16493862890297
  C   1.02648811243961      0.15307849055721      0.30595637757310
  F   -1.08959125769812      0.25646480729280      1.35897000886072
  H   1.49496076643562      0.24812019848450     -0.67574307795552
  H   1.42165520962612      0.93466126324661      0.96075421717995
  N   -1.02742393379450     -0.73150389420154     -0.76264337080477
  O   -1.82380594290370     -1.51695223198806     -0.28178161402893
  O   -0.57064344702292     -0.70005521264938     -1.89691036309781
  C   -0.78430743162818      1.65956189584405     -0.45349799116735
  N   -1.00243451208945      2.71262445523165     -0.92634366155903
  C   1.30601662690188     -1.16195722805094      0.87661363466939
  N   1.52640088808103     -2.22192245895736      1.32868721142727
