12
Coordinates from ORCA-job run
  C   -0.47532280102077      0.16388778427432      0.19245948455408
  C   0.87625151975166     -0.53741919130637      0.10431026342756
  F   -0.88458491438697      0.23994223269688      1.47344865701866
  H   1.15875383249959     -0.64536623647833     -0.94510178672881
  H   0.76344100928193     -1.53373048242455      0.54419299819784
  N   -1.47766353590898     -0.71479273625910     -0.57935913572571
  O   -2.35556106754862     -1.25490653504455      0.07023571368310
  O   -1.25429089821677     -0.79884479476979     -1.77911111836740
  C   -0.48095898574244      1.48963611983898     -0.42820863613020
  N   -0.46785449345556      2.56036457039784     -0.91168413886871
  C   1.89207780357441      0.21226940151677      0.83588034184834
  N   2.70671253117252      0.81795986755790      1.42393735709124
