14

C	-0.506553	-0.004184	-1.426409
C	0.0	0.0	0.0
Br	-2.604437	-0.129547	-1.298971
H	1.092051	0.0	0.0
H	-0.366304	0.889363	0.512033
N	-0.091963	1.159826	-2.072534
H	-0.381215	1.221209	-3.038262
H	-0.28919	2.007418	-1.555345
C	-0.166539	-1.168695	-2.240204
N	0.128227	-2.02232	-2.992066
N	-0.460805	-1.157288	0.794185
O	-0.392792	-2.26634	0.269986
O	-0.84238	-0.930991	1.942329
Br	3.417431	0.0	0.0
