14

C	-0.597319	0.03607	-1.396655
C	0.0	0.0	0.0
Br	0.008772	-1.707172	-2.240094
H	1.088335	0.0	0.0
H	-0.369466	-0.877312	0.530483
N	-2.012146	0.14783	-1.333253
H	-2.432191	0.144811	-2.254213
H	-2.405763	-0.599089	-0.773438
C	-0.071756	1.077858	-2.279625
N	0.278148	1.868371	-3.075384
N	-0.476569	1.182217	0.76639
O	-0.273858	2.289144	0.278124
O	-1.0337	0.968957	1.8437
Br	3.429783	0.0	0.0
