14

C	-0.344661	-0.125575	-1.484593
C	0.0	0.0	0.0
Br	-0.315312	1.876244	-2.154329
H	1.088648	0.0	0.0
H	-0.445158	0.872246	0.463974
N	0.5668	-0.938652	-2.126175
H	1.528783	-0.80041	-1.809082
H	0.467322	-0.992711	-3.129344
C	-1.730191	-0.49897	-1.770099
N	-2.840815	-0.811345	-1.995925
N	-0.497112	-1.19112	0.743868
O	-1.363445	-0.987769	1.59872
O	-0.031603	-2.288685	0.455386
Br	3.436398	0.0	0.0
