14

C	-0.415155	-0.145189	-1.459341
C	0.0	0.0	0.0
Br	-2.370477	0.760217	-1.573033
H	1.100926	0.0	0.0
H	-0.365408	0.945084	0.391366
N	0.509258	0.477358	-2.251601
H	0.386087	0.509456	-3.247115
H	1.227173	1.05183	-1.832467
C	-0.736105	-1.480425	-1.958127
N	-0.93142	-2.52106	-2.471242
N	-0.509085	-1.061192	0.887598
O	-1.197616	-0.710451	1.84692
O	-0.178313	-2.217098	0.631521
Br	3.422797	0.0	0.0
