14

C	-0.571506	0.106387	-1.403894
C	0.0	0.0	0.0
Br	-0.08877	-1.580497	-2.293412
H	1.092359	0.0	0.0
H	-0.374523	-0.90321	0.478776
N	-2.02172	0.174479	-1.38038
H	-2.372755	0.125633	-2.331595
H	-2.270169	1.085272	-1.002953
C	0.038775	1.174987	-2.210819
N	0.401581	2.040943	-2.91816
N	-0.438924	1.133551	0.857431
O	-0.824408	2.172822	0.311726
O	-0.360285	0.966278	2.068556
Br	3.414376	0.0	0.0
