14

C	-0.585042	0.012146	-1.423526
C	0.0	0.0	0.0
Br	0.255895	-1.493284	-2.351181
H	1.087608	0.0	0.0
H	-0.398034	-0.862688	0.534564
N	-2.020196	-0.159677	-1.548767
H	-2.265194	-1.065586	-1.162696
H	-2.471416	0.544921	-0.970115
C	-0.208666	1.246467	-2.124108
N	0.045407	2.246624	-2.685522
N	-0.516081	1.200403	0.720673
O	0.234206	2.158346	0.873479
O	-1.700521	1.160535	1.085211
Br	3.527088	0.0	0.0
