17

C	-0.549252	0.027326	-1.413775
C	0.0	0.0	0.0
Br	0.202834	1.423404	-2.523909
H	1.095025	0.0	0.0
H	-1.630404	0.163838	-1.428301
N	-0.336339	-1.294485	-2.10425
O	0.80453	-1.629924	-2.385081
O	-1.356838	-1.968465	-2.276859
C	-0.475796	-1.2752	0.698527
H	-1.567792	-1.372748	0.682359
H	-0.037732	-2.165874	0.243994
H	-0.143442	-1.24999	1.738389
C	-0.47776	1.239555	0.751272
H	-0.10011	2.153855	0.291042
H	-0.0972	1.207275	1.774624
H	-1.573527	1.288613	0.791654
Cl	3.496551	0.0	0.0
