17

C	-0.380349	-0.060831	-1.460881
C	0.0	0.0	0.0
Br	-2.310595	-0.234618	-1.787865
H	1.097438	0.0	0.0
H	0.079709	-0.917251	-1.948817
N	0.080544	1.125114	-2.268029
O	-0.366227	2.231692	-1.983625
O	0.877184	0.880813	-3.170207
C	-0.41152	-1.307298	0.677705
H	0.082621	-1.364792	1.650065
H	-1.49357	-1.367747	0.827635
H	-0.08795	-2.175954	0.097332
C	-0.509993	1.205795	0.775561
H	-1.601832	1.276694	0.740399
H	-0.202384	1.095892	1.818635
H	-0.088823	2.136893	0.400884
Cl	3.39733	0.0	0.0
