15

C	-0.03217	-0.012726	-0.007729
C	-0.429712	-0.082625	-1.497062
F	1.379518	0.03244	0.049388
H	-1.474737	-0.402136	-1.462579
C	-0.522823	1.202159	0.655745
N	-0.495417	2.251665	1.192469
C	-0.441533	-1.228641	0.708677
N	-0.581969	-2.255524	1.261875
C	0.413041	-1.058477	-2.188881
N	1.064489	-1.824739	-2.796178
C	-0.347721	1.291925	-2.159317
H	0.629529	1.752163	-1.996004
H	-0.521035	1.204389	-3.234313
H	-1.125319	1.917849	-1.721612
F	-2.352331	0.211212	0.121242
