15

C	-0.040405	-0.017588	-0.004858
C	-0.434913	-0.272802	-1.474671
F	1.37081	0.039742	0.048757
H	-1.478804	-0.589618	-1.401732
C	-0.537134	1.268083	0.502371
N	-0.514434	2.376339	0.904317
C	-0.447176	-1.137104	0.855768
N	-0.58532	-2.0874	1.532588
C	0.412886	-1.323403	-2.03911
N	1.069269	-2.156154	-2.545111
C	-0.35721	1.009032	-2.302464
H	0.619368	1.487901	-2.200127
H	-1.135573	1.682985	-1.944767
H	-0.532811	0.787897	-3.357757
F	-2.361911	0.211758	0.091331
