15

C	-0.033354	-0.019056	-0.004967
C	-0.427143	-0.056716	-1.496441
F	1.378144	0.017946	0.057461
H	-1.474059	-0.370957	-1.470352
C	-0.520308	1.184534	0.681569
N	-0.489451	2.223133	1.238917
C	-0.45126	-1.247166	0.685334
N	-0.5988	-2.28407	1.217589
C	0.412402	-1.02295	-2.205391
N	1.06311	-1.78005	-2.824851
C	-0.336301	1.330144	-2.131186
H	0.643842	1.780955	-1.959179
H	-1.110119	1.952267	-1.681528
H	-0.510404	1.264624	-3.20764
F	-2.353238	0.213624	0.121502
