15

C	-0.291314	0.082179	-1.50048
C	0.0	0.0	0.0
Br	-0.229865	-1.869986	-2.243699
H	1.095416	0.0	0.0
H	-0.386784	-0.927703	0.419009
C	-1.663483	0.473868	-1.834214
N	-2.765179	0.817951	-2.060764
N	0.644735	0.922185	-2.107473
H	0.59297	0.947683	-3.116569
H	1.590513	0.728705	-1.772435
C	-0.51329	1.225493	0.748501
H	-0.151784	1.190477	1.778979
H	-1.606311	1.273317	0.765774
H	-0.12919	2.138797	0.291241
Cl	3.449895	0.0	0.0
