15

C	-0.542786	-0.079134	-1.419867
C	0.0	0.0	0.0
Br	0.080813	1.43852	-2.509702
H	1.092944	0.0	0.0
H	-0.307836	-0.937841	0.487046
C	-0.051067	-1.28682	-2.105186
N	0.207958	-2.299867	-2.643006
N	-1.996961	-0.025015	-1.420747
H	-2.34815	-0.190845	-2.356672
H	-2.336777	-0.765207	-0.81569
C	-0.515436	1.195681	0.789476
H	-0.043252	1.190908	1.774079
H	-1.599576	1.186659	0.913925
H	-0.233203	2.125213	0.296196
Cl	3.493574	0.0	0.0
