15

C	-0.541049	-0.049344	-1.4196
C	0.0	0.0	0.0
Br	0.157828	1.472804	-2.448024
H	1.092876	0.0	0.0
H	-0.340681	0.949307	0.424481
C	-0.09962	-1.262597	-2.132325
N	0.114735	-2.274102	-2.693107
N	-1.992023	0.073787	-1.432112
H	-2.377911	-0.702207	-0.904139
H	-2.330356	0.000716	-2.38528
C	-0.48179	-1.176339	0.849484
H	-0.213126	-2.131661	0.390147
H	-1.560609	-1.161515	1.040494
H	0.024341	-1.134349	1.816446
Cl	3.494159	0.0	0.0
