15

C	-0.543653	-0.010983	-1.419069
C	0.0	0.0	0.0
Br	0.159375	1.535102	-2.409413
H	1.09291	0.0	0.0
H	-0.339681	0.938961	0.448371
C	-0.106261	-1.207793	-2.159795
N	0.140041	-2.219803	-2.706346
N	-1.993691	0.118883	-1.425168
H	-2.335533	0.081219	-2.378311
H	-2.381955	-0.672696	-0.923441
C	-0.483446	-1.196258	0.821125
H	0.024707	-1.179327	1.786888
H	-0.21776	-2.140408	0.337493
H	-1.56175	-1.182795	1.0136
Cl	3.492078	0.0	0.0
