17

C	0.0	0.0	0.0
C	-0.456174	-0.136034	-1.461857
F	1.42302	0.0	0.0
H	-1.555128	-0.169754	-1.413734
C	-0.485106	1.283064	0.62384
H	-0.130742	1.338471	1.656885
H	-1.58004	1.285704	0.604935
H	-0.086738	2.145295	0.086771
N	-0.46591	-1.120063	0.722383
H	-0.428101	-0.988471	1.721421
H	-0.006444	-1.976115	0.444119
C	0.025518	-1.422212	-1.990451
N	0.409355	-2.462044	-2.376794
N	-0.026171	0.933936	-2.357374
H	0.919881	1.20425	-2.112975
H	-0.634719	1.730629	-2.220502
Br	-3.967659	0.0	0.0
