17

C	0.0	0.0	0.0
C	-0.152879	-0.043831	-1.561765
F	1.413351	0.0	0.0
H	0.498494	0.771891	-1.911334
C	-0.472433	1.295846	0.602005
H	-1.561608	1.350397	0.533597
H	-0.018287	2.141143	0.078998
H	-0.170094	1.321838	1.65103
N	-0.495657	-1.126564	0.693713
H	-0.420835	-1.933056	0.080291
H	-1.49178	-0.964015	0.854641
C	-1.431764	0.207465	-2.236
N	-2.219543	0.438975	-3.077255
N	0.336489	-1.36023	-2.002321
H	0.16784	-1.472586	-2.99426
H	1.335864	-1.385618	-1.839614
Br	-3.866855	0.0	0.0
