17

C	0.0	0.0	0.0
C	-0.380691	0.390155	-1.446426
F	1.421861	0.0	0.0
H	0.416864	-0.041663	-2.066312
C	-0.454279	0.969462	1.06661
H	0.018931	1.943307	0.938225
H	-1.542456	1.064715	1.02354
H	-0.178728	0.572717	2.04773
N	-0.494656	-1.293782	0.266511
H	-0.07477	-1.693367	1.0928
H	-0.451671	-1.913706	-0.528257
C	-0.260531	1.855282	-1.627634
N	-0.160488	3.004845	-1.850726
N	-1.644042	-0.192382	-1.850191
H	-2.383584	-0.0855	-1.147383
H	-1.978581	0.239999	-2.702018
Br	-4.50242	0.0	0.0
