17

C	0.0	0.0	0.0
C	-0.463587	-0.225416	-1.447867
F	1.422638	0.0	0.0
H	-1.561923	-0.265655	-1.388831
C	-0.485773	1.317748	0.546277
H	-1.579613	1.312111	0.52889
H	-0.092524	2.147503	-0.042644
H	-0.13164	1.436433	1.573835
N	-0.463531	-1.075113	0.792839
H	0.002007	-1.941751	0.559684
H	-0.390583	-0.88396	1.78107
C	0.026074	-1.537451	-1.902937
N	0.414823	-2.594788	-2.233805
N	-0.05208	0.793093	-2.407642
H	-0.673885	1.587	-2.321388
H	0.890776	1.093507	-2.187103
Br	-3.973556	0.0	0.0
