17

C	0.0	0.0	0.0
C	-0.486266	0.155708	-1.455746
F	1.389397	0.0	0.0
H	-1.568303	-0.03672	-1.408321
C	-0.439892	1.18044	0.838148
H	-1.524945	1.289869	0.811789
H	-0.118976	0.997422	1.865437
H	0.043736	2.079337	0.456283
N	-0.449807	-1.228139	0.597489
H	-0.291572	-1.999428	-0.043773
H	-1.457978	-1.140753	0.726735
C	0.12852	-0.883749	-2.287139
N	0.627428	-1.694661	-2.975399
N	-0.200541	1.490509	-2.009189
H	-1.072043	2.006907	-2.024627
H	0.12919	1.415475	-2.962789
Br	-3.849623	0.0	0.0
