18

C	0.0	0.0	0.0
C	-0.404536	-0.033145	-1.483272
F	1.378564	0.0	0.0
H	-1.538892	-0.092716	-1.466491
N	-0.397256	1.280829	0.64155
O	0.447425	1.928607	1.34407
O	-1.632194	1.672911	0.377375
N	-0.61159	-0.983655	0.786381
H	-0.265845	-0.896578	1.746943
H	-0.441733	-1.909979	0.402617
N	0.141663	-1.213845	-2.035896
O	0.570468	-1.203866	-3.274701
O	-0.075519	-2.346298	-1.398472
C	0.041648	1.202558	-2.23722
H	1.13108	1.240781	-2.231154
H	-0.283497	1.123837	-3.274763
H	-0.367041	2.120133	-1.810292
H	-1.63108	0.0	0.0
