12

C	0.0	0.0	0.0
C	-0.528736	0.243556	-1.406721
Br	1.949385	0.0	0.0
H	-1.632853	0.233975	-1.226455
H	-0.255992	0.866265	0.617401
H	-0.232455	-0.589202	-2.049721
N	-0.550482	-1.239928	0.458985
H	-1.579604	-1.014735	0.387623
H	-0.320759	-1.349182	1.442115
C	-0.099721	1.502434	-1.992839
N	0.226442	2.519517	-2.482297
F	-2.826403	0.0	0.0
