12

C	0.0	0.0	0.0
C	-0.290654	-0.20679	-1.510411
Br	1.961241	0.0	0.0
H	0.112157	-1.191972	-1.775968
H	-0.310204	0.996717	0.305251
H	0.295867	0.518619	-2.083496
N	-0.538972	-0.9476	0.904173
H	-1.572337	-0.70966	0.768306
H	-0.374523	-1.878144	0.529364
C	-1.658771	-0.140658	-2.054541
N	-2.482775	-0.117592	-2.896099
F	-2.68212	0.0	0.0
