12

C	0.0	0.0	0.0
C	-0.528753	-0.066413	-1.42706
Br	1.95399	0.0	0.0
H	-1.630252	-0.022687	-1.24546
H	-0.256747	0.992298	0.385066
H	-0.198524	0.804316	-2.000182
N	-0.547822	-1.088857	0.746189
H	-1.575277	-0.893807	0.61408
H	-0.323663	-0.956592	1.727998
C	-0.15205	-1.280203	-2.136629
N	0.121107	-2.237775	-2.760061
F	-2.823328	0.0	0.0
