17

C	-0.496132	-0.014886	-1.474648
C	0.0	0.0	0.0
Br	-2.43017	0.283209	-1.559532
H	1.114115	0.0	0.0
N	0.185247	1.044986	-2.299051
O	1.485996	0.897546	-2.316645
O	-0.353454	1.196772	-3.478678
C	-0.187957	-1.359231	-2.177248
H	0.880593	-1.616252	-2.075755
H	-0.442168	-1.316885	-3.250786
H	-0.789261	-2.162418	-1.72631
C	-0.537341	-1.250324	0.759964
N	-1.698668	-1.330951	1.070257
N	-0.374693	1.202852	0.753878
O	-0.069922	1.098543	2.031862
O	0.079061	2.300058	0.175687
Cl	2.585065	0.0	0.0
