17

C	-0.445903	0.002288	-1.456904
C	0.0	0.0	0.0
Br	0.363226	-1.555709	-2.299366
H	1.093706	0.0	0.0
N	-1.969389	-0.153093	-1.557847
O	-2.593034	0.330109	-0.617095
O	-2.44815	-0.671824	-2.556446
C	-0.112617	1.233286	-2.280573
H	0.955393	1.439257	-2.218007
H	-0.661566	2.094661	-1.898842
H	-0.393655	1.048644	-3.319923
C	-0.497497	-1.155038	0.716143
N	-0.86334	-2.120309	1.282105
N	-0.371119	1.258513	0.744465
O	0.159394	2.284065	0.321203
O	-1.046637	1.165545	1.76397
Cl	2.675574	0.0	0.0
