14

C	0.0	0.0	0.0
C	-0.540065	-0.046305	-1.40707
Cl	1.866271	0.0	0.0
H	-1.636737	-0.064529	-1.228943
H	-0.198819	-0.943931	-1.933041
H	-0.230933	0.835579	-1.974048
C	-0.540058	1.194475	0.745137
H	-0.19881	1.19986	1.785496
H	-0.230922	2.127035	0.26606
H	-1.636731	1.0312	0.671652
N	-0.375739	-1.195705	0.689344
H	-0.022649	-2.011533	0.206813
H	-0.022632	-1.18693	1.637143
F	-3.063146	0.0	0.0
