14

C	0.0	0.0	0.0
C	-0.19645	0.003574	-1.57401
Cl	1.795824	0.0	0.0
H	0.364003	-0.872413	-1.915231
H	0.369254	0.878024	-1.910871
C	-0.578821	1.200904	0.600681
N	-0.616221	2.281067	1.090337
C	-0.579201	-1.202207	0.597464
N	-0.617034	-2.283207	1.085221
C	-1.555167	0.009064	-2.256976
H	-1.368053	0.01089	-3.343247
H	-2.146556	-0.868667	-2.00302
H	-2.140836	0.889216	-1.997295
H	-2.026126	0.0	0.0
