14

C	0.0	0.0	0.0
C	-0.292004	0.117878	-1.534074
Cl	1.797646	0.0	0.0
H	-1.306358	0.48554	-1.653446
H	0.410882	0.858116	-1.925516
C	-0.574556	1.134716	0.736802
N	-0.60439	2.127457	1.384381
C	-0.519386	-1.240595	0.580399
N	-0.538786	-2.31194	1.08578
C	-0.137745	-1.217881	-2.246457
H	0.789438	-1.723065	-1.969313
H	-0.971564	-1.873432	-1.986143
H	-0.131084	-1.072946	-3.330153
H	-2.138907	0.0	0.0
