14

C	0.0	0.0	0.0
C	-0.296369	-0.173812	-1.529701
Cl	1.798079	0.0	0.0
H	-1.300704	-0.569619	-1.633755
H	0.421292	-0.910447	-1.90176
C	-0.56938	1.231051	0.544418
N	-0.585116	2.324296	1.004847
C	-0.50389	-1.158997	0.747108
N	-0.538724	-2.179946	1.343552
C	-0.180464	1.140138	-2.286278
H	-0.993485	1.80439	-1.989342
H	0.767755	1.644117	-2.09003
H	-0.258275	0.961603	-3.363477
H	-2.145158	0.0	0.0
