14

C	0.0	0.0	0.0
C	-0.1966	0.084306	-1.571069
Cl	1.796316	0.0	0.0
H	0.363879	0.978175	-1.863324
H	0.368985	-0.769782	-1.95699
C	-0.577697	1.16618	0.665603
N	-0.615435	2.216817	1.216284
C	-0.576287	-1.232767	0.534114
N	-0.613924	-2.338006	0.964493
C	-1.555526	0.115898	-2.253163
H	-2.141054	-0.777321	-2.043102
H	-2.147323	0.978241	-1.95166
H	-1.368567	0.173388	-3.338303
H	-2.026271	0.0	0.0
