14

C	0.0	0.0	0.0
C	-0.185149	-0.099565	-1.580508
Cl	1.794799	0.0	0.0
H	0.354539	0.78023	-1.946417
H	0.399362	-0.970996	-1.8879
C	-0.908955	1.092989	0.451024
N	-0.980469	2.230439	0.825109
C	-0.41859	-1.248126	0.658569
N	-0.552755	-2.261729	1.244451
C	-1.544377	-0.147538	-2.267025
H	-2.134599	0.741195	-2.052975
H	-1.353409	-0.192671	-3.348489
H	-2.123822	-1.02519	-1.970634
H	-1.986885	0.0	0.0
