15

C	-0.642693	0.008517	-1.360399
C	0.0	0.0	0.0
F	-2.017737	-0.176565	-1.20372
H	1.087833	0.0	0.0
H	-0.336172	0.899548	0.51916
N	-0.342975	1.184883	-2.064286
H	-0.875925	1.216402	-2.923668
H	-0.494536	2.013164	-1.506838
N	-0.199688	-1.1182	-2.284466
O	-0.910575	-1.264823	-3.277289
O	0.827999	-1.715293	-2.024795
N	-0.473668	-1.119277	0.851931
O	-0.692856	-2.204847	0.320727
O	-0.585417	-0.880875	2.053508
Cl	3.314538	0.0	0.0
