15

C	-0.649117	0.017011	-1.360465
C	0.0	0.0	0.0
F	-0.166051	-1.103138	-2.036335
H	1.087783	0.0	0.0
H	-0.318303	-0.917621	0.498003
N	-2.049584	0.049874	-1.288154
H	-2.394265	-0.764567	-0.799648
H	-2.451993	0.124579	-2.212829
N	-0.207179	1.164319	-2.26478
O	0.89543	1.645855	-2.071911
O	-0.978094	1.440884	-3.184853
N	-0.495736	1.114453	0.841674
O	-0.739261	0.855896	2.020147
O	-0.604795	2.222164	0.323157
Cl	3.311397	0.0	0.0
