15

C	-0.533985	-0.00021	-1.41718
C	0.0	0.0	0.0
F	-0.117517	-1.151381	-2.044888
H	1.08491	0.0	0.0
H	-0.398701	0.850154	0.548002
N	-1.921977	0.210975	-1.536057
H	-2.227408	-0.031916	-2.470665
H	-2.415274	-0.329014	-0.835978
N	0.112209	1.149136	-2.191544
O	0.370872	2.159778	-1.554292
O	0.218408	0.993795	-3.402268
N	-0.508268	-1.230134	0.672736
O	0.280699	-2.122622	0.949455
O	-1.724233	-1.267145	0.914004
Cl	3.332945	0.0	0.0
