15

C	-0.513515	0.030849	-1.416865
C	0.0	0.0	0.0
F	0.100695	0.938628	-2.194586
H	1.093951	0.0	0.0
H	-0.352455	-0.88418	0.525752
N	-0.387838	-1.241046	-2.021605
H	-0.672335	-1.206506	-2.991986
H	-0.894585	-1.951844	-1.514631
N	-2.018112	0.448233	-1.417953
O	-2.427125	1.16948	-2.316781
O	-2.706983	-0.100519	-0.559279
N	-0.456793	1.16241	0.795939
O	-0.732371	2.200181	0.194986
O	-0.494275	1.016218	2.013873
Cl	3.276216	0.0	0.0
