15

C	-0.381243	0.312436	-1.428251
C	0.0	0.0	0.0
F	-1.694196	0.745827	-1.539536
H	1.09587	0.0	0.0
H	-0.420173	-0.939222	0.336359
N	0.489533	1.186513	-2.043209
H	1.437151	1.100159	-1.684569
H	0.450174	1.128439	-3.050881
N	-0.50002	-1.054642	-2.217332
O	-0.24233	-1.000378	-3.416837
O	-0.90798	-2.046025	-1.623551
N	-0.48789	1.05033	0.925953
O	-0.251445	2.221844	0.654321
O	-1.088065	0.662658	1.930092
Cl	3.270522	0.0	0.0
