15

C	-0.556181	-0.197858	-1.390256
C	0.0	0.0	0.0
F	-0.012431	-1.239076	-2.042094
H	1.089592	0.0	0.0
H	-0.371294	0.935727	0.410146
N	-1.965922	-0.346412	-1.401284
H	-2.415358	0.431418	-0.939003
H	-2.310982	-0.448496	-2.346784
N	-0.148049	1.065815	-2.21072
O	-0.537299	2.133085	-1.737651
O	0.43037	0.911208	-3.275555
N	-0.518455	-1.080591	0.873004
O	-1.319972	-0.753994	1.75222
O	-0.137405	-2.223725	0.655503
Cl	3.28896	0.0	0.0
