15

C	-0.462383	0.16758	-1.428263
C	0.0	0.0	0.0
F	-1.778067	0.537488	-1.489223
H	1.094522	0.0	0.0
H	-0.329064	0.88356	0.544789
N	0.347732	1.159798	-2.015384
H	1.330655	0.984638	-1.812062
H	0.19265	1.231248	-3.012579
N	-0.396662	-1.150669	-2.245617
O	-1.42585	-1.57775	-2.753489
O	0.727847	-1.614097	-2.372593
N	-0.546576	-1.16217	0.730044
O	-0.818621	-2.183776	0.102666
O	-0.671162	-1.027394	1.945243
Cl	3.261582	0.0	0.0
