15

C	-0.370419	0.13242	-1.461389
C	0.0	0.0	0.0
F	-1.660623	0.60702	-1.637061
H	1.094622	0.0	0.0
H	-0.43776	-0.879575	0.454763
N	0.539381	0.878261	-2.179683
H	1.482252	0.810278	-1.801278
H	0.507566	0.678632	-3.169585
N	-0.552655	-1.323554	-2.055306
O	-0.184821	-1.484379	-3.216046
O	-1.117041	-2.164518	-1.36436
N	-0.487139	1.17364	0.765797
O	-1.21951	0.94221	1.729936
O	-0.122324	2.288107	0.407326
Cl	3.277285	0.0	0.0
