17

C	-0.503578	-0.012963	-1.461923
C	0.0	0.0	0.0
Cl	0.208215	1.387068	-2.337921
H	1.095851	0.0	0.0
C	-0.052446	-1.229181	-2.146936
N	0.207599	-2.219379	-2.725133
C	-2.0232	0.077331	-1.580091
H	-2.372571	1.021987	-1.162194
H	-2.483445	-0.753844	-1.03984
H	-2.319228	0.028573	-2.629173
C	-0.48144	-1.215235	0.65422
N	-0.919256	-2.162929	1.194925
C	-0.44702	1.226507	0.800274
H	-1.526234	1.252966	0.970021
H	0.057276	1.198348	1.767811
H	-0.130499	2.136167	0.289428
Cl	3.28841	0.0	0.0
