17

C	-0.361424	-0.089515	-1.493647
C	0.0	0.0	0.0
Cl	-2.153524	-0.305357	-1.710929
H	1.097733	0.0	0.0
C	-0.026726	1.171002	-2.161492
N	0.212263	2.174184	-2.724962
C	0.367483	-1.24931	-2.157967
H	1.439688	-1.117091	-1.984113
H	0.153123	-1.275632	-3.22758
H	0.04312	-2.18704	-1.702938
C	-0.454419	-1.208985	0.680755
N	-0.840311	-2.162123	1.249516
C	-0.509626	1.251704	0.707554
H	-1.600004	1.315808	0.679162
H	-0.079371	2.137962	0.238074
H	-0.180796	1.232077	1.747841
Cl	3.287151	0.0	0.0
