13
Coordinates from ORCA-job run
  C   -0.46544660805899     -0.85707548531640     -0.15211296320105
  C   0.30819961309371      0.25918434245281      0.55394589455074
  Br  -2.28457466766362     -0.37648345385997     -0.51268283949911
  H   1.31244267954175     -0.14160332372498      0.72365076233496
  H   -0.46541629490672     -1.77558255121419      0.43461736395013
  N   0.31103284993659     -1.17615882234934     -1.41963812634151
  O   1.43079145490314     -1.62104278862913     -1.18454921932965
  O   -0.18487569448077     -0.97613036575713     -2.51334598706873
  C   -0.29949654418897      0.53051706995460      1.87048428284276
  N   -0.76444451442088      0.79766897254386      2.91585819198687
  N   0.42725955574114      1.39996446747313     -0.32880462658787
  H   -0.45371891220853      1.89437453023949     -0.40259863986806
  H   1.12924708271214      2.04236740818724      0.01517590623051
