13
Coordinates from ORCA-job run
  C   0.33352048107318     -0.84543250094188     -0.23242219921350
  C   -0.11412848614465      0.40342413637975      0.53164931777004
  Br  0.65828433905920     -2.32264631931969      0.94925141264653
  H   -0.99288843887882      0.12761881346202      1.11902482052273
  H   1.23431256855591     -0.67089898824760     -0.81974392771237
  N   -0.73718155186970     -1.24291775444608     -1.21191676459909
  O   -0.36197210158701     -1.54539141983528     -2.33959847575012
  O   -1.89128262511374     -1.23226827203855     -0.79682515226570
  C   -0.52109315209187      1.42699158538960     -0.45428587974353
  N   -0.77763020302810      2.27424351507629     -1.22742272922604
  N   0.94353890674583      0.83708341446921      1.42152751167225
  H   0.57162742845172      1.43782228246949      2.14514569480076
  H   1.65289283482802      1.35337150758271      0.91561637109771
