13
Coordinates from ORCA-job run
  C   0.35034462501667     -0.80867672203513     -0.22501262971940
  C   -0.11192865189219      0.48885532312385      0.44001048590656
  Br  0.69588686403427     -2.17203709737284      1.09339692021170
  H   -1.03207959957829      0.27229312340443      0.99741166370474
  H   1.25778740699320     -0.65540525220617     -0.80529023565454
  N   -0.70619472757379     -1.31420652564317     -1.16509792369600
  O   -1.86216751201678     -1.30159064440029     -0.75449827492121
  O   -0.31919593566882     -1.69067397646876     -2.26629182713027
  C   -0.44429982337324      1.44422597253795     -0.62444946850101
  N   -0.70132015268096      2.21275084288040     -1.47384139106031
  N   0.99083511628777      1.01817259455049      1.23328733080310
  H   0.82957965116674      1.99499135281764      1.44452665491720
  H   1.05175273928542      0.51130100881159      2.10784869513944
