13
Coordinates from ORCA-job run
  C   -0.29861026649767     -0.85027759702840      0.08529186030703
  C   0.34236351658731      0.48491644280273      0.52013593489368
  Br  -2.20603348467878     -0.71841233754951     -0.06761500591935
  H   1.41622741622432      0.29354357076905      0.59723618329150
  H   -0.07619061286772     -1.65199550121089      0.79404305084365
  N   0.32680444019462     -1.29913454592407     -1.23141637939781
  O   1.51277927787091     -1.00311980439600     -1.36318679265614
  O   -0.34379334772970     -1.95415840766522     -2.01280791491881
  C   -0.14706728610568      0.80122685082612      1.86853787079209
  N   -0.53561048614867      1.03358735614626      2.95122772587289
  N   0.16049649551177      1.61066701822962     -0.36141915224970
  H   -0.81836847639045      1.77834586167387     -0.55632983598779
  H   0.66900281402973      1.47381109332645     -1.22469754487123
