17

C	0.0	0.0	0.0
C	-0.268865	0.054143	-1.547657
F	1.353791	0.0	0.0
H	0.593222	0.631457	-1.897315
N	-0.333356	1.312864	0.689525
O	-0.476667	1.299273	1.910564
O	-0.200523	2.337521	0.012141
C	-0.731508	-1.069158	0.670446
N	-0.733246	-2.12085	1.237024
C	-1.503447	0.701658	-2.168438
H	-2.370435	0.050821	-2.086339
H	-1.744356	1.658221	-1.709502
H	-1.273166	0.873081	-3.234537
N	-0.057624	-1.327179	-2.0016
H	-0.089947	-1.329738	-3.016201
H	-0.84621	-1.881866	-1.676806
H	-2.102635	0.0	0.0
