17

C	0.0	0.0	0.0
C	-0.204473	-0.04657	-1.553896
F	1.362356	0.0	0.0
H	0.483286	0.749135	-1.87409
N	-0.503361	1.254754	0.595721
O	-0.52652	1.319376	1.843657
O	-0.450913	2.267445	-0.146185
C	-0.508701	-1.138359	0.756071
N	-0.581705	-2.135321	1.387111
C	-1.534666	0.238567	-2.217678
H	-1.955843	1.170466	-1.848897
H	-1.344498	0.340596	-3.300735
H	-2.239449	-0.57313	-2.0519
N	0.2534	-1.378553	-1.980555
H	0.25004	-1.398362	-2.993966
H	1.214489	-1.503846	-1.684689
H	-2.030094	0.0	0.0
