17

C	0.0	0.0	0.0
C	-0.362496	-0.054542	-1.518059
F	1.357372	0.0	0.0
H	-1.333855	0.424141	-1.609958
N	-0.44194	1.297479	0.618422
O	-0.414693	2.291564	-0.129108
O	-0.474894	1.357864	1.853442
C	-0.527872	-1.097479	0.804247
N	-0.567868	-2.087772	1.451391
C	-0.451485	-1.49981	-1.975589
H	0.46842	-2.034632	-1.727296
H	-1.301055	-1.994499	-1.503709
H	-0.579118	-1.535491	-3.062984
N	0.693285	0.619778	-2.299364
H	0.741794	1.571991	-1.951407
H	0.331278	0.688881	-3.244094
H	-2.213936	0.0	0.0
