15

C	-0.447064	0.093106	-1.440378
C	0.0	0.0	0.0
Br	0.252485	-1.31696	-2.614435
H	1.09083	0.0	0.0
H	0.024818	0.99714	-1.835924
C	-1.889966	0.201066	-1.619002
N	-3.045784	0.365847	-1.757663
N	-0.515936	-1.174255	0.689021
O	-1.144053	-2.030744	0.04762
O	-0.235457	-1.278998	1.890437
C	-0.346117	1.261129	0.774923
H	0.07452	1.168451	1.77585
H	-1.423909	1.441449	0.841442
H	0.142342	2.110686	0.289738
H	2.548369	0.0	0.0
