15

C	-0.346289	0.029901	-1.461387
C	0.0	0.0	0.0
Br	-2.298122	-0.09929	-1.820101
H	1.095919	0.0	0.0
H	0.07924	-0.847307	-1.947994
C	0.126018	1.24659	-2.1085
N	0.478014	2.227538	-2.652185
N	-0.351781	-1.287235	0.561503
O	-0.589963	-1.35079	1.778035
O	-0.24952	-2.285167	-0.17196
C	-0.471375	1.161391	0.834458
H	0.002606	1.106996	1.814432
H	-1.556895	1.167635	0.963192
H	-0.154497	2.092104	0.35724
H	2.477108	0.0	0.0
