15

C	-0.453008	0.046947	-1.44075
C	0.0	0.0	0.0
Br	0.263954	-1.383986	-2.579002
H	1.090814	0.0	0.0
H	0.001528	0.94716	-1.863791
C	-1.898331	0.125868	-1.614811
N	-3.058208	0.269797	-1.742299
N	-0.508276	-1.156792	0.724209
O	-1.122833	-2.040872	0.107364
O	-0.233977	-1.21948	1.929736
C	-0.349593	1.28155	0.738498
H	0.135058	2.118684	0.228463
H	-1.428082	1.459679	0.80118
H	0.072372	1.21936	1.741263
H	2.54766	0.0	0.0
