15

C	-0.340554	0.025294	-1.463429
C	0.0	0.0	0.0
Br	-2.290242	-0.117407	-1.83174
H	1.095884	0.0	0.0
H	0.09394	-0.849306	-1.946748
C	0.12523	1.244176	-2.110568
N	0.474047	2.225179	-2.655565
N	-0.356186	-1.286956	0.561492
O	-0.24529	-2.286761	-0.168526
O	-0.612244	-1.346961	1.775073
C	-0.480011	1.161873	0.828544
H	-1.566729	1.167485	0.945558
H	-0.158812	2.092457	0.354138
H	-0.017253	1.108464	1.813574
H	2.480323	0.0	0.0
