16

C	0.0	0.0	0.0
C	-0.397446	0.027709	-1.516905
Br	1.898244	0.0	0.0
H	-1.469162	0.246807	-1.567791
N	-0.553089	1.128076	0.691735
O	-0.365209	1.107849	1.934967
O	-0.952608	2.121235	0.033784
N	-0.349677	-1.509344	0.74895
O	-1.527976	-1.814529	0.799947
O	0.575423	-2.186873	1.139355
N	-0.222249	-1.298651	-2.086492
H	-0.820353	-1.405493	-2.895276
H	0.737276	-1.446664	-2.366315
C	0.203842	1.14039	-2.29122
N	0.605408	1.948678	-3.046037
H	-1.665654	0.0	0.0
