16

C	0.0	0.0	0.0
C	-0.491971	-0.010452	-1.465867
Br	1.911779	0.0	0.0
H	0.007344	-0.85253	-1.970281
N	-0.526717	1.2654	0.743724
O	0.238573	2.120851	1.131222
O	-1.75534	1.262683	0.894321
N	-0.562752	-1.168903	0.744139
O	-0.635577	-2.251662	0.083107
O	-0.376136	-1.114678	1.986638
N	-0.230816	1.318258	-2.012877
H	0.728929	1.364386	-2.327797
H	-0.84682	1.503494	-2.793147
C	-1.946737	-0.250953	-1.518169
N	-3.099609	-0.461165	-1.719426
H	-1.558272	0.0	0.0
