13
Coordinates from ORCA-job run
  C   0.94764424677744      0.08721392927680      0.47576267319274
  C   -0.55741415857711      0.16621041099664      0.17060088558414
  F   1.65071380178397      0.62685869966108     -0.58219310753539
  H   -1.11524042082283     -0.20520184282001      1.03111543913712
  H   1.14219678572484      0.70985883122163      1.35510545634502
  C   1.42022201831453     -1.27665357037363      0.73747050940041
  N   1.80704345663798     -2.35872095777646      0.97722014981890
  N   -0.84230491774866     -0.81029106606607     -0.94685229376630
  O   -0.65623523494756     -0.40396438268182     -2.08754985276733
  O   -1.19589144145881     -1.93816815373113     -0.61285519645442
  N   -1.01991861360615      1.45464772487733     -0.22011145059834
  H   -0.38774213307283      1.89611681646334     -0.87354482417384
  H   -1.19307338900480      2.05109356095231      0.57583161181727
