13
Coordinates from ORCA-job run
  C   0.74717627854888     -0.31228891347988      0.90909736761552
  C   -0.50502768399048      0.32635419109453      0.30210151335558
  F   1.26610401675624      0.54346734390724      1.85041235416950
  H   -1.19284045816339      0.55717371434009      1.11797634969070
  H   0.48428585216052     -1.24970453926298      1.40211898554890
  C   1.74540578752736     -0.56045227703630     -0.14096975732724
  N   2.51137940108109     -0.74697026643940     -1.01070037134818
  N   -1.20746349327788     -0.81265119645206     -0.47407503700737
  O   -1.60155860362048     -1.75843219858013      0.20271911337913
  O   -1.30994564124728     -0.69091512735293     -1.68931968043941
  N   -0.21014289226391      1.46813045386304     -0.45997709029982
  H   0.31484914016143      1.24932338167538     -1.29710319502120
  H   -1.04022170367210      1.98596543372340     -0.71028055231610
