13
Coordinates from ORCA-job run
  C   0.87415168427602     -0.68801901063183      0.27432968299471
  C   -0.40253719716064      0.13008132466217      0.16752230768332
  F   0.73430027064338     -1.59341910496934      1.30210474226328
  H   -0.71282536252039      0.44800589406314      1.17117337998005
  H   1.04260334157189     -1.23077402101500     -0.65659085282210
  C   2.00269558455493      0.20812963426548      0.55801401180336
  N   2.87626567634740      0.96249251931574      0.77164333077483
  N   -1.52670837883488     -0.76264246850086     -0.30683378775050
  O   -2.64892248456656     -0.29212755658899     -0.14264127491120
  O   -1.25622991604951     -1.83077080379798     -0.84141549688475
  N   -0.27594943215073      1.16093783117815     -0.83003564767143
  H   -1.15152751950225      1.66641647220928     -0.90102500854998
  H   0.44568373339135      1.82168928981005     -0.56624538690959
