13
Coordinates from ORCA-job run
  C   0.67080586661105     -0.23891471049273      0.93786902686164
  C   -0.54616343530934      0.24644481783182      0.15571158954189
  F   1.11089238372130      0.84267465306881      1.68822332932116
  H   -1.33991714546422      0.48723780216178      0.88028138138037
  H   0.39965539096605     -1.04061183037094      1.62353491741153
  C   1.74761043006095     -0.68326949038281      0.04626287452086
  N   2.62836613324794     -1.04776343875928     -0.63770289189245
  N   -1.11463903592797     -0.90116387274095     -0.64289422938733
  O   -1.75746191306752     -0.60706980311348     -1.64181368868622
  O   -0.94861135880108     -2.03029369988725     -0.18792264626134
  N   -0.16478236166609      1.28838527380720     -0.74429346342672
  H   -0.96617826799936      1.64662718047035     -1.24577630377453
  H   0.28042331362832      2.03771711840748     -0.23047989560886
