13
Coordinates from ORCA-job run
  C   0.68863601939548     -0.25321408014601      0.87342932962994
  C   -0.61546036285255      0.26147434967672      0.23475326467861
  F   1.15808060665295      0.75982280645806      1.68861568978348
  H   -1.31344873951857      0.46207077620604      1.04966703199152
  H   0.49957790751071     -1.13455029354352      1.49040248134042
  C   1.68940347994875     -0.54959820707079     -0.15712072905599
  N   2.46382479977407     -0.76675018868432     -1.01219604933461
  N   -1.18555744122864     -0.91352551715021     -0.51994928754700
  O   -1.09294943495392     -0.90491772680234     -1.74120910765917
  O   -1.64434997047806     -1.81638672561850      0.17639917530047
  N   -0.51593940315228      1.39131696158425     -0.61859464558830
  H   0.14115632501725      1.24757375633772     -1.37476128234796
  H   -0.27097378611519      2.21668408875289     -0.08943587119140
