13
Coordinates from ORCA-job run
  C   0.77920812351386     -0.65614213647638      0.42893319757112
  C   -0.33685136650320      0.33266638705264      0.11240158340474
  F   0.36812845294044     -1.48842196857603      1.44785272411193
  H   -0.56218340301239      0.94788348226562      0.98356811045747
  H   0.98092432761078     -1.27245743264464     -0.45234569986458
  C   1.98897026019350      0.06626229260864      0.83318978743718
  N   2.95851557134472      0.63075400403297      1.17683714277041
  N   -1.58507417530088     -0.51572871630965     -0.11034211281254
  O   -1.54390326335558     -1.26677837728462     -1.08321843620926
  O   -2.52352712513330     -0.37345554239183      0.66512055707146
  N   0.02181332993387      1.11806799777377     -1.01071838737343
  H   0.04055338902236      0.56306380737548     -1.85736859968105
  H   -0.58657412125416      1.91528620257403     -1.13390986688347
