13
Coordinates from ORCA-job run
  C   0.81797071157926     -0.63105143696952      0.25819076962776
  C   -0.46424894918978      0.20005047059662      0.19434829863066
  F   0.67066917146122     -1.63678979328615      1.18844752785834
  H   -0.71490863250893      0.57618943337131      1.18606949628078
  H   1.00435917032462     -1.08927305952453     -0.71740533445079
  C   1.93531087328822      0.24366747274864      0.63231493849835
  N   2.80314896819318      0.97798258632813      0.92468173678055
  N   -1.56744077239847     -0.75941166505908     -0.17560616626076
  O   -1.42440422810894     -1.32761520884808     -1.25570979896247
  O   -2.50914491595809     -0.87869419584821      0.59729793016407
  N   -0.46575113602644      1.25319541251674     -0.76740579179046
  H   -0.05735263174520      0.97647778519776     -1.64998344124592
  H   -0.03020762891067      2.09327219877636     -0.41624016513011
