16

C	0.0	0.0	0.0
C	-0.491801	0.177809	-1.451352
Br	1.949263	0.0	0.0
H	0.35638	0.308803	-2.131031
H	-0.282976	-0.988891	0.345826
C	-0.501514	1.053083	0.966497
H	-0.218462	2.05462	0.641652
H	-0.09284	0.861397	1.962511
H	-1.590796	0.93569	0.963869
N	-1.434732	1.208694	-1.613742
H	-1.696866	1.255404	-2.59029
H	-2.258015	0.890705	-1.019286
N	-1.023908	-1.212075	-1.959222
O	-0.610885	-2.249626	-1.447596
O	-1.751787	-1.169339	-2.94706
F	-2.961129	0.0	0.0
