16

C	0.0	0.0	0.0
C	-0.484831	0.240998	-1.445761
Br	1.949395	0.0	0.0
H	0.366751	0.418209	-2.110804
H	-0.284755	-1.002313	0.30361
C	-0.502009	1.01478	1.00673
H	-1.591113	0.898705	0.997926
H	-0.094404	0.785066	1.995267
H	-0.217714	2.027781	0.72058
N	-1.439819	1.266223	-1.565981
H	-2.26183	0.917512	-0.985543
H	-1.69893	1.354349	-2.54048
N	-0.991138	-1.130801	-2.027046
O	-1.709916	-1.051236	-3.019579
O	-0.567878	-2.186018	-1.561197
F	-2.963547	0.0	0.0
