16

C	0.0	0.0	0.0
C	-0.643102	0.262784	-1.37224
Br	1.960024	0.0	0.0
H	-1.633331	0.669522	-1.099938
H	-0.294248	-1.012222	0.271776
C	-0.480651	0.964235	1.0687
H	-0.18363	1.985676	0.823801
H	-0.06927	0.693806	2.045419
H	-1.572161	0.843632	1.040368
N	-0.898548	-0.890809	-2.178197
H	-1.73068	-1.289376	-1.753182
H	-0.132441	-1.551538	-2.137453
N	0.145737	1.279189	-2.133958
O	0.809567	0.917225	-3.10374
O	0.105927	2.434712	-1.709903
F	-2.87118	0.0	0.0
