14

C	-0.447641	0.088423	-1.444423
C	0.0	0.0	0.0
F	-0.076838	-1.097052	-2.06945
H	1.101373	0.0	0.0
H	0.065493	0.910574	-1.941532
C	-1.906138	0.235462	-1.600901
N	-3.063979	0.355563	-1.751457
N	-0.563971	-1.190566	0.628383
H	-0.436607	-1.051995	1.628584
H	0.067548	-1.947905	0.362775
N	-0.438745	1.201541	0.708535
O	-0.611018	1.132023	1.927044
O	-0.533719	2.247696	0.055391
F	2.529427	0.0	0.0
