14

C	-0.36939	-0.005501	-1.481959
C	0.0	0.0	0.0
F	-0.011727	-1.237826	-2.012575
H	1.091531	0.0	0.0
H	0.183803	0.76724	-2.010158
C	-1.817444	0.158362	-1.714699
N	-2.972858	0.278191	-1.887419
N	-0.481088	-1.100554	0.750634
H	-1.292652	-1.554197	0.349989
H	0.271925	-1.759062	0.88213
N	-0.471174	1.306761	0.550265
O	-0.775369	1.392657	1.733486
O	-0.457666	2.267122	-0.236453
F	2.529793	0.0	0.0
