14

C	-0.644116	-0.057584	-1.378089
C	0.0	0.0	0.0
F	-0.462593	1.092029	-2.124761
H	1.090038	0.0	0.0
H	-1.727989	-0.204494	-1.269793
C	-0.102388	-1.201698	-2.128847
N	0.303174	-2.090456	-2.778313
N	-0.439076	-1.170473	0.703138
H	0.314857	-1.458344	1.313568
H	-1.268802	-0.975783	1.249726
N	-0.498351	1.272794	0.63813
O	-1.438253	1.196612	1.44273
O	0.036939	2.32415	0.303769
F	2.539116	0.0	0.0
