14

C	-0.526464	-0.096895	-1.416194
C	0.0	0.0	0.0
F	-0.180232	1.023214	-2.153104
H	1.089871	0.0	0.0
H	-1.620087	-0.157246	-1.428054
C	0.02701	-1.292871	-2.070565
N	0.430698	-2.241121	-2.631685
N	-0.417455	-1.107159	0.81733
H	0.377001	-1.719833	0.937559
H	-1.219739	-1.615687	0.469395
N	-0.603463	1.243489	0.592852
O	-1.802107	1.456503	0.360559
O	0.093957	1.946049	1.316381
F	2.546985	0.0	0.0
