14

C	-0.363425	0.019049	-1.464866
C	0.0	0.0	0.0
F	-1.720786	-0.306366	-1.667588
H	1.090663	0.0	0.0
H	0.226791	-0.783007	-1.915799
C	-0.106343	1.249478	-2.225476
N	0.041955	2.152794	-2.959592
N	-0.403765	-1.202848	0.649157
H	0.387099	-1.828611	0.690132
H	-1.218575	-1.641192	0.244815
N	-0.565768	1.204255	0.686949
O	-1.342927	1.065891	1.629505
O	-0.192507	2.296035	0.250224
F	2.529548	0.0	0.0
