14

C	-0.619337	-0.059648	-1.390454
C	0.0	0.0	0.0
F	-0.266139	0.997579	-2.204175
H	1.09002	0.0	0.0
H	-1.71647	-0.054803	-1.310787
C	-0.234753	-1.321453	-2.046346
N	0.003864	-2.30912	-2.632263
N	-0.456618	-1.157782	0.714375
H	-1.25281	-0.935913	1.297007
H	0.308684	-1.473434	1.294349
N	-0.479296	1.280849	0.629646
O	-1.352612	1.216584	1.506685
O	0.016785	2.330058	0.229164
F	2.534279	0.0	0.0
