14

C	-0.451681	0.02018	-1.449284
C	0.0	0.0	0.0
F	-0.075612	-1.192142	-2.016836
H	1.101322	0.0	0.0
H	0.061392	0.813883	-1.991159
C	-1.911615	0.155469	-1.609337
N	-3.071064	0.261224	-1.765827
N	-0.591833	-1.144107	0.68735
H	-0.377771	-1.02676	1.673097
H	-0.04151	-1.941401	0.385038
N	-0.43243	1.244518	0.65001
O	-0.524168	2.256559	-0.057888
O	-0.603224	1.23925	1.870722
F	2.533268	0.0	0.0
