14

C	-0.523486	-0.086078	-1.416821
C	0.0	0.0	0.0
F	-0.177672	1.039734	-2.144966
H	1.089781	0.0	0.0
H	-1.617395	-0.150112	-1.432886
C	0.034391	-1.276962	-2.079939
N	0.433695	-2.220652	-2.651997
N	-0.411318	-1.113597	0.808442
H	-1.217351	-1.619009	0.463738
H	0.383094	-1.728283	0.920953
N	-0.602715	1.23844	0.607155
O	-1.791145	1.47559	0.350012
O	0.087198	1.909658	1.365254
F	2.551689	0.0	0.0
