14

C	-0.48267	0.118639	-1.437131
C	0.0	0.0	0.0
F	-0.067616	-0.992091	-2.144223
H	1.101339	0.0	0.0
H	-0.052557	1.001021	-1.907556
C	-1.957375	0.178975	-1.517719
N	-3.130293	0.212644	-1.554329
N	-0.461494	-1.188254	0.635854
H	-1.286488	-1.025178	1.199179
H	0.279749	-1.529552	1.233071
N	-0.405256	1.244538	0.714898
O	-0.410856	2.301211	0.07386
O	-0.668966	1.170592	1.91701
F	2.517466	0.0	0.0
