16
Coordinates from ORCA-job run
  C   0.82511762802233      0.02216304724858      0.44820280388175
  C   -0.44699132472561      0.22520602079551     -0.38985397258497
  H   0.52953225305234      0.03659448252546      1.50473347874660
  H   -0.13742036355704      0.26298247211659     -1.44241163181812
  C   1.75202073863533      1.15186025366428      0.22903905389378
  N   2.57259444536809      1.96700268714274      0.02384335570173
  N   1.43376180731849     -1.27653854192287      0.17682141331932
  H   2.19355696482673     -1.44321079034251      0.82626745595010
  H   1.83706644568391     -1.26797985566877     -0.75416021225628
  N   -0.98253429109725      1.54106939474043     -0.05397081226917
  H   -1.52882665619623      1.47950790400021      0.79862669240574
  H   -1.60196796922685      1.86765403208406     -0.78476580702576
  C   -1.42262906865941     -0.92962505980759     -0.19092242138626
  H   -2.31966508103665     -0.76751424654090     -0.79444894314106
  H   -0.97754209990515     -1.88736158942212     -0.45940458968097
  H   -1.72607342850303     -0.98281021061311      0.86040413626356
