16
Coordinates from ORCA-job run
  C   0.81144040408664     -0.01395616519049      0.45167330048102
  C   -0.49503074792718      0.15335197838247     -0.33993268069153
  H   0.53473955639098     -0.11509678297690      1.50587459131738
  H   -0.22599091167892      0.14812929266532     -1.41117275095054
  C   1.62355553213375      1.21470075059216      0.31763691825205
  N   2.28777527860389      2.16908760842965      0.14736524334507
  N   1.52125651694516     -1.21725123037808      0.03378932578247
  H   1.90751695880263     -1.08056879092526     -0.89379507097223
  H   2.29709019530562     -1.39856167418298      0.65944549490272
  N   -1.12376863107707      1.39836703425239      0.08998602739322
  H   -0.63179734412356      2.19926683574127     -0.29013193770665
  H   -2.07552846465723      1.43563571668221     -0.25458293044524
  C   -1.42979932256092     -1.01055371723366     -0.05950794594302
  H   -2.31837109740855     -0.94857114320722     -0.69435582250483
  H   -1.75223798712900     -0.97286161340139      0.98455680708629
  H   -0.93084993570624     -1.96011809924950     -0.24684856934617
