16
Coordinates from ORCA-job run
  C   0.93540360112398      0.10634727941017      0.39816807915824
  C   -0.39734665696908      0.24096866521799     -0.37005845464459
  H   0.71772783497908      0.27536629564129      1.46145028166331
  H   -0.15829834401917      0.21711148473184     -1.44065566909930
  C   1.84663022500352      1.17750121433202     -0.03383079312620
  N   2.59820739297530      1.98889937127027     -0.42605799456712
  N   1.64003882060675     -1.16565752182839      0.29791385327376
  H   1.08760613470155     -1.90651123491428      0.70848152991808
  H   1.81842359576616     -1.39501126796862     -0.67258882844424
  N   -0.93342171176111      1.56519823313979     -0.07551299155421
  H   -1.62295832978573      1.83459982480803     -0.76619846383508
  H   -1.39274449965011      1.56000719262786      0.82903197819850
  C   -1.34556187977832     -0.91033088229271     -0.04187628817457
  H   -0.95614770782850     -1.87934358264649     -0.36235687083293
  H   -1.53408759536736     -0.95313368625969      1.03695746583304
  H   -2.30447087999694     -0.75801138526909     -0.54286683376671
