16
Coordinates from ORCA-job run
  C   1.06434261238650      0.16319925256666     -0.09432774405952
  C   -0.46478784366997      0.33716090629851     -0.22607060302619
  H   1.51748341203657      0.21807079209955     -1.09068251479808
  H   -0.61188836992117      1.35864970653685     -0.59854212745794
  C   1.32965461168836     -1.18733336080291      0.43275185844237
  N   1.46259236429665     -2.27191862541213      0.86195302889576
  N   1.71058445514692      1.14538736435250      0.76425440822730
  H   1.75708116405209      2.02956012189056      0.27144178543793
  H   1.10688455361014      1.27167245481501      1.57136107702438
  N   -1.02314622998021      0.29269898310613      1.12435910644779
  H   -1.10362908094199     -0.67175795448909      1.43108789741985
  H   -1.95311279459645      0.69278061562800      1.13520050419082
  C   -1.07813910295301     -0.65403090341247     -1.20988083443188
  H   -2.14914735406891     -0.46662077325623     -1.32043376010716
  H   -0.61725207550395     -0.57700018813852     -2.19942793853798
  H   -0.94852032158156     -1.67951839178243     -0.85304414366745
