14
Coordinates from ORCA-job run
  C   -0.44177811410769      0.26975729600957     -0.09373936561405
  C   0.86242693371425     -0.51588301821165     -0.07610763935436
  F   -0.39492662879541      1.11505857215343     -1.19504487029173
  H   0.91109347336774     -1.16337540834670     -0.94978566848236
  H   0.96417070209894     -1.08780188356184      0.84724937233229
  C   -0.62137916446316      1.09780514663466      1.11176632822512
  N   -0.86858976917614      1.72255352633229      2.07439591854762
  C   -1.62849975443790     -0.66402105101425     -0.25633927777374
  H   -1.70257016881511     -1.35074653687900      0.58875366102127
  H   -1.51553597374388     -1.23242259430880     -1.18121419098536
  H   -2.54456936573756     -0.07535028848935     -0.31273261326252
  N   2.03703476451003      0.40122315860496     -0.16587318512272
  O   2.76441511290011      0.28099490757906     -1.14689851775597
  O   2.17970795268578      1.20020817349762      0.75457004851650
