14
Coordinates from ORCA-job run
  C   -0.43453954845208      0.28293620598746     -0.12027978978904
  C   0.85559317837352     -0.51707062530436     -0.01179023907924
  F   -0.30293130891881      1.12579949135018     -1.21670399762866
  H   0.89581067167589     -1.07665934171815      0.92440901716865
  H   0.94907228387653     -1.18369641542469     -0.86726142128497
  C   -0.69288048302676      1.10876780829678      1.07202053271948
  N   -0.99242991803951      1.70335388434212      2.03881229167309
  C   -1.61570552021581     -0.64025175904379     -0.36694640427713
  H   -2.52109164801116     -0.04364236646105     -0.48188357396909
  H   -1.75223303263524     -1.32981810909700      0.46806517012411
  H   -1.44557756582536     -1.20594868107409     -1.28466295677032
  N   2.05410206118409      0.37508092303346     -0.04615418695474
  O   2.08428221440338      1.29109624886409      0.76870685267268
  O   2.91752861561133      0.10905273624904     -0.87633129460482
