14
Coordinates from ORCA-job run
  C   -0.53178712328267      0.40457578533789     -0.38236955308196
  C   0.92062334439107      0.05406098238367     -0.70970147763309
  F   -1.10679917567137      0.65982323127511     -1.62780183932328
  H   0.93232795066941     -0.71778207886372     -1.47714923976979
  H   1.46585273218396      0.93580325235289     -1.05034919131946
  C   -0.64425488547241      1.64349476764216      0.40326076907713
  N   -0.77850785964242      2.64576355753364      0.99971426403698
  C   -1.28839610434598     -0.73434407382737      0.26957767769599
  H   -2.34507333860705     -0.47149600602980      0.32862010588065
  H   -1.18083753856876     -1.63588399896749     -0.33713523726021
  H   -0.91621628503480     -0.92299597751173      1.27677979387478
  N   1.64177299284904     -0.48893495831381      0.47431193799362
  O   2.30623219828983     -1.50738935809812      0.30581079953736
  O   1.52606309224213      0.13530487508667      1.52643119029128
