14

C	-0.460738	0.01624	-1.429895
C	0.0	0.0	0.0
F	-1.865308	0.097591	-1.466386
H	1.091596	0.0	0.0
H	-0.194189	-0.927849	-1.906944
H	-0.38427	0.851266	0.56018
C	0.125857	1.194162	-2.169413
H	1.215479	1.136889	-2.139277
H	-0.215497	1.193513	-3.206034
H	-0.189728	2.128429	-1.698955
N	-0.474147	-1.214327	0.7112
O	-0.384841	-2.291925	0.126572
O	-0.912847	-1.070543	1.852293
Br	3.525883	0.0	0.0
