14

C	-0.573512	-0.034877	-1.402943
C	0.0	0.0	0.0
F	-0.053355	-1.09403	-2.131539
H	1.089275	0.0	0.0
H	-0.235646	0.884164	-1.895114
H	-0.35198	0.902965	0.500613
C	-2.084213	-0.145147	-1.442523
H	-2.400261	-1.096417	-1.008785
H	-2.550658	0.666629	-0.87968
H	-2.43177	-0.10795	-2.476998
N	-0.526584	-1.129743	0.802707
O	-0.168116	-2.264423	0.498882
O	-1.338493	-0.864362	1.696383
Br	3.555947	0.0	0.0
