16

C	0.0	0.0	0.0
C	-0.305965	-0.022632	-1.516457
Br	2.00376	0.0	0.0
H	-1.401893	0.050677	-1.531484
N	-0.690752	1.126853	0.654106
O	-0.662508	2.205863	-0.007222
O	-0.669405	1.09436	1.921121
N	-0.385582	-1.215519	0.635389
H	0.251179	-1.955098	0.378808
H	-0.367536	-1.024397	1.632534
N	0.091017	-1.308344	-2.093961
H	-0.465197	-1.467165	-2.92558
H	1.062491	-1.256339	-2.379615
C	0.247697	1.103601	-2.282485
N	0.654227	1.848057	-3.098656
H	-2.159497	0.0	0.0
