16

C	0.0	0.0	0.0
C	-0.432685	-0.012735	-1.517826
Br	1.935043	0.0	0.0
H	-1.504582	0.044886	-1.588863
N	-0.52706	1.087744	0.76062
O	-1.671296	1.669527	0.099201
O	0.265139	1.977898	1.239806
N	-0.214	-1.249171	0.752949
H	-1.180055	-1.257728	1.026113
H	-0.032718	-2.039819	0.138827
N	-0.041192	-1.267684	-2.14607
H	0.934316	-1.253413	-2.40344
H	-0.609954	-1.421199	-2.969546
C	0.034387	1.206942	-2.219082
N	0.41509	2.13562	-2.833129
H	-2.102031	0.0	0.0
