16

C	0.0	0.0	0.0
C	-0.571094	0.13421	-1.429663
Br	1.923996	0.0	0.0
H	-1.665167	0.255473	-1.194593
N	-0.601828	1.143192	0.742608
O	-0.298695	2.295186	0.356563
O	-1.730229	0.803611	1.273673
N	-0.419595	-1.202184	0.655502
H	-1.443669	-1.194327	0.640424
H	-0.057124	-2.002947	0.152562
N	-0.45244	-1.044924	-2.27319
H	-1.044414	-1.773076	-1.892013
H	0.510352	-1.367081	-2.279757
C	-0.095252	1.291789	-2.177462
N	0.2391	2.177547	-2.873744
H	-2.888966	0.0	0.0
