17
Coordinates from ORCA-job run
  C   -0.53077797416005     -0.05062628746048     -0.37748674750265
  C   0.91954968150407      0.15633383870312      0.09541732076292
  F   -0.99562443110573      1.16630736981009     -0.86334753085322
  H   1.34933264484294     -0.81470113208323      0.35958274464685
  C   -1.48818008163731     -0.47722595218040      0.71754188844772
  H   -2.46474058597964     -0.67113351198845      0.26862129001115
  H   -1.13684554054399     -1.38297614501063      1.21466709949665
  H   -1.60625106074683      0.30895770789565      1.46364938868224
  N   -0.46509738946550     -0.92016698834763     -1.52914171251929
  H   -0.08621111710789     -1.82329890192975     -1.27036527603667
  H   -1.40106872684336     -1.06363257970284     -1.89166789609197
  N   0.85635165850444      0.86568052104549      1.44759744682364
  O   0.67969474985727      2.07537803703038      1.45470089843639
  O   0.93490031982967      0.13545698957364      2.43753546727254
  N   1.67979410460898      0.90773262124597     -0.82803137128399
  H   1.17419745842975      1.08920369160072     -1.68107389735221
  H   2.57897629001318      0.49771072179836     -1.02019911294009
