17
Coordinates from ORCA-job run
  C   -0.51832136695134     -0.04426940528052     -0.34311002191958
  C   0.96694858794906      0.05873951495374      0.06632856880659
  F   -0.92672900296624      1.21432081845329     -0.76649761368214
  H   1.36298214748868     -0.95066730083286      0.18872061869372
  C   -1.45547946595676     -0.47311347419647      0.76642725165943
  H   -2.46108763844268     -0.58614157210231      0.35599998988891
  H   -1.13681026643798     -1.42379019993015      1.19902308687806
  H   -1.48772904109127      0.27443216902921      1.56015918675601
  N   -0.53095102410636     -0.87496335644364     -1.53279376165422
  H   -0.50914135187743     -1.85417067619390     -1.27069131748667
  H   -1.39782195953410     -0.70613204000840     -2.03134610599584
  N   1.04274746506688      0.67707393903282      1.42881529515417
  O   1.10880123202470     -0.08865834857312      2.38893567078240
  O   0.97343560235688      1.90116961019152      1.48513218349874
  N   1.79670646470733      0.81431467945184     -0.82288605668851
  H   1.37676062620913      1.72705244822328     -0.95704091871849
  H   1.79568899156150      0.33780319422567     -1.71717605597260
