17
Coordinates from ORCA-job run
  C   -0.65230230968428     -0.05604790618546     -0.33666363117834
  C   0.84670327304149     -0.00419735813612      0.02183550310122
  F   -0.96918826681135      1.27526382765092     -0.66421494542409
  H   1.18449333751586     -1.00187354115910      0.30602073430394
  C   -1.56698770208529     -0.47236759716322      0.79135527246627
  H   -1.56277344272620      0.26937608824749      1.58741208328122
  H   -1.26601764812995     -1.43309203389853      1.21307863588731
  H   -2.57895519950889     -0.54758667308874      0.39000394617822
  N   -0.86512834018852     -0.85714673461394     -1.49023018469842
  H   -0.05534439276450     -0.86050433227105     -2.09579682628728
  H   -1.16755894380340     -1.79287218200331     -1.26695026606290
  N   1.02839634204277      0.82251060353567      1.29456666712337
  O   0.87239200123471      0.22558515961148      2.35864630953413
  O   1.29694140474688      2.01314376124609      1.16739600162241
  N   1.58085825122142      0.49661229126292     -1.08461376425668
  H   2.57729088649340      0.47389029816180     -0.91530237742303
  H   1.29818074940583      1.44930632880311     -1.27754315816734
