13
Coordinates from ORCA-job run
  C   0.56647140291403     -0.13786739122636     -0.27538477147112
  C   -0.77594985456427     -0.13926306125668      0.46609918158498
  Br  0.56579216925348     -1.48839126444980     -1.67216395430321
  H   -0.92346026806293     -1.13694263415900      0.88629703948193
  H   -0.67097858917028      0.56252259587622      1.29972591086827
  N   1.70564458622453     -0.50986936213492      0.67997028473218
  O   1.40959123943911     -1.27022165299221      1.59333501934896
  O   2.80995521921663     -0.04309352451169      0.43918877324481
  C   0.85200657154394      1.16279939429765     -0.85765459756646
  N   1.05201017386716      2.23603550939238     -1.29286299246022
  N   -1.81055079593835      0.30863574966066     -0.44250726159465
  H   -2.46466150168898      0.92386322352888      0.01728219262609
  H   -2.31487035303404     -0.46920758202514     -0.84232482449156
