13
Coordinates from ORCA-job run
  C   0.59031398331425     -0.12493956390282     -0.29794918958580
  C   -0.74798264312798     -0.27874184952056      0.43873633550321
  Br  0.78642836054822     -1.45200791992196     -1.69194803028966
  H   -0.68711144014013      0.36334394196090      1.32971029107109
  H   -0.81407564734384     -1.31215219038223      0.77789978512117
  N   1.73400044457990     -0.34749136368158      0.69501431946013
  O   1.57961529253529     -1.28058059728489      1.47184984408211
  O   2.69710644273881      0.40414776762089      0.62607053314475
  C   0.70903892845325      1.20567307299893     -0.87273153301789
  N   0.70976436184349      2.29650870673973     -1.31115140217287
  N   -1.82743935490918      0.04002724854958     -0.46646347161221
  H   -2.08802276734336      1.01461287802246     -0.41145360342623
  H   -2.64063596114873     -0.52940013119846     -0.28758387827779
