15

C	0.0	0.0	0.0
C	-0.360958	-0.663434	-1.388034
Br	2.029772	0.0	0.0
H	0.569638	-0.888703	-1.913425
H	-0.248066	1.060491	-0.0243
N	-0.52777	-0.551137	1.186688
H	-0.491823	-1.564156	1.169741
H	-1.515568	-0.27505	1.225032
C	-1.026082	0.319325	-2.248106
N	-1.432911	1.114839	-3.010942
C	-1.135893	-1.975076	-1.264486
H	-2.069781	-1.822441	-0.72367
H	-0.513646	-2.722711	-0.762141
H	-1.370457	-2.355577	-2.261235
Br	-3.764278	0.0	0.0
