15

C	0.0	0.0	0.0
C	-0.254752	-0.021007	-1.550189
Br	1.948751	0.0	0.0
H	0.421214	-0.797797	-1.923739
H	-0.266156	0.973561	0.427015
N	-0.606472	-1.139716	0.608839
H	-1.618477	-1.005174	0.488438
H	-0.425986	-1.121392	1.606435
C	0.196338	1.249364	-2.127642
N	0.497903	2.264141	-2.637312
C	-1.642801	-0.353633	-2.100273
H	-1.996426	-1.292057	-1.681599
H	-2.38561	0.400807	-1.865774
H	-1.535928	-0.46321	-3.183692
Br	-4.156475	0.0	0.0
