15

C	0.0	0.0	0.0
C	-0.34552	-0.061644	-1.509575
Br	1.948774	0.0	0.0
H	0.242741	-0.892172	-1.915752
H	-0.272507	0.978608	0.411112
N	-0.546262	-1.136075	0.684608
H	-0.32227	-1.076026	1.671517
H	-1.563439	-1.078771	0.606921
C	0.126375	1.163558	-2.165415
N	0.455228	2.144702	-2.720985
C	-1.817835	-0.284922	-1.844349
H	-2.147712	-1.265148	-1.504448
H	-1.948158	-0.238332	-2.928342
H	-2.476934	0.444312	-1.378336
Br	-4.659614	0.0	0.0
