15

C	0.0	0.0	0.0
C	-0.527839	0.147901	-1.428947
Br	2.017637	0.0	0.0
H	-1.62504	0.105041	-1.287877
H	-0.264219	0.891083	0.569087
N	-0.514982	-1.138446	0.613357
H	-0.448687	-1.156935	1.616708
H	-0.25265	-2.010578	0.181013
C	-0.124957	-1.000872	-2.237375
N	0.206311	-1.921382	-2.888725
C	-0.14358	1.464213	-2.097447
H	0.935561	1.547501	-2.23479
H	-0.632868	1.544091	-3.070568
H	-0.492551	2.293175	-1.477884
Br	-3.870974	0.0	0.0
