15

C	0.0	0.0	0.0
C	-0.341879	-0.398124	-1.467284
Br	1.962679	0.0	0.0
H	0.163087	-1.355425	-1.651315
H	-0.290881	1.037052	0.177821
N	-0.565728	-0.817278	1.016103
H	-0.511551	-1.798169	0.767791
H	-1.546804	-0.566169	1.1364
C	0.226044	0.567988	-2.412615
N	0.614392	1.343742	-3.204573
C	-1.836923	-0.546111	-1.734163
H	-2.281373	-1.32626	-1.117958
H	-2.393662	0.360681	-1.50367
H	-2.003122	-0.80095	-2.784478
Br	-4.689212	0.0	0.0
