15

C	0.0	0.0	0.0
C	-0.39247	0.01463	-1.532373
Br	1.963301	0.0	0.0
H	0.52813	0.089011	-2.114675
H	-0.279199	0.950632	0.452002
N	-0.49864	-1.045279	0.826836
H	-1.507319	-0.885991	0.927877
H	-0.373489	-1.942466	0.374528
C	-1.113827	1.248159	-1.867895
N	-1.558791	2.273401	-2.229308
C	-1.119448	-1.244938	-1.998654
H	-2.037458	-1.381595	-1.430504
H	-1.37734	-1.140879	-3.054716
H	-0.457285	-2.109875	-1.898226
Br	-3.732864	0.0	0.0
