15

C	-0.501186	0.043075	-1.433086
C	0.0	0.0	0.0
F	-1.826173	0.487073	-1.483217
H	1.088524	0.0	0.0
H	-0.371212	0.890134	0.513849
C	0.349774	1.017751	-2.22649
H	-0.014229	1.066936	-3.25401
H	1.397033	0.712515	-2.196319
H	0.264655	2.006057	-1.769281
C	-0.471815	-1.291601	-2.060165
N	-0.431151	-2.350912	-2.563681
N	-0.53109	-1.167959	0.757396
O	-1.711106	-1.468152	0.564295
O	0.222857	-1.729419	1.546429
Cl	3.357745	0.0	0.0
