15

C	-0.572661	0.046454	-1.416769
C	0.0	0.0	0.0
F	0.118962	-0.803148	-2.258801
H	1.089504	0.0	0.0
H	-0.370725	0.846711	0.576854
C	-2.045457	-0.32988	-1.488656
H	-2.15787	-1.373447	-1.192705
H	-2.397096	-0.215959	-2.515493
H	-2.641663	0.301291	-0.82643
C	-0.396392	1.426609	-1.91665
N	-0.288863	2.53699	-2.282577
N	-0.492397	-1.213827	0.695247
O	-0.161677	-2.302518	0.23306
O	-1.236597	-1.053764	1.666567
Cl	3.313172	0.0	0.0
