15

C	-0.564791	0.053231	-1.416249
C	0.0	0.0	0.0
F	-0.16567	-1.124282	-2.043679
H	1.088618	0.0	0.0
H	-0.387051	-0.898864	0.47553
C	-2.08466	0.095039	-1.445541
H	-2.466027	1.029447	-1.03236
H	-2.479093	-0.736875	-0.859686
H	-2.421433	0.002772	-2.478628
C	-0.041145	1.184962	-2.204297
N	0.261165	2.078019	-2.903994
N	-0.52602	1.144581	0.779383
O	-1.438903	0.92188	1.582981
O	-0.040396	2.251452	0.552913
Cl	3.321737	0.0	0.0
