15

C	-0.460365	-0.042184	-1.451426
C	0.0	0.0	0.0
F	-0.299101	1.232125	-1.990573
H	1.088505	0.0	0.0
H	-0.373304	-0.873718	0.538227
C	0.420043	-1.005181	-2.229107
H	0.158666	-0.964061	-3.28828
H	0.279565	-2.025589	-1.865082
H	1.46349	-0.717903	-2.07568
C	-1.885548	-0.399031	-1.613691
N	-2.987375	-0.753354	-1.810813
N	-0.568726	1.190889	0.682548
O	-1.799907	1.249044	0.732248
O	0.198484	2.023978	1.148334
Cl	3.380804	0.0	0.0
