15

C	-0.467315	-0.111493	-1.452931
C	0.0	0.0	0.0
F	-0.387881	1.193595	-1.951265
H	1.089106	0.0	0.0
H	-0.394035	0.90831	0.451084
C	0.417327	-0.989304	-2.311957
H	1.449816	-0.659844	-2.173631
H	0.118934	-0.89173	-3.357832
H	0.333666	-2.027559	-1.996313
C	-1.888533	-0.501112	-1.549229
N	-3.013638	-0.818622	-1.647444
N	-0.448622	-1.134546	0.837592
O	-0.692166	-0.89459	2.019757
O	-0.515643	-2.24905	0.316124
Cl	3.306217	0.0	0.0
