19

C	-0.366696	-0.038737	-1.481431
C	0.0	0.0	0.0
F	-0.072987	-1.37654	-1.919655
H	1.097465	0.0	0.0
C	-1.835354	0.148675	-1.794551
H	-2.141787	1.173793	-1.586901
H	-2.014394	-0.066092	-2.851916
H	-2.420365	-0.54198	-1.187127
N	0.453312	0.892129	-2.169926
H	0.361023	0.767383	-3.170676
H	1.426999	0.752722	-1.902608
N	-0.57631	-1.16665	0.679089
H	-0.157171	-1.988155	0.257066
H	-0.24021	-1.143811	1.636778
C	-0.480186	1.273002	0.675265
H	-0.040693	1.343258	1.675046
H	-0.162237	2.148437	0.10804
H	-1.569543	1.272047	0.778146
Br	3.69597	0.0	0.0
