19

C	-0.488262	-0.060576	-1.454111
C	0.0	0.0	0.0
F	-0.18204	1.166236	-2.051752
H	1.101335	0.0	0.0
C	0.236356	-1.138129	-2.229133
H	1.315143	-1.017667	-2.105508
H	-0.062911	-2.125332	-1.868327
H	-0.04186	-1.056643	-3.281248
N	-1.929117	-0.215964	-1.59051
H	-2.351636	0.660498	-1.299723
H	-2.187107	-0.910225	-0.893469
N	-0.489125	-1.231918	0.667062
H	-0.515994	-1.052565	1.665284
H	0.22679	-1.942397	0.545447
C	-0.518365	1.22105	0.734909
H	-1.604046	1.168957	0.874679
H	-0.26948	2.129667	0.187324
H	-0.046651	1.284068	1.719477
Br	3.693361	0.0	0.0
