19

C	-0.401073	-0.149144	-1.47191
C	0.0	0.0	0.0
F	-0.044698	1.05613	-2.134082
H	1.096897	0.0	0.0
C	0.373425	-1.248095	-2.165593
H	0.106077	-2.222984	-1.755738
H	0.148778	-1.238955	-3.236975
H	1.441119	-1.073609	-2.018132
N	-1.817594	-0.353401	-1.604768
H	-2.301462	0.467375	-1.26138
H	-2.047146	-0.45957	-2.586336
N	-0.427129	-1.160581	0.792155
H	0.305253	-1.860539	0.767305
H	-1.263394	-1.555306	0.376057
C	-0.530361	1.279222	0.629947
H	-1.619574	1.241816	0.74921
H	-0.257817	2.156025	0.042846
H	-0.097924	1.370825	1.625935
Br	3.714626	0.0	0.0
