15

C	-0.528406	-0.016442	-1.451343
C	0.0	0.0	0.0
F	-0.185674	1.189028	-2.02098
H	1.091146	0.0	0.0
C	0.022777	-1.073849	-2.31412
N	0.435061	-1.850813	-3.091728
C	-2.004748	-0.10381	-1.438534
N	-3.177854	-0.14363	-1.403469
N	-0.42796	-1.282917	0.682589
O	-0.645203	-2.266191	-0.026635
O	-0.514091	-1.259044	1.905908
N	-0.457331	1.158377	0.676108
H	0.265189	1.488326	1.300871
H	-1.311349	0.998296	1.192704
Cl	3.170532	0.0	0.0
