15

C	-0.507492	-0.183126	-1.440241
C	0.0	0.0	0.0
F	0.09264	-1.227792	-2.092269
H	1.111336	0.0	0.0
C	-1.974109	-0.38607	-1.443295
N	-3.141634	-0.510303	-1.408765
C	-0.220493	1.050227	-2.199904
N	-0.025441	1.981654	-2.887704
N	-0.427118	-1.18247	0.843156
O	-0.536667	-0.981855	2.050318
O	-0.606156	-2.260644	0.282001
N	-0.466041	1.24058	0.514959
H	-1.337822	1.146234	1.019148
H	0.233533	1.63758	1.127183
Cl	3.17058	0.0	0.0
