15

C	-0.501351	-0.038516	-1.452053
C	0.0	0.0	0.0
F	-1.90218	-0.034905	-1.427702
H	1.090679	0.0	0.0
C	-0.083163	1.201125	-2.127251
N	0.220476	2.187715	-2.686252
C	-0.083792	-1.187428	-2.268747
N	0.16872	-2.047657	-3.028094
N	-0.508547	-1.276532	0.64207
O	-0.018482	-2.318362	0.212498
O	-1.367488	-1.194564	1.509669
N	-0.442058	1.138819	0.710771
H	-1.33402	1.51164	0.425308
H	0.283321	1.839163	0.752944
Cl	3.191628	0.0	0.0
