15

C	-0.565997	-0.154417	-1.411315
C	0.0	0.0	0.0
F	-1.953513	-0.29126	-1.309435
H	1.093479	0.0	0.0
C	-0.303065	1.079352	-2.171585
N	-0.151411	2.026301	-2.848373
C	-0.061521	-1.29047	-2.201231
N	0.26701	-2.141384	-2.941071
N	-0.43109	-1.224663	0.797822
O	-0.301907	-2.321153	0.264503
O	-0.865783	-1.033431	1.929878
N	-0.456178	1.218479	0.565032
H	0.210973	1.535702	1.255278
H	-1.365141	1.119652	0.995447
Cl	3.170587	0.0	0.0
