16

C	0.0	0.0	0.0
C	-0.416923	0.144724	-1.477953
Br	1.957401	0.0	0.0
H	0.105567	-0.64168	-2.0375
H	-0.28741	0.897475	0.551654
C	-0.564104	-1.240153	0.658908
H	-0.171049	-1.348421	1.671189
H	-1.653542	-1.152031	0.717015
H	-0.305099	-2.135781	0.088006
C	0.060168	1.425674	-2.012154
N	0.401818	2.450133	-2.473668
C	-1.925657	0.015352	-1.701948
H	-2.511491	0.669318	-1.05681
H	-2.166091	0.254956	-2.739769
H	-2.270883	-0.996455	-1.496638
Br	-4.951683	0.0	0.0
