16

C	0.0	0.0	0.0
C	-0.436421	-0.00277	-1.475841
Br	1.958989	0.0	0.0
H	0.049486	-0.859552	-1.955937
H	-0.279996	0.950238	0.460383
C	-0.56241	-1.162053	0.788503
H	-1.649794	-1.056637	0.848665
H	-0.318058	-2.113624	0.308459
H	-0.156774	-1.17127	1.801515
C	0.06676	1.207319	-2.129427
N	0.440803	2.203131	-2.621154
C	-1.953245	-0.105382	-1.652477
H	-2.323792	-1.077566	-1.331627
H	-2.503241	0.63317	-1.071895
H	-2.212668	0.0257	-2.705044
Br	-4.994593	0.0	0.0
