16

C	0.0	0.0	0.0
C	-0.409429	0.088377	-1.484864
Br	1.957405	0.0	0.0
H	0.080036	-0.747168	-2.001851
H	-0.283256	0.922348	0.511951
C	-0.577599	-1.205765	0.707136
H	-0.33489	-2.126808	0.170511
H	-1.665599	-1.097255	0.762876
H	-0.184843	-1.280326	1.722661
C	0.11879	1.318474	-2.087255
N	0.499645	2.297892	-2.611845
C	-1.921685	0.013878	-1.708123
H	-2.147516	0.189566	-2.762539
H	-2.319943	-0.960523	-1.433003
H	-2.473713	0.739549	-1.112942
Br	-4.926702	0.0	0.0
