19

C	-0.359084	-0.10816	-1.491593
C	0.0	0.0	0.0
Br	-0.209398	1.813788	-2.336358
H	1.097664	0.0	0.0
N	0.529423	-0.994102	-2.101377
H	1.496546	-0.812108	-1.838263
H	0.403512	-1.026593	-3.103803
N	-1.707683	-0.476421	-1.862525
H	-1.884928	-1.395118	-1.467965
H	-2.363806	0.187192	-1.469291
C	-0.438058	-1.292657	0.69919
H	-0.139854	-2.172285	0.125422
H	-1.521572	-1.317796	0.867909
H	0.055721	-1.348555	1.672757
C	-0.544656	1.205775	0.74546
H	-1.627215	1.314095	0.603496
H	-0.061742	2.12708	0.424718
H	-0.359008	1.078706	1.816089
Br	3.621739	0.0	0.0
