19

C	-0.359657	0.098123	-1.490841
C	0.0	0.0	0.0
Br	-0.059485	-1.776082	-2.33604
H	1.0953	0.0	0.0
N	-1.691045	0.51974	-1.724231
H	-2.351719	-0.099931	-1.274
H	-1.863425	0.530552	-2.721992
N	0.517025	0.939451	-2.259308
H	0.358883	1.895577	-1.955237
H	1.482156	0.695663	-2.032544
C	-0.544968	-1.197761	0.763204
H	-0.281477	-1.095785	1.820374
H	-0.120921	-2.132403	0.400208
H	-1.639364	-1.262434	0.699534
C	-0.420616	1.297036	0.703432
H	-1.504654	1.362678	0.828226
H	-0.089034	2.182739	0.159703
H	0.052885	1.32785	1.68747
Br	3.632903	0.0	0.0
