19

C	-0.239642	-0.017189	-1.502512
C	0.0	0.0	0.0
Br	-2.362403	-0.520629	-1.785128
H	1.099363	0.0	0.0
N	0.02528	1.186855	-2.116532
H	-0.048512	1.124135	-3.120646
H	-0.441273	1.988114	-1.725525
N	0.425239	-1.049759	-2.246296
H	0.098691	-1.955788	-1.937764
H	1.41705	-0.964936	-2.00797
C	-0.447368	-1.257704	0.730611
H	-0.1235	-2.165235	0.216547
H	0.020232	-1.268741	1.719019
H	-1.532968	-1.294376	0.846283
C	-0.51196	1.254434	0.692079
H	-1.585591	1.389968	0.519514
H	-0.348012	1.171174	1.769576
H	0.031321	2.142803	0.361297
Br	3.563063	0.0	0.0
