19

C	0.0	0.0	0.0
C	-0.296453	0.062971	-1.554622
Cl	1.771645	0.0	0.0
H	0.510346	-0.576526	-1.923052
N	-0.320535	1.297298	0.844121
O	-0.431175	1.101689	2.050523
O	-0.361495	2.395491	0.308299
N	-0.603606	-1.113491	0.574819
H	-1.641636	-0.890078	0.464634
H	-0.390187	-1.137475	1.567537
C	-0.09957	1.423294	-2.22523
H	0.806222	1.934744	-1.900584
H	-0.949554	2.075615	-2.031881
H	-0.031684	1.255227	-3.305814
C	-1.558016	-0.599738	-2.10571
H	-2.456145	-0.033314	-1.884223
H	-1.403535	-0.706271	-3.189465
H	-1.701161	-1.591537	-1.677082
H	-3.055465	0.0	0.0
