19

C	0.0	0.0	0.0
C	-0.301274	-0.019881	-1.540088
Cl	1.780893	0.0	0.0
H	0.505818	0.569644	-1.977321
N	-0.247512	1.467374	0.557965
O	-0.509221	1.551297	1.752853
O	-0.09413	2.418043	-0.201553
N	-0.683522	-0.946472	0.726035
H	-0.527825	-0.798363	1.719536
H	-1.733733	-0.705659	0.506063
C	-1.589044	0.574343	-2.113706
H	-2.458596	-0.033431	-1.885607
H	-1.432213	0.650308	-3.200091
H	-1.79456	1.567964	-1.721959
C	-0.156846	-1.465145	-2.021476
H	-0.973399	-2.069902	-1.62443
H	0.786636	-1.915665	-1.705668
H	-0.201509	-1.486973	-3.115759
H	-3.052276	0.0	0.0
