19

C	0.0	0.0	0.0
C	-0.30922	-0.050166	-1.547992
Cl	1.780532	0.0	0.0
H	0.530443	0.452042	-2.031953
N	-0.320147	1.431254	0.511103
O	-0.824501	1.554483	1.61669
O	0.005079	2.348034	-0.237817
N	-0.63475	-0.903381	0.865523
H	-1.658328	-0.679003	0.801726
H	-0.501884	-1.843143	0.514515
C	-1.59081	0.620539	-2.029974
H	-1.75152	0.347654	-3.081175
H	-2.451452	0.317609	-1.41297
H	-1.506585	1.70835	-1.965048
C	-0.301184	-1.519786	-1.968397
H	-1.213614	-2.018465	-1.625568
H	0.569918	-2.065581	-1.591021
H	-0.280434	-1.585021	-3.059201
H	-3.431309	0.0	0.0
