19

C	0.0	0.0	0.0
C	-0.502014	0.192655	-1.427522
Cl	1.83218	0.0	0.0
H	-1.536425	0.537158	-1.258962
N	-0.248132	1.328595	0.847676
O	-0.450951	2.392971	0.276476
O	-0.207575	1.184367	2.065853
N	-0.621319	-1.065416	0.616723
H	-1.671937	-0.827431	0.464813
H	-0.420517	-1.047675	1.611926
C	-0.594227	-1.161405	-2.127167
H	0.366717	-1.685939	-2.104088
H	-0.876243	-1.002837	-3.174073
H	-1.348568	-1.789225	-1.65545
C	0.281264	1.169725	-2.299971
H	1.211833	0.718059	-2.65563
H	-0.328592	1.413607	-3.176202
H	0.516789	2.098075	-1.785012
H	-2.965418	0.0	0.0
