19

C	0.0	0.0	0.0
C	-0.280982	0.015123	-1.557343
Cl	1.771834	0.0	0.0
H	0.476292	-0.705079	-1.880157
N	-0.326932	1.327484	0.783719
O	-0.357663	1.198832	2.003828
O	-0.471854	2.385547	0.188022
N	-0.618113	-1.086643	0.60706
H	-0.411056	-1.076761	1.601208
H	-1.658391	-0.849502	0.480721
C	0.036051	1.324872	-2.284931
H	0.94486	1.80934	-1.928048
H	0.167629	1.095706	-3.348403
H	-0.787593	2.029427	-2.184746
C	-1.584244	-0.559691	-2.108168
H	-2.4358	0.089942	-1.934548
H	-1.417513	-0.719283	-3.184719
H	-1.826292	-1.514916	-1.645258
H	-3.03223	0.0	0.0
