16

C	0.0	0.0	0.0
C	-0.40136	0.13754	-1.489444
Br	1.950748	0.0	0.0
H	0.223463	0.920458	-1.923029
H	-0.098157	-0.809898	-1.951705
N	-0.35044	1.287134	0.747056
O	-0.3739	2.325008	0.091282
O	-0.538795	1.205572	1.955405
C	-0.60908	-1.178777	0.706368
H	-0.35447	-2.088716	0.15943
H	-1.697659	-1.044699	0.701985
H	-0.262965	-1.259433	1.734356
N	-1.770771	0.417681	-1.80171
H	-2.041452	1.327933	-1.456028
H	-2.446963	-0.222787	-1.395645
Cl	-4.372774	0.0	0.0
