16

C	0.0	0.0	0.0
C	-0.580239	-0.063161	-1.401819
Br	1.936071	0.0	0.0
H	-1.663766	0.054479	-1.252255
H	-0.399268	-1.086134	-1.746576
N	-0.367212	1.32966	0.670425
O	-0.692067	2.26441	-0.055403
O	-0.273916	1.385736	1.890961
C	-0.533411	-1.121997	0.863321
H	-1.626183	-1.042539	0.874386
H	-0.235898	-2.077024	0.425799
H	-0.139903	-1.049919	1.875244
N	0.016879	0.851999	-2.370798
H	-0.354373	1.774905	-2.191462
H	-0.303728	0.572164	-3.28962
Cl	-3.866175	0.0	0.0
