16

C	0.0	0.0	0.0
C	-0.531808	-0.426428	-1.374224
Br	1.950772	0.0	0.0
H	-0.020651	0.150203	-2.144784
H	-1.59241	-0.151992	-1.367179
N	-0.339724	1.47902	0.206575
O	-0.553461	1.861107	1.351115
O	-0.325663	2.190896	-0.791921
C	-0.529465	-0.810452	1.149877
H	-0.159474	-0.428423	2.098812
H	-0.214418	-1.847648	1.036
H	-1.623114	-0.741705	1.11764
N	-0.429579	-1.846168	-1.658213
H	-1.130046	-2.344812	-1.123928
H	0.486042	-2.202396	-1.412646
Cl	-3.767554	0.0	0.0
