16

C	0.0	0.0	0.0
C	-0.535331	-0.46164	-1.361336
Br	1.950795	0.0	0.0
H	-1.594428	-0.18156	-1.360477
H	-0.022054	0.090811	-2.148627
N	-0.339486	1.484166	0.16755
O	-0.561791	1.894889	1.300287
O	-0.315905	2.171736	-0.847976
C	-0.529034	-0.778197	1.173213
H	-0.162469	-0.364549	2.110145
H	-0.208977	-1.81756	1.091389
H	-1.623014	-0.715345	1.137209
N	-0.442795	-1.889739	-1.605697
H	-1.148108	-2.366616	-1.058297
H	0.469715	-2.245261	-1.346994
Cl	-3.764442	0.0	0.0
