16

C	0.0	0.0	0.0
C	-0.373747	0.032982	-1.508765
Br	1.950749	0.0	0.0
H	-0.119392	-0.968882	-1.876693
H	0.308408	0.732358	-1.994008
N	-0.352429	1.338418	0.643976
O	-0.315263	2.329994	-0.079033
O	-0.603817	1.34302	1.843613
C	-0.620755	-1.125155	0.776111
H	-0.304759	-1.121659	1.817325
H	-0.343656	-2.072592	0.309616
H	-1.709388	-0.997572	0.730708
N	-1.71278	0.374239	-1.887251
H	-2.445411	-0.12839	-1.388787
H	-1.885824	1.352629	-1.701568
Cl	-4.266337	0.0	0.0
