19

C	0.0	0.0	0.0
C	-0.542465	-0.09739	-1.438917
Br	1.971327	0.0	0.0
H	-1.631658	0.035583	-1.310361
C	-0.45198	1.310283	0.629503
H	-1.546843	1.304804	0.643943
H	-0.075039	1.388314	1.652086
H	-0.093876	2.170628	0.059858
C	-0.469869	-1.180474	0.835219
H	-1.56406	-1.203855	0.789558
H	-0.05624	-2.124925	0.478628
H	-0.158008	-1.043056	1.873244
C	-0.297484	-1.432076	-2.14508
H	-0.654783	-1.375236	-3.175526
H	0.766189	-1.682432	-2.156773
H	-0.854401	-2.223409	-1.643078
C	-0.052714	1.006356	-2.266959
N	0.321454	1.883858	-2.953008
Cl	-3.793954	0.0	0.0
