19

C	0.0	0.0	0.0
C	-0.541772	-0.098376	-1.439083
Br	1.971349	0.0	0.0
H	-1.631221	0.032618	-1.31074
C	-0.452367	1.310527	0.628478
H	-0.094409	2.170543	0.058175
H	-0.075322	1.389523	1.650941
H	-1.547242	1.305005	0.643035
C	-0.469897	-1.180078	0.835732
H	-1.564069	-1.203213	0.789872
H	-0.056417	-2.124653	0.479366
H	-0.158051	-1.042474	1.873755
C	-0.294167	-1.432347	-2.145714
H	-0.849028	-2.225085	-1.643529
H	0.770074	-1.680272	-2.158212
H	-0.652333	-1.37592	-3.17589
C	-0.053171	1.005328	-2.26785
N	0.321594	1.87273	-2.966263
Cl	-3.794074	0.0	0.0
