19

C	0.0	0.0	0.0
C	-0.286032	-0.322908	-1.506581
Br	1.976074	0.0	0.0
H	0.326597	0.380854	-2.084247
C	-0.503246	1.385699	0.357176
H	-0.166859	2.129338	-0.370225
H	-1.597458	1.36097	0.38105
H	-0.13816	1.675665	1.345372
C	-0.54525	-1.052606	0.94097
H	-1.638594	-1.053971	0.850351
H	-0.153598	-2.044913	0.709119
H	-0.283761	-0.806086	1.973497
C	-1.735999	-0.192582	-1.976424
H	-1.768278	-0.399357	-3.053113
H	-2.416413	-0.871361	-1.463075
H	-2.118873	0.811679	-1.80794
C	0.204176	-1.666066	-1.837285
N	0.551795	-2.750436	-2.124886
Cl	-4.375821	0.0	0.0
