11

C	0.0	0.0	0.0
C	-0.53854	-0.260513	-1.399356
F	1.384443	0.0	0.0
H	0.289441	-0.664328	-1.987954
H	-0.323055	-0.77771	0.695596
H	-0.343558	0.968299	0.363677
H	-1.335316	-1.007383	-1.334838
N	-1.003796	0.987683	-2.015036
H	-1.255128	0.780627	-2.976814
H	-1.883559	1.189117	-1.544909
Cl	-3.574247	0.0	0.0
