11

C	0.0	0.0	0.0
C	-0.459537	-0.130454	-1.426413
F	1.396344	0.0	0.0
H	-0.1606	-1.124865	-1.798211
H	-0.338503	0.946561	0.41984
H	-0.35205	-0.828593	0.614717
H	-1.549051	-0.070771	-1.415096
N	0.107512	0.971526	-2.211781
H	-0.247377	0.925783	-3.158212
H	1.112168	0.852624	-2.253372
Cl	-3.696491	0.0	0.0
