11

C	0.0	0.0	0.0
C	-0.477914	0.231259	-1.414559
F	1.394912	0.0	0.0
H	-0.025631	1.160616	-1.779565
H	-0.34126	-0.966004	0.376441
H	-0.341287	0.787953	0.673318
H	-1.560882	0.355388	-1.382682
N	-0.137188	-0.85071	-2.345054
H	0.807626	-1.159109	-2.145689
H	-0.755232	-1.630911	-2.151596
Cl	-3.669754	0.0	0.0
