14

C	0.0	0.0	0.0
C	-0.195112	0.169976	-1.514108
Br	1.944522	0.0	0.0
H	0.182142	1.15331	-1.784845
H	0.364877	-0.622478	-2.011097
N	-0.398929	1.187617	0.811897
O	-0.485352	1.020465	2.028904
O	-0.389583	2.278961	0.237362
C	-0.512541	-1.226911	0.558236
N	-0.604665	-2.327149	0.982855
N	-1.571916	0.078661	-2.092723
O	-2.134876	1.132788	-2.384874
O	-1.973821	-1.047751	-2.386326
H	-1.871916	0.0	0.0
