14

C	0.0	0.0	0.0
C	-0.196049	-0.03361	-1.523164
Br	1.943926	0.0	0.0
H	0.188678	0.901546	-1.924365
H	0.355702	-0.890102	-1.910089
N	-0.394801	1.283778	0.651144
O	-0.479698	1.275201	1.879781
O	-0.381658	2.292435	-0.059293
C	-0.505622	-1.143959	0.718613
N	-0.615143	-2.177705	1.283172
N	-1.577164	-0.191474	-2.080781
O	-2.135844	0.818307	-2.507249
O	-1.982814	-1.345119	-2.224431
H	-1.868601	0.0	0.0
