14

C	0.0	0.0	0.0
C	-0.202654	-0.150367	-1.516744
Br	1.942507	0.0	0.0
H	0.121544	0.776664	-1.982667
H	0.396902	-0.997033	-1.852536
N	-0.401761	1.328295	0.552291
O	-0.491124	1.410538	1.776883
O	-0.398242	2.282047	-0.230809
C	-0.509889	-1.086144	0.80079
N	-0.608778	-2.090755	1.41712
N	-1.574867	-0.432567	-2.042295
O	-1.936205	-1.608523	-2.032779
O	-2.174572	0.491673	-2.590398
H	-1.871943	0.0	0.0
