14

C	0.0	0.0	0.0
C	-0.37899	-0.034246	-1.501101
Br	1.935258	0.0	0.0
H	0.477914	0.291402	-2.099036
H	-1.241537	0.582043	-1.706514
N	-0.442164	1.327073	0.553286
O	-0.483292	1.439213	1.779405
O	-0.433368	2.270784	-0.249847
C	-0.501093	-1.062362	0.845775
N	-0.574981	-1.978607	1.589004
N	-0.699192	-1.403517	-1.982287
O	-1.61044	-1.500835	-2.804383
O	0.010171	-2.330009	-1.59847
H	-2.023917	0.0	0.0
