14
Coordinates from ORCA-job run
  C   0.71335556626368     -0.20706604758039     -0.61016298021499
  C   -0.81692156015231     -0.19786164148753     -0.51308599500003
  Br  1.19693842172294      0.70559411140403     -2.26137225343215
  H   -1.25120397731624     -0.67932813398754     -1.39200599874676
  H   1.02261538560183     -1.24439157615817     -0.74594104464075
  C   1.39283889883180      0.43239463088930      0.58375757130562
  H   1.09433389074718      1.47649503518104      0.69241510787480
  H   2.47564241717828      0.39241387808837      0.46177021404650
  H   1.13269428679716     -0.10423825163112      1.50038923461644
  C   -1.37228275230833      1.13644350823941     -0.33015748705245
  N   -1.80634646440762      2.22058154140090     -0.20834311152793
  N   -1.19025280595374     -1.08763967471850      0.66078466731897
  O   -1.60004283084559     -0.56195412248957      1.68795219344069
  O   -0.99236847615907     -2.28344325715025      0.47299988201203
