14
Coordinates from ORCA-job run
  C   0.62682169202890      0.43395626457885      0.24321871545069
  C   -0.66569985894898     -0.37704526956863      0.17379930231975
  Br  1.23254466907364      0.43895592110994      2.09538578872847
  H   -0.52125035863130     -1.38711371176576      0.56305577380503
  H   0.39425326047408      1.47219537259559      0.00243800929455
  C   1.70178907704044     -0.13308465188872     -0.66557594108807
  H   1.38021724610467     -0.07869111717950     -1.70888367482301
  H   1.91828561678628     -1.17338991617855     -0.41338426250579
  H   2.62146117588445      0.44251819959871     -0.55863334432641
  C   -1.17885150934230     -0.41722917710328     -1.19345627815557
  N   -1.55870781472451     -0.44745631966363     -2.30465838744168
  N   -1.72910257412349      0.25553568322226      1.04789040245137
  O   -1.96461708259338      1.43873601585435      0.83725616275672
  O   -2.25614353902850     -0.46988729361164      1.88154773353395
