14
Coordinates from ORCA-job run
  C   0.62880109392479      0.31988151678866     -0.51645544802630
  C   -0.75747989674424     -0.30975088921722     -0.31601410835742
  Br  0.54248500205618      2.24876498366231     -0.27130771279014
  H   -0.65684250766644     -1.39319797350144     -0.43448013157981
  H   0.87018439353159      0.17774609576639     -1.57269229843518
  C   1.71191246112523     -0.28257975890453      0.36076738927164
  H   1.54904678009916     -0.05705756824428      1.41362586542860
  H   2.68101595243668      0.12078952049026      0.06535428973294
  H   1.73194879033311     -1.36929051986256      0.23924828571308
  C   -1.74776898990348      0.19893723619974     -1.25640822631765
  N   -2.51211866086391      0.57396162244584     -2.06489985500983
  N   -1.24386364286379     -0.11954699630147      1.10339066237817
  O   -2.03778739090347      0.78527102140240      1.32407816520523
  O   -0.76053338456141     -0.89492829072411      1.92379312278667
