14
Coordinates from ORCA-job run
  C   0.59940446450535     -0.16148813025773     -0.73378298799068
  C   -0.89351960287523     -0.02630486183819     -0.41185096772897
  Br  0.96876152737632      0.98000915407378     -2.26804741278006
  H   -1.49112298396215     -0.30197483761934     -1.28354362961815
  H   0.76420449053438     -1.18269739587911     -1.08041459761532
  C   1.49821536422700      0.18943096757083      0.43457764470885
  H   1.29923552232282     -0.47620373915464      1.27910829250328
  H   2.54389797210955      0.07270779213623      0.14853673732637
  H   1.33940609490775      1.22024255444363      0.75590552939256
  C   -1.26099688309154      1.30063933076653      0.06416412500608
  N   -1.54670725027345      2.38183496540446      0.42201103318993
  N   -1.21444399510465     -1.07041331508631      0.64453926295335
  O   -1.18391671683843     -2.22754292173456      0.23880083922767
  O   -1.42441800383773     -0.69823956282558      1.79199613142506
