14
Coordinates from ORCA-job run
  C   0.59172883675353      0.42219383009838      0.33308507868917
  C   -0.67394064239116     -0.39457744134943      0.07948159055037
  Br  1.01003519889825      0.30641566955041      2.23288432328768
  H   -0.55227380736009     -1.42793267168771      0.41111805133144
  H   0.36718625341791      1.47219589751257      0.14035443921782
  C   1.76150666019468     -0.07049571902214     -0.49867125775079
  H   2.65471668417121      0.50898134353091     -0.26438808894422
  H   1.54355797531145      0.04746588231138     -1.56327982976424
  H   1.97232636886989     -1.12199536667098     -0.29260142240309
  C   -1.04785926421565     -0.34434088453325     -1.33189543322340
  N   -1.31447301325905     -0.30207835430388     -2.47514070154913
  N   -1.82864707640724      0.16584752477776      0.88410400157671
  O   -2.06531919553826      1.35711909367469      0.72691223085751
  O   -2.41854497844547     -0.61879880388876      1.61603701812416
