14
Coordinates from ORCA-job run
  C   0.69916141496635     -0.48289874996205     -0.45126969171196
  C   -0.82455830334963     -0.31190694583424     -0.43884177015507
  Br  1.28740402170748     -0.31108638585978     -2.29987010480573
  H   -1.29088400146516     -1.05873449682073     -1.08496254921762
  H   0.91133169336122     -1.51527236660424     -0.16994278696614
  C   1.41967399513491      0.50446576159685      0.44403034275164
  H   1.20668377317240      1.53233658412108      0.14644492118345
  H   2.49644066483861      0.34324577661046      0.38728009535868
  H   1.10958944903098      0.36851558590352      1.48356662662660
  C   -1.25523352335020      1.02964971925252     -0.80886906521461
  N   -1.58625920817391      2.10937684063036     -1.13047703904338
  N   -1.29529803443162     -0.64471002382987      0.96734400268610
  O   -1.66479679539826      0.26935029479153      1.69348520090977
  O   -1.21125514604314     -1.83233159399540      1.26208181759828
