14
Coordinates from ORCA-job run
  C   0.63304053388015      0.30891010836231     -0.51922006486330
  C   -0.77056019945491     -0.27871967365222     -0.31225665495440
  Br  0.61236619954799      2.23538144407150     -0.24081354357321
  H   -0.70683437452179     -1.36253008906358     -0.45125092055947
  H   0.85742257091428      0.17794716386543     -1.58060973812496
  C   1.70636044508091     -0.34308721927716      0.33432284721492
  H   1.68976225913985     -1.42758919949005      0.19403280384700
  H   1.56325686178771     -0.13076590760346      1.39277534835148
  H   2.68441851314354      0.03417323368012      0.03392374212495
  C   -1.75539453879099      0.27923353137771     -1.23012561379604
  N   -2.52406003509916      0.68499912411678     -2.01948620617770
  N   -1.23249506147221     -0.09913960313511      1.11679555634754
  O   -1.99106662314620      0.82859391782428      1.36491863036408
  O   -0.76621655100916     -0.90640683107653      1.91599381379912
