18
Coordinates from ORCA-job run
  C   -0.49102365787722      0.05569006759379     -0.49825953556487
  C   1.00633993709874      0.13533733972784     -0.15210586785588
  Cl  -0.62298428353281      0.83976106616349     -2.12880735432098
  H   1.57245531533682     -0.36843817743314     -0.94287495996724
  C   -0.94056328608400     -1.38803258079831     -0.65189836527812
  H   -0.94691436436408     -1.88701521372055      0.32003049548490
  H   -1.95365047923832     -1.41344667770103     -1.05603194354455
  H   -0.28227813471413     -1.94181565281052     -1.32332826298129
  C   -1.37890343484744      0.82421768787554      0.46435918025194
  H   -2.41293351596091      0.77204429313553      0.11837268636022
  H   -1.08392462714570      1.86935859943187      0.54065124715026
  H   -1.31054977371444      0.38291337900150      1.45961632228908
  N   1.25372038923778     -0.76450381362149      1.05161850245563
  O   0.92758922179749     -0.36147710428598      2.16210674576389
  O   1.74845049377900     -1.86389160847704      0.80074666535889
  N   1.42587099224226      1.46146089500291      0.17434039279064
  H   1.05556320982008      2.11548583167970     -0.50307644644859
  H   2.43573599816689      1.53135166923588      0.16454049805606
