18
Coordinates from ORCA-job run
  C   -0.53338711991637      0.11724201332052     -0.22892758182656
  C   0.94674689675119     -0.03678421793650      0.19653403541599
  Cl  -0.78226974505128      1.75385147575482     -0.93912416318678
  H   1.07732300592521     -1.07196420210811      0.51947516157027
  C   -0.82449863464022     -0.90277418229420     -1.32055145112017
  H   -1.85197265674644     -0.79023539244183     -1.66970507782131
  H   -0.16099550327215     -0.76882017102882     -2.17585175586636
  H   -0.70124303755969     -1.91606206180742     -0.92581404660574
  C   -1.49356102440290     -0.04003459050201      0.93893424196166
  H   -1.31815768419867     -0.99335470722339      1.44458639596732
  H   -1.37509106678210      0.76081529552279      1.66854800958865
  H   -2.52108601698513     -0.01720998049394      0.57164855185843
  N   1.18040148093331      0.76795776334395      1.45178532950441
  O   1.46893827307802      1.95061761045370      1.30981180287879
  O   1.02890712111978      0.18118094013666      2.52266110192340
  N   1.96538768056380      0.30165305802375     -0.74103110329832
  H   2.14114652178794     -0.45201117207691     -1.38815566653656
  H   1.75141150939571      1.15693252135695     -1.23582378440712
