18
Coordinates from ORCA-job run
  C   -0.54537726017739     -0.47886515442536     -0.04229691745638
  C   0.95871178657971     -0.15901445672465     -0.09138520191195
  Cl  -0.73103045547050     -2.10264413862991      0.71287286071699
  H   1.46253605018782     -0.91550062502154     -0.69468600996533
  C   -1.36183461837674      0.51614382510911      0.76639750362553
  H   -2.40874507686693      0.20827514645967      0.75443415435978
  H   -1.02771190394992      0.57157417368511      1.80112768091504
  H   -1.29799687851303      1.50865504886144      0.31303469791991
  C   -1.05535383679181     -0.57253881395280     -1.47356056340486
  H   -2.10931613350829     -0.85614486643886     -1.46984244382073
  H   -0.93903431208732      0.39235885102279     -1.96796907038183
  H   -0.50061860616199     -1.32739648816738     -2.03493642462913
  N   1.59551708749821     -0.31952347415174      1.28692014945059
  O   1.38424006999295      0.58280870755612      2.09745119138153
  O   2.29393118000778     -1.30959453388534      1.47952571591981
  N   1.18238915449200      1.14639005303940     -0.62291932614802
  H   2.15353319828615      1.26588296111963     -0.88229880071108
  H   0.94516055485928      1.84813378454431      0.06813080414015
