18
Coordinates from ORCA-job run
  C   -0.55056425028482     -0.47255103765834     -0.04925688403460
  C   0.95805213689140     -0.17138562832449     -0.07037049011372
  Cl  -0.77214945981460     -2.08689166868800      0.71595704738475
  H   1.46477980282195     -0.93835803356637     -0.65783991926411
  C   -1.37050803328395      0.54000574240063      0.73390534890813
  H   -1.28500696493106      1.52727395786356      0.27276726794788
  H   -2.42079022393152      0.24517651807251      0.70369842091043
  H   -1.05621642061170      0.60069662402408      1.77453461310880
  C   -1.03242868166732     -0.57264128656612     -1.48978922240633
  H   -0.47696067290296     -1.34022831698480     -2.03285310345904
  H   -2.09016950077952     -0.84143886619219     -1.50522130068254
  H   -0.89282034967653      0.38594141696425     -1.99045581667490
  N   1.56484041224424     -0.32887837997686      1.32161722604017
  O   2.24621952974203     -1.32627269192666      1.53619657838439
  O   1.34875702465336      0.58254508136833      2.12066353339453
  N   1.20871067125440      1.12678983253805     -0.60732978764302
  H   0.96731940416838      1.83732229307017      0.07317973239922
  H   2.18593557610820      1.23189444358225     -0.84940324420003
