18
Coordinates from ORCA-job run
  C   -0.54676523487682      0.05071343903219     -0.53549821617784
  C   0.97737533004637      0.17142170617376     -0.32839675817295
  Cl  -0.84473372606319      0.71470470284129     -2.18470304823326
  H   1.48979481065223     -0.24633483708794     -1.19502793226783
  C   -1.00213782409872     -1.40084865879892     -0.53675484486895
  H   -0.92766823837484     -1.82728559913533      0.46659988356895
  H   -2.04505246152624     -1.45129590152375     -0.85247944609612
  H   -0.40333445601762     -2.00689783852854     -1.21840440853182
  C   -1.34171380249479      0.88596652253003      0.45354442035083
  H   -2.40804170961227      0.76504721552683      0.25580631934584
  H   -1.13568508634052      0.55775048212674      1.47523550170854
  H   -1.09738700497198      1.94341124840050      0.35328681737158
  N   1.36013162523084     -0.78280528148871      0.80937554995661
  O   1.79513053284184     -1.88863383350750      0.49827468649075
  O   1.18879522452253     -0.37592217742218      1.95857501715002
  N   1.40289615221661      1.50103793866232     -0.08309963452557
  H   1.13172060696410      1.80174165561950      0.84433719725898
  H   2.40567526190246      1.58922921657969     -0.17967110432775
