18
Coordinates from ORCA-job run
  C   -0.53582337733043      0.05504229687678     -0.54580219386098
  C   0.98301783988842      0.18043907245507     -0.30602384506392
  Cl  -0.80375214843071      0.73977438668380     -2.19158666155600
  H   1.51482450703051     -0.22380793184096     -1.16736134079518
  C   -0.98305868675986     -1.39876778917290     -0.57581296222956
  H   -0.92740535064716     -1.83830568137019      0.42310461900168
  H   -2.01883261748618     -1.45036211265846     -0.91408123379613
  H   -0.36671267132542     -1.99255690294032     -1.25259087296652
  C   -1.35532938145898      0.87257436124862      0.43797177024465
  H   -2.41670296472676      0.74827032775811      0.21695665964049
  H   -1.11550950639508      1.93269157117472      0.35664261769546
  H   -1.16807816021433      0.53220764787610      1.45927101133161
  N   1.34750505226495     -0.78644688465521      0.82703695958519
  O   1.79451687298036     -1.88585825684072      0.51042802781040
  O   1.15083383996110     -0.39552846241342      1.97759641247026
  N   1.39671535838560      1.50878124883653     -0.03546153220701
  H   1.10511119879633      1.79730166203972      0.88959911518943
  H   2.40068019546764      1.60355144694272     -0.11088655049387
