18
Coordinates from ORCA-job run
  C   -0.50617461113273     -0.46679403032330     -0.05496750425436
  C   1.01947558059929     -0.22902035432095      0.01915631995025
  Cl  -0.80715800561102     -2.15138652690537      0.50904567443820
  H   1.51806648597916     -1.04151947209496     -0.51131991787348
  C   -1.34138532093863      0.47196727887252      0.80022104829541
  H   -2.39909048545862      0.26209261469742      0.63005133920899
  H   -1.15399836778728      1.51309236235823      0.52406754158008
  H   -1.13027713471770      0.35325088447929      1.86109510423052
  C   -0.92908649327245     -0.39389424495799     -1.51673313666835
  H   -0.84585595571100      0.63067502361048     -1.88679993730207
  H   -0.31711573714344     -1.05237772610141     -2.13804306980372
  H   -1.96971822070619     -0.70666810703614     -1.61423382891084
  N   1.50212455725769     -0.34690936122466      1.44034271552978
  O   1.26730234071458      0.61434828882930      2.17065024396976
  O   2.09067865105277     -1.37290182905114      1.76378747655785
  N   1.50660189324756      1.02990597123065     -0.46540624159096
  H   1.01540586206947      1.81273994135357     -0.05663963710517
  H   1.47920496155851      1.07539928658444     -1.47327419025186
