18
Coordinates from ORCA-job run
  C   -0.52389608928334     -0.49945551074687     -0.06431207573926
  C   0.96492546578653     -0.11492757122158     -0.09702206737605
  Cl  -0.64101886924625     -2.16022776364491      0.62072031643845
  H   1.50096406571835     -0.82396622989880     -0.72954677591005
  C   -1.37986970702226      0.42538006955603      0.78561458433614
  H   -2.41332979591984      0.07591390584403      0.75885053545120
  H   -1.04777099440612      0.44945972178116      1.82237428295869
  H   -1.35668624055995      1.43852583613558      0.37603193290009
  C   -1.03008636392994     -0.55268536455469     -1.49909409922590
  H   -2.07095308988399     -0.88088698742238     -1.50904688150903
  H   -0.44385821932854     -1.25815544061188     -2.09182279526481
  H   -0.95537256721807      0.43677382307393     -1.95122970082454
  N   1.60548232321085     -0.30508083054146      1.27568712359416
  O   1.35049969860893      0.55089413247325      2.12314113438910
  O   2.34257376064062     -1.27340896916611      1.43104160267251
  N   1.13338790458954      1.21960133826533     -0.57341247407328
  H   0.86637961789057      1.88146114046505      0.14560596544189
  H   2.09862910035285      1.39078470021424     -0.82558060825922
