18
Coordinates from ORCA-job run
  C   -0.54737551198626     -0.47838034156488     -0.00810195721728
  C   0.95684209713702     -0.16647270677082     -0.09320080062611
  Cl  -0.72869182343473     -2.05399654384612      0.84379200181145
  H   1.45167839066774     -0.95691331366663     -0.65931248332672
  C   -1.35183863196923      0.56556843959717      0.74940839553862
  H   -1.00260437864914      0.68453968357316      1.77374189967763
  H   -2.39886772077270      0.25875525257322      0.77170844992583
  H   -1.29430751936321      1.52794630405077      0.23441680931068
  C   -1.07393621784297     -0.65483256000994     -1.42548792839677
  H   -2.13002346009943     -0.92861469194925     -1.39347328293713
  H   -0.95560850855882      0.27724207101671     -1.97890790300969
  H   -0.53131881881847     -1.44730423728205     -1.94529343142515
  N   1.61048021100707     -0.25235712640098      1.28416946731606
  O   1.41353302346416      0.69532992218034      2.04502651658130
  O   2.31075962777302     -1.23124549200797      1.52181416874679
  N   1.17721108545717      1.10656591144880     -0.69894416073404
  H   0.94993141055659      1.84645622950997     -0.04539445787992
  H   2.14513674543214      1.20871319954849     -0.97696130335552
