18
Coordinates from ORCA-job run
  C   0.73931846423912     -0.00744515231023      0.31796919544346
  C   -0.79459713310113     -0.07717287084409      0.24865322761946
  Br  1.18841445925675      1.01542098945786      2.04040174822410
  H   -1.13223604852193     -0.49319524427536      1.20307406371994
  C   1.38122749013510     -1.37041275751342      0.49295209020922
  H   0.94901593302791     -1.88571726018509      1.35069525551910
  H   2.45578432094854     -1.26512607955578      0.65957368188820
  H   1.19692095905760     -1.96419744904514     -0.40158437145064
  N   1.25888457790275      0.64645421159473     -0.82623325783704
  H   2.26835860193144      0.58127222277055     -0.86576809680928
  H   0.99371152290578      1.62206216672328     -0.86488198601984
  N   -1.12103007141234     -1.05616918218172     -0.79165802776543
  H   -2.12485371797726     -1.19508577257208     -0.81626271815952
  H   -0.83815244899341     -0.67628112442200     -1.68893829575038
  C   -1.46488036942550      1.28012113006045      0.03374113391285
  H   -2.55023731032359      1.15663813093932      0.07882916866162
  H   -1.22789962356164      1.67306792602237     -0.95940522301548
  H   -1.17774960608819      2.01376611533635      0.78884241160967
