18
Coordinates from ORCA-job run
  C   0.78985395798922     -0.00224568971277      0.40681486458289
  C   -0.74693431743167     -0.01828916338441      0.21994430497485
  Br  1.16639987155469      0.83075774846130      2.15623731449958
  H   -1.17867828986243     -0.51197978377586      1.10306026234823
  C   1.35200562391036     -1.41351369019096      0.45258706064291
  H   2.41214052411778     -1.37504612456769      0.70013568192879
  H   0.83053066591400     -2.02475169737327      1.19330166441527
  H   1.24881929883697     -1.87133655191812     -0.53475129948247
  N   1.51435502717017      0.75182830652588     -0.59421366310627
  H   1.19395311128511      0.40942188525547     -1.49725538280797
  H   1.28010017477357      1.73603742873943     -0.53242300778479
  N   -0.99971748322605     -0.75901004117528     -1.02364802768681
  H   -1.90189844096125     -0.49623710451900     -1.40212551656474
  H   -1.03053015844689     -1.75490734858473     -0.84290539213127
  C   -1.35849879467622      1.36647206894580      0.08100799518717
  H   -2.44896385775294      1.28914711123539      0.05034300520767
  H   -1.09152298328780      2.01343267192702      0.91579535184845
  H   -1.03041392990661      1.83121997411184     -0.85190521607149
