18
Coordinates from ORCA-job run
  C   0.76789439776023     -0.09903320682341      0.49507688822738
  C   -0.75415941157521      0.13185575100083      0.39453939985502
  Br  1.05762712976830     -1.03162708485205      2.24787954866777
  H   -1.01697190035924      0.75601804241923      1.26687993217274
  C   1.31863310524431     -1.00054450775967     -0.59108999253581
  H   2.37254424650604     -1.20321059680023     -0.39965092906297
  H   0.75827878328009     -1.93182250040320     -0.63372947840816
  H   1.23183215110872     -0.49968510287227     -1.56110241786721
  N   1.54490588515698      1.10639614538305      0.56750378161779
  H   1.10448941661615      1.80456127758387      1.15492930119214
  H   1.70470317052189      1.48475699032194     -0.35751860111239
  N   -1.46888364199342     -1.13884097976738      0.36679506343297
  H   -1.36795459436109     -1.60782612245346      1.25920605272672
  H   -2.45646917542963     -0.96592854322137      0.21955244919890
  C   -1.11663187414789      0.90416319943511     -0.87038170866256
  H   -2.18185650395279      1.15223257890628     -0.85383499525702
  H   -0.56661012758695      1.84280849666727     -0.94815162967334
  H   -0.93137105655649      0.29672616323546     -1.75790266451196
