18
Coordinates from ORCA-job run
  C   0.69214735931505     -0.03816961861585      0.52611366520672
  C   -0.82740726817134      0.13444500074586      0.37509685249941
  Br  1.00543266730202     -0.85450733352996      2.30886750720512
  H   -1.13941386039385      0.72151177477606      1.25126461396476
  C   1.30974888801448     -0.97349315686671     -0.50211244791657
  H   2.37582435594837     -1.09805561147973     -0.30140133328385
  H   0.81936898961960     -1.94527432502632     -0.50329161167411
  H   1.19794741455597     -0.53130346411394     -1.49748308361277
  N   1.30636396473388      1.28038945063827      0.59557299539799
  H   1.38131004731236      1.64475770455931     -0.34992807781232
  H   2.25055349111257      1.19479563153911      0.95564688304956
  N   -1.47219564713019     -1.17242142570015      0.28620448259991
  H   -2.46328347372015     -1.04320885464387      0.11903099063408
  H   -1.37779381918597     -1.65758705636545      1.17152962662070
  C   -1.18027839216562      0.93357396273230     -0.87563577712490
  H   -0.75200058251204      1.93596635027632     -0.84390285940718
  H   -2.26622712733276      1.05254514935278     -0.93203661037413
  H   -0.86009700730236      0.41503582172195     -1.78153581597244
