18
Coordinates from ORCA-job run
  C   0.66793159562649      0.06401617940338      0.38215096100954
  C   -0.87139041155836      0.01405364046000      0.21844605701940
  Br  1.09269879309535      1.10341097593393      2.00969002290061
  H   -1.26209470322157     -0.47425790592239      1.11907677888248
  C   1.26472410707045     -1.32164523560892      0.61621256697858
  H   2.33381698980552     -1.24410285658757      0.82287257949205
  H   0.78721285337563     -1.82850272103496      1.45815979077318
  H   1.14403286279084     -1.93386220178492     -0.28281995122620
  N   1.26042239165744      0.78240203853037     -0.73273754067009
  H   2.25511630704524      0.90253134578977     -0.57658215792581
  H   1.15016400119005      0.21518240373441     -1.56787865283229
  N   -1.29730806912713     -0.78982753114075     -0.92479978349786
  H   -0.89982809755788     -1.71887080673036     -0.92748267334126
  H   -1.08841345490098     -0.32554158770595     -1.79971256993054
  C   -1.51227753478770      1.38696730822340      0.07788059311766
  H   -1.36431759351918      1.99587778501527      0.96785935003118
  H   -1.07911541010643      1.91974486932728     -0.77082214196022
  H   -2.58237462687777      1.25342430009803     -0.08851322882040
