19

C	-0.363832	-0.0885	-1.479937
C	0.0	0.0	0.0
F	-0.068394	-1.440592	-1.875198
H	1.097465	0.0	0.0
C	-1.831665	0.08591	-1.802233
H	-2.148977	1.110718	-1.605672
H	-2.00443	-0.142781	-2.858232
H	-2.41349	-0.603581	-1.189364
N	0.45865	0.819589	-2.196639
H	0.377509	0.655421	-3.192539
H	1.429929	0.693539	-1.914955
N	-0.579292	-1.143059	0.717605
H	-0.160856	-1.976757	0.320528
H	-0.237519	-1.089471	1.671253
C	-0.48344	1.295034	0.631045
H	-0.041677	1.402588	1.62609
H	-0.17157	2.151726	0.032341
H	-1.57208	1.292543	0.737328
Cl	3.560131	0.0	0.0
