19

C	-0.40304	-0.031909	-1.478599
C	0.0	0.0	0.0
F	-0.034196	1.217847	-2.045898
H	1.0957	0.0	0.0
C	0.36418	-1.080805	-2.253015
H	0.083749	-2.081339	-1.923472
H	0.147552	-0.984348	-3.321796
H	1.43205	-0.929322	-2.084606
N	-1.820703	-0.210116	-1.628348
H	-2.049551	-0.243035	-2.615557
H	-2.294919	0.59166	-1.228443
N	-0.431206	-1.216095	0.700321
H	-1.278641	-1.564741	0.265223
H	0.291145	-1.920079	0.608471
C	-0.530231	1.227985	0.72558
H	-0.091948	1.247693	1.724106
H	-1.619429	1.177685	0.847286
H	-0.263244	2.147452	0.202987
Cl	3.574293	0.0	0.0
