19

C	-0.492525	-0.026326	-1.456751
C	0.0	0.0	0.0
F	-0.316442	1.256128	-1.991548
H	1.096048	0.0	0.0
C	0.329606	-0.988779	-2.281429
H	0.00184	-0.934749	-3.32151
H	1.387407	-0.731153	-2.191754
H	0.18464	-2.006157	-1.911612
N	-1.910658	-0.317427	-1.60306
H	-2.426735	0.44665	-1.176237
H	-2.071307	-1.142101	-1.028947
N	-0.43826	-1.273835	0.622654
H	0.394171	-1.776326	0.911934
H	-0.970953	-1.075238	1.461311
C	-0.507635	1.203585	0.774049
H	-1.599613	1.17809	0.881604
H	-0.065056	1.206036	1.773377
H	-0.22823	2.131555	0.276776
Cl	3.544855	0.0	0.0
