18

C	-0.449267	0.090641	-1.460731
C	0.0	0.0	0.0
Cl	0.136669	-1.465079	-2.287531
H	1.094521	0.0	0.0
N	-1.869771	0.208246	-1.5793
H	-2.315045	-0.587331	-1.133456
H	-2.131751	0.207058	-2.559591
C	0.264778	1.223547	-2.172591
H	-0.117353	2.179678	-1.806567
H	1.336251	1.145295	-1.964658
H	0.087276	1.165648	-3.250152
C	-0.554509	-1.182132	0.638846
N	-1.050852	-2.111443	1.16323
C	-0.38457	1.251298	0.800253
H	0.21003	2.094982	0.446557
H	-1.447361	1.487703	0.726555
H	-0.117513	1.092989	1.847733
H	2.778685	0.0	0.0
