18

C	-0.457799	0.066516	-1.458514
C	0.0	0.0	0.0
Cl	0.137035	-1.495845	-2.270101
H	1.094482	0.0	0.0
N	-1.881063	0.168251	-1.567574
H	-2.314938	-0.625215	-1.107253
H	-2.151135	0.149709	-2.544634
C	0.238565	1.197206	-2.190828
H	1.311496	1.13403	-1.991063
H	-0.152256	2.152949	-1.834996
H	0.054241	1.122795	-3.266144
C	-0.547765	-1.176084	0.656681
N	-1.037591	-2.10061	1.195172
C	-0.386077	1.259233	0.787323
H	-1.451689	1.486942	0.719341
H	-0.108688	1.115388	1.834342
H	0.198698	2.103514	0.418105
H	2.778478	0.0	0.0
