18

C	-0.212957	0.036502	-1.519572
C	0.0	0.0	0.0
Cl	-1.989421	0.293736	-1.925817
H	1.099055	0.0	0.0
N	0.531436	1.116711	-2.135566
H	1.492639	0.995403	-1.790713
H	0.197696	2.00102	-1.766937
C	0.238122	-1.265375	-2.147432
H	-0.354485	-2.109592	-1.791977
H	0.158825	-1.184095	-3.232233
H	1.287052	-1.411752	-1.861209
C	-0.518757	-1.205326	0.617527
N	-0.938877	-2.169619	1.145322
C	-0.448694	1.238666	0.767001
H	0.073611	2.11956	0.387315
H	-1.527972	1.397965	0.701907
H	-0.166045	1.130826	1.816564
H	2.740007	0.0	0.0
