18

C	-0.360323	-0.01781	-1.473061
C	0.0	0.0	0.0
Cl	-2.275206	-0.352763	-1.637921
H	1.097274	0.0	0.0
N	-0.059962	1.210528	-2.086814
H	-0.558566	1.980858	-1.664234
H	-0.259555	1.180614	-3.077633
C	0.321789	-1.162209	-2.181412
H	0.112661	-1.138047	-3.254763
H	1.396292	-1.04119	-1.990193
H	-0.012726	-2.118633	-1.78087
C	-0.436283	-1.216121	0.665785
N	-0.762716	-2.186019	1.244998
C	-0.45019	1.240158	0.7639
H	0.116198	2.103756	0.405763
H	-1.525465	1.42009	0.666957
H	-0.207281	1.119822	1.821639
H	2.727803	0.0	0.0
