18

C	-0.338086	-0.04694	-1.511981
C	0.0	0.0	0.0
Cl	-0.011248	1.606192	-2.194385
H	1.097027	0.0	0.0
N	0.547641	-0.95902	-2.201924
H	1.493437	-0.788589	-1.838416
H	0.293195	-1.902479	-1.920732
C	-1.785481	-0.373229	-1.833637
H	-2.03435	-1.367844	-1.454695
H	-1.924461	-0.357509	-2.915706
H	-2.458459	0.353363	-1.375861
C	-0.421658	-1.270753	0.573073
N	-0.766319	-2.297502	1.034139
C	-0.523681	1.166449	0.829866
H	-0.230181	1.021594	1.872198
H	-0.067384	2.091613	0.481215
H	-1.612397	1.264141	0.78567
H	2.78327	0.0	0.0
