14

C	0.0	0.0	0.0
C	-0.55475	0.090618	-1.425075
Br	1.94293	0.0	0.0
H	0.174864	0.616844	-2.041694
H	-1.470922	0.676004	-1.353258
N	-0.348029	1.270482	0.788614
O	-0.484607	1.164922	1.997159
O	-0.370161	2.303354	0.133837
C	-0.420796	-1.172479	0.754373
N	-0.613281	-2.14297	1.388792
N	-0.7786	-1.259486	-1.923257
H	-1.693658	-1.530381	-1.565613
H	-0.859557	-1.220709	-2.931999
Cl	-3.353137	0.0	0.0
