14

C	0.0	0.0	0.0
C	-0.474252	-0.136452	-1.48429
Br	1.94032	0.0	0.0
H	0.213501	0.484602	-2.062518
H	-0.280422	-1.182441	-1.747297
N	-0.421088	1.362669	0.545983
O	-0.232018	2.308514	-0.208004
O	-0.886574	1.402611	1.675357
C	-0.464166	-1.058303	0.87831
N	-0.760202	-1.99184	1.52889
N	-1.812369	0.230237	-1.793416
H	-2.551721	-0.204094	-1.234497
H	-1.946493	1.228126	-1.708495
Cl	-4.40501	0.0	0.0
