12

C	0.0	0.0	0.0
C	-0.216867	0.228868	-1.539667
Br	1.962989	0.0	0.0
H	0.202595	1.219111	-1.742921
H	0.443185	-0.492952	-2.028028
C	-0.422313	1.108837	0.851087
N	-0.50243	2.049169	1.554094
C	-0.420045	-1.318238	0.468677
N	-0.477406	-2.438743	0.824273
C	-1.491736	0.132735	-2.259299
N	-2.137067	0.073119	-3.24578
Br	-3.109102	0.0	0.0
