12

C	0.0	0.0	0.0
C	-0.498901	-0.273291	-1.432327
Br	1.95993	0.0	0.0
H	-1.602124	-0.274159	-1.358836
H	-0.175973	0.552143	-2.072958
C	-0.412305	1.331838	0.444481
N	-0.563659	2.452013	0.766976
C	-0.400466	-1.044493	0.945106
N	-0.594281	-1.882022	1.747573
C	-0.003939	-1.536615	-1.958105
N	0.382624	-2.552835	-2.401797
Br	-3.473786	0.0	0.0
