12

C	0.0	0.0	0.0
C	-0.446281	-0.27235	-1.451213
Br	1.959893	0.0	0.0
H	-1.548031	-0.231807	-1.437804
H	-0.050152	0.531348	-2.079458
C	-0.43189	1.328037	0.433612
N	-0.64981	2.426062	0.791393
C	-0.394492	-1.049516	0.939044
N	-0.503279	-1.932555	1.70878
C	0.026041	-1.559648	-1.94028
N	0.402349	-2.586448	-2.366147
Br	-3.403914	0.0	0.0
