12

C	0.0	0.0	0.0
C	-0.211146	0.217329	-1.543943
Br	1.96283	0.0	0.0
H	0.457612	-0.501597	-2.023241
H	0.205898	1.209159	-1.751006
C	-0.432315	1.112635	0.837472
N	-0.513933	2.076461	1.509453
C	-0.417204	-1.315538	0.476702
N	-0.491436	-2.427338	0.855719
C	-1.479032	0.111572	-2.271549
N	-2.13562	0.06353	-3.250778
Br	-3.106079	0.0	0.0
