12

C	0.0	0.0	0.0
C	-0.246047	-0.318118	-1.521123
Br	1.963163	0.0	0.0
H	0.543686	0.214685	-2.056647
H	-0.046676	-1.387261	-1.643347
C	-0.407299	1.351337	0.378716
N	-0.468955	2.494346	0.654845
C	-0.429834	-1.043867	0.925318
N	-0.500479	-1.945699	1.679268
C	-1.462635	0.030898	-2.259581
N	-2.079146	0.283696	-3.232644
Br	-3.101089	0.0	0.0
