18

C	0.0	0.0	0.0
C	-0.290504	0.396234	-1.496856
Cl	1.776415	0.0	0.0
H	0.440025	-0.170901	-2.080302
C	-0.674611	0.840747	1.031505
H	-0.378458	0.532224	2.033779
H	-0.412547	1.888365	0.87567
H	-1.764549	0.659163	0.85137
N	-0.383127	-1.467749	0.188325
O	-0.30274	-2.19648	-0.795458
O	-0.663207	-1.83318	1.32171
C	0.085469	1.807008	-1.637432
N	0.367531	2.938928	-1.778555
C	-1.666582	0.165496	-2.127739
H	-2.479077	0.471608	-1.449171
H	-1.80202	-0.906069	-2.276581
H	-1.666835	0.665015	-3.102373
F	-3.163492	0.0	0.0
