18

C	0.0	0.0	0.0
C	-0.505849	0.019774	-1.473261
Cl	1.768651	0.0	0.0
H	0.375461	0.283155	-2.072152
C	-0.381234	1.257464	0.770608
H	0.099566	1.24998	1.748108
H	-1.468219	1.244715	0.842724
H	-0.02557	2.123051	0.207714
N	-0.391242	-1.225548	0.814875
O	-0.68961	-1.050176	1.987512
O	-0.259353	-2.32397	0.283096
C	-1.453458	1.11944	-1.710228
N	-1.987749	2.057859	-2.177069
C	-1.093284	-1.262712	-2.068263
H	-1.397191	-1.040425	-3.095262
H	-1.96715	-1.522409	-1.475326
H	-0.360402	-2.069287	-2.079337
F	-2.564466	0.0	0.0
