18

C	0.0	0.0	0.0
C	-0.424674	-0.072194	-1.487749
Cl	1.778852	0.0	0.0
H	-0.007195	0.86522	-1.883279
C	-0.408731	1.290492	0.687097
H	-1.49634	1.28122	0.733151
H	-0.036679	2.124595	0.087034
H	0.042748	1.338993	1.677391
N	-0.438813	-1.194732	0.819808
O	-0.616127	-2.254752	0.233792
O	-0.499643	-1.040959	2.03348
C	-1.878379	-0.015882	-1.81178
N	-2.635764	0.015242	-2.725586
C	0.181468	-1.197536	-2.344422
H	-0.057264	-0.971758	-3.385416
H	-0.264	-2.156023	-2.091172
H	1.265095	-1.26184	-2.234996
F	-2.587461	0.0	0.0
