18

C	0.0	0.0	0.0
C	-0.624584	0.003675	-1.391025
Cl	1.761155	0.0	0.0
H	-1.696844	-0.246304	-1.114211
C	-0.504674	1.129951	0.870084
H	-0.131008	0.996852	1.883901
H	-0.137853	2.079682	0.478157
H	-1.600538	1.044845	0.818457
N	-0.378477	-1.32907	0.687965
O	-0.648024	-2.282231	-0.030083
O	-0.318873	-1.360244	1.91156
C	-0.008976	-0.942197	-2.30977
N	0.463598	-1.633466	-3.135787
C	-0.640617	1.400913	-2.015655
H	-1.362005	2.010902	-1.47236
H	-0.972943	1.327442	-3.053677
H	0.345382	1.877506	-2.00487
F	-2.860334	0.0	0.0
