18

C	0.0	0.0	0.0
C	-0.298484	-0.020193	-1.544921
Cl	1.776487	0.0	0.0
H	0.439124	-0.710993	-1.963038
C	-0.681366	1.083793	0.767446
H	-1.769925	0.858025	0.641644
H	-0.389043	1.056087	1.816536
H	-0.425955	2.053343	0.336905
N	-0.377278	-1.367239	0.575125
O	-0.6785	-1.41419	1.760607
O	-0.276062	-2.334444	-0.173335
C	0.056897	1.30792	-2.057303
N	0.32789	2.360507	-2.504068
C	-1.67559	-0.430224	-2.073765
H	-1.692116	-0.212719	-3.147057
H	-1.790596	-1.505002	-1.932555
H	-2.492951	0.032009	-1.49679
F	-3.200843	0.0	0.0
