18

C	0.0	0.0	0.0
C	-0.414644	-0.017541	-1.522854
Cl	1.794117	0.0	0.0
H	0.069499	-0.883765	-1.978534
C	-0.360524	1.315846	0.80852
H	0.038613	2.184289	0.302916
H	-0.015202	1.213776	1.829975
H	-1.446382	1.422909	0.846399
N	-0.443679	-1.280808	0.943363
O	0.364797	-1.56748	1.81977
O	-1.609366	-1.695076	1.039525
C	0.118552	1.094388	-2.324846
N	0.274463	1.475649	-3.447892
C	-1.967489	-0.096579	-1.907519
H	-2.104481	-0.047626	-2.973404
H	-2.519194	0.707665	-1.411118
H	-2.346645	-1.042139	-1.493184
F	-1.835022	0.0	0.0
