18

C	0.0	0.0	0.0
C	-0.280142	-0.023556	-1.550029
Cl	1.794147	0.0	0.0
H	0.467476	-0.708518	-1.95664
C	-0.656731	1.09661	0.768512
H	-0.35881	1.060898	1.815746
H	-0.382114	2.060596	0.337381
H	-1.748146	0.882885	0.64328
N	-0.373454	-1.356379	0.588662
O	-0.341612	-2.323864	-0.16507
O	-0.588256	-1.400782	1.79233
C	0.076131	1.305952	-2.057002
N	0.338222	2.360375	-2.503214
C	-1.641562	-0.438655	-2.118122
H	-1.654632	-0.166007	-3.177918
H	-2.463822	-0.008388	-1.526519
H	-1.735327	-1.520054	-2.028544
F	-3.111574	0.0	0.0
