18

C	0.0	0.0	0.0
C	-0.609889	-0.218406	-1.379172
Cl	1.796892	0.0	0.0
H	-1.677528	-0.438455	-1.071718
C	-0.48662	1.25795	0.678921
H	-0.125473	2.12849	0.130048
H	-1.582558	1.170577	0.654902
H	-0.099854	1.293243	1.695196
N	-0.36931	-1.202064	0.884983
O	-0.37448	-1.02748	2.097596
O	-0.570504	-2.271366	0.324844
C	0.032982	-1.279221	-2.139822
N	0.547987	-2.063771	-2.848117
C	-0.647111	1.06721	-2.208575
H	0.32963	1.558316	-2.265939
H	-0.971344	0.82985	-3.224479
H	-1.384866	1.735174	-1.764869
F	-2.834308	0.0	0.0
