15

C	0.0	0.0	0.0
C	-0.446123	-0.198463	-1.470363
Cl	1.789403	0.0	0.0
H	0.151297	0.499732	-2.070447
C	-0.432835	1.315059	0.474735
N	-0.595882	2.405932	0.879901
C	-0.396101	-1.124925	0.957964
H	-0.000774	-0.897238	1.950421
H	0.052376	-2.058211	0.611202
H	-1.482232	-1.167337	0.963523
C	-1.873297	0.065915	-1.820754
N	-2.597428	0.25421	-2.740285
C	-0.081164	-1.547078	-1.922296
N	0.222353	-2.619224	-2.293551
F	-2.560493	0.0	0.0
