15

C	0.0	0.0	0.0
C	-0.452451	0.212158	-1.462137
Cl	1.789506	0.0	0.0
H	0.193323	-0.441717	-2.063424
C	-0.444117	1.057887	0.905911
N	-0.589973	1.907631	1.7044
C	-0.390439	-1.392872	0.500658
H	0.063366	-1.56303	1.479047
H	-1.47651	-1.418787	0.551125
H	0.002605	-2.135882	-0.197887
C	-0.171716	1.581599	-1.907015
N	0.078205	2.661128	-2.297752
C	-1.853861	-0.163634	-1.809227
N	-2.56378	-0.493791	-2.700163
F	-2.554484	0.0	0.0
