15

C	0.0	0.0	0.0
C	-0.494613	0.206078	-1.453088
Cl	1.789693	0.0	0.0
H	0.259548	-0.255945	-2.102047
C	-0.439038	1.045467	0.921848
N	-0.595966	1.888379	1.725615
C	-0.369426	-1.398005	0.514705
H	0.11448	-1.561115	1.479823
H	-1.452941	-1.432047	0.592888
H	0.006041	-2.143638	-0.191846
C	-0.529265	1.627216	-1.808312
N	-0.508084	2.756457	-2.131897
C	-1.785208	-0.455525	-1.777628
N	-2.413124	-1.077551	-2.56623
F	-2.533326	0.0	0.0
