15

C	0.0	0.0	0.0
C	-0.470179	0.402227	-1.416411
Cl	1.789638	0.0	0.0
H	0.229422	-0.087956	-2.108429
C	-0.446712	0.916379	1.046391
N	-0.59787	1.646313	1.956397
C	-0.386102	-1.451308	0.307562
H	-1.471917	-1.482912	0.360491
H	0.004096	-2.094837	-0.485199
H	0.071329	-1.748554	1.254421
C	-0.327991	1.844595	-1.635523
N	-0.1753	2.991375	-1.843396
C	-1.827143	-0.064757	-1.817594
N	-2.494893	-0.434631	-2.724409
F	-2.553619	0.0	0.0
