13

C	-0.478486	-0.001445	-1.446059
C	0.0	0.0	0.0
Br	-2.56686	-0.257763	-1.376639
H	1.094592	0.0	0.0
H	-0.324544	-0.937774	0.462768
C	-0.350202	1.294416	-2.112008
N	-0.236532	2.332664	-2.65064
N	0.149728	-0.999914	-2.180105
H	0.238872	-1.876844	-1.686657
H	-0.194254	-1.114458	-3.120857
C	-0.530051	1.112477	0.772275
N	-0.952925	2.010671	1.398331
Cl	3.292708	0.0	0.0
