13

C	-0.305946	-0.086823	-1.496381
C	0.0	0.0	0.0
Br	-2.244797	-0.430445	-1.833761
H	1.096655	0.0	0.0
H	-0.373489	0.929069	0.432863
C	-0.073017	1.227413	-2.12091
N	0.143604	2.263598	-2.633548
N	0.460872	-1.159122	-2.047646
H	0.46547	-1.131787	-3.058907
H	1.417933	-1.08973	-1.693935
C	-0.500264	-1.148771	0.738924
N	-0.893004	-2.062181	1.363034
Cl	3.264183	0.0	0.0
