13

C	-0.460415	0.009865	-1.452144
C	0.0	0.0	0.0
Br	-2.563664	0.353029	-1.396918
H	1.094614	0.0	0.0
H	-0.349242	0.901423	0.505591
C	-0.001252	1.193608	-2.173141
N	0.342205	2.147496	-2.76751
N	-0.139825	-1.152526	-2.127229
H	-0.403801	-1.176196	-3.100219
H	-0.367376	-2.001541	-1.629802
C	-0.504226	-1.183206	0.68058
N	-0.894237	-2.166586	1.190789
Cl	3.259544	0.0	0.0
