13

C	-0.352582	0.032298	-1.501505
C	0.0	0.0	0.0
Br	-0.10082	-1.769661	-2.256536
H	1.093914	0.0	0.0
H	-0.307557	0.965921	0.419768
C	-1.758216	0.388819	-1.721847
N	-2.877953	0.722019	-1.851126
N	0.503554	0.936125	-2.23564
H	1.468713	0.728487	-1.967729
H	0.303488	1.885172	-1.931052
C	-0.607572	-1.06712	0.773972
N	-1.126315	-1.904011	1.4141
Cl	3.289972	0.0	0.0
