13

C	-0.323813	0.15318	-1.492894
C	0.0	0.0	0.0
Br	-0.068196	-1.737136	-2.302395
H	1.092588	0.0	0.0
H	-0.381704	-0.936847	0.402864
C	-1.730714	0.429441	-1.787624
N	-2.86464	0.65688	-2.00511
N	0.525677	1.119349	-2.034484
H	0.454728	1.217881	-3.037779
H	1.491529	0.982419	-1.728043
C	-0.50907	1.135211	0.760587
N	-0.920989	2.044396	1.380418
Cl	3.288319	0.0	0.0
