13

C	-0.32793	0.15281	-1.492022
C	0.0	0.0	0.0
Br	-0.135312	-1.681206	-2.380726
H	1.094542	0.0	0.0
H	-0.313808	0.927535	0.490854
C	-1.724973	0.505435	-1.755652
N	-2.839593	0.825373	-1.947878
N	0.550567	1.120984	-2.009088
H	0.480943	1.223356	-3.012607
H	1.512391	0.929871	-1.718982
C	-0.605962	-1.134123	0.67005
N	-1.117581	-2.014483	1.254906
Cl	3.290151	0.0	0.0
