13

C	-0.329237	-0.007273	-1.498831
C	0.0	0.0	0.0
Br	-0.127187	-1.923996	-2.188158
H	1.102157	0.0	0.0
H	-0.312741	0.974516	0.390099
C	-1.72869	0.308067	-1.796245
N	-2.84566	0.599056	-2.018826
N	0.543269	0.905614	-2.11743
H	1.505911	0.750471	-1.809749
H	0.473804	0.897603	-3.125976
C	-0.603896	-1.05674	0.787666
N	-1.11375	-1.870343	1.463446
Cl	3.289256	0.0	0.0
