15

C	0.0	0.0	0.0
C	-0.579358	0.104863	-1.414093
Cl	1.849485	0.0	0.0
H	-1.606927	0.459954	-1.25713
H	-0.263696	-0.983245	0.384983
N	-0.49481	1.001385	0.841428
H	-0.370071	1.928155	0.464751
H	-0.182327	0.922382	1.795691
N	-0.60745	-1.089488	-2.182954
H	-1.441771	-1.601797	-1.925258
H	0.222485	-1.65276	-2.050969
N	0.166931	1.191079	-2.153235
O	0.047993	2.330677	-1.696595
O	0.864228	0.891769	-3.113701
Cl	-3.685573	0.0	0.0
