15

C	0.0	0.0	0.0
C	-0.46063	-0.168645	-1.455065
Cl	1.821362	0.0	0.0
H	-1.5543	-0.075053	-1.412975
H	-0.291183	-0.933931	0.478124
N	-0.50278	1.090527	0.757917
H	-0.480036	1.933915	0.198077
H	-1.487917	0.874918	0.933064
N	-0.070967	-1.424056	-1.989851
H	0.921039	-1.434334	-2.186691
H	-0.572615	-1.614013	-2.845136
N	0.030589	1.006808	-2.299717
O	0.748995	0.766992	-3.268584
O	-0.329932	2.135144	-1.963918
Cl	-3.545673	0.0	0.0
