15

C	0.0	0.0	0.0
C	-0.366849	0.143386	-1.5032
Cl	1.866054	0.0	0.0
H	0.529049	0.299242	-2.106472
H	-0.265091	-0.990926	0.352171
N	-0.508521	0.988519	0.870854
H	-1.450773	0.702237	1.133423
H	-0.594881	1.863264	0.36689
N	-1.282788	1.190694	-1.746528
H	-2.171251	0.978399	-1.276002
H	-1.450628	1.270642	-2.740591
N	-0.831362	-1.236482	-2.052676
O	-0.461215	-2.263457	-1.491324
O	-1.460795	-1.19737	-3.105291
Cl	-3.639964	0.0	0.0
