15

C	0.0	0.0	0.0
C	-0.526804	0.022682	-1.431003
Cl	1.786269	0.0	0.0
H	-1.618543	0.054996	-1.342735
H	-0.279739	-0.98941	0.375072
N	-0.488822	1.117134	0.750931
H	-1.505712	1.119582	0.632659
H	-0.301467	0.952031	1.733486
N	-0.095069	-1.118169	-2.1639
H	-0.656301	-1.219743	-2.998881
H	0.875018	-1.006758	-2.431418
N	-0.126096	1.332956	-2.101618
O	0.859796	1.311821	-2.843931
O	-0.808939	2.324135	-1.86987
Cl	-3.592185	0.0	0.0
