15

C	0.0	0.0	0.0
C	-0.560274	-0.035861	-1.424265
Cl	1.848039	0.0	0.0
H	-1.613677	0.255375	-1.30298
H	-0.26153	-0.948468	0.465717
N	-0.509915	1.061182	0.747174
H	-0.244447	1.053623	1.718111
H	-0.398375	1.961014	0.307876
N	-0.477661	-1.280698	-2.105845
H	0.39594	-1.757712	-1.925936
H	-1.265634	-1.848143	-1.822536
N	0.118216	1.04517	-2.234307
O	0.844375	0.726035	-3.167079
O	-0.085103	2.204333	-1.865357
Cl	-3.704575	0.0	0.0
