18

C	0.0	0.0	0.0
C	-0.321985	-0.092916	-1.527946
Cl	1.771353	0.0	0.0
H	0.450827	-0.764548	-1.903771
N	-0.437115	1.30378	0.678633
O	-0.080046	1.420668	1.844906
O	-1.107756	2.113749	0.057009
C	-0.518155	-1.13283	0.853423
H	-0.135788	-1.000299	1.864983
H	-0.178368	-2.083326	0.448278
H	-1.611149	-1.092358	0.84377
N	-0.216186	1.139777	-2.218571
H	-0.210868	0.956131	-3.212506
H	-1.015883	1.71893	-2.000066
N	-1.557287	-0.931136	-1.960768
O	-1.581638	-2.093199	-1.575459
O	-2.271119	-0.444301	-2.823976
Cl	-3.692634	0.0	0.0
