18

C	0.0	0.0	0.0
C	-0.637389	0.085211	-1.384065
Cl	1.764179	0.0	0.0
H	-1.674425	0.413302	-1.203966
N	-0.411787	1.231983	0.847773
O	-1.207852	2.02741	0.372855
O	0.06447	1.2772	1.975559
C	-0.515897	-1.20687	0.755454
H	-0.192122	-2.113489	0.249512
H	-0.122425	-1.173744	1.771385
H	-1.609649	-1.15954	0.762394
N	-0.644696	-1.175512	-2.038787
H	-1.458271	-1.249902	-2.630762
H	0.18618	-1.306601	-2.59781
N	0.025485	1.166627	-2.250161
O	0.473446	2.168658	-1.708603
O	0.044417	0.956816	-3.462953
Cl	-3.776469	0.0	0.0
