18

C	0.0	0.0	0.0
C	-0.226824	0.354027	-1.528971
Cl	1.77435	0.0	0.0
H	0.378767	-0.406125	-2.021028
N	-0.432824	1.076298	0.985763
O	-0.76286	2.173361	0.550344
O	-0.365524	0.764232	2.167954
C	-0.577497	-1.323554	0.412023
H	-0.214989	-1.593615	1.40285
H	-0.291923	-2.084525	-0.3138
H	-1.672212	-1.222238	0.419543
N	0.166945	1.642594	-2.026765
H	-0.493272	2.328608	-1.684293
H	1.082119	1.878561	-1.668718
N	-1.594189	0.062909	-2.110989
O	-2.292788	1.008211	-2.436614
O	-1.824571	-1.126099	-2.31216
Cl	-3.849298	0.0	0.0
