12

C	-0.501187	0.042218	-1.421262
C	0.0	0.0	0.0
F	-0.044813	-1.02075	-2.166047
H	1.089197	0.0	0.0
H	-0.091384	0.954003	-1.867885
H	-0.329409	0.892368	0.538686
C	-1.973867	0.111951	-1.528884
N	-3.134348	0.244752	-1.635164
N	-0.511685	-1.161295	0.772431
O	-0.249117	-1.171943	1.971426
O	-1.159657	-2.023118	0.178207
Cl	3.281583	0.0	0.0
