12

C	-0.489247	0.046565	-1.437213
C	0.0	0.0	0.0
F	-0.148245	-1.154776	-2.035196
H	1.091501	0.0	0.0
H	-0.001323	0.854719	-1.982111
H	-0.388428	-0.872181	0.522871
C	-1.955061	0.195913	-1.532476
N	-3.124449	0.273536	-1.603825
N	-0.453143	1.20222	0.732169
O	-0.605545	1.106941	1.946249
O	-0.612031	2.234836	0.075204
Cl	3.273588	0.0	0.0
