12

C	-0.590246	-0.048689	-1.390965
C	0.0	0.0	0.0
F	-0.116205	1.006189	-2.147848
H	1.088288	0.0	0.0
H	-1.676961	0.05704	-1.34731
H	-0.34918	-0.854184	0.587192
C	-0.268243	-1.323705	-2.054843
N	-0.107172	-2.355402	-2.590025
N	-0.51581	1.210047	0.713259
O	0.195203	1.694485	1.582132
O	-1.648761	1.606352	0.425299
Cl	3.309311	0.0	0.0
