12

C	-0.490039	0.007802	-1.437687
C	0.0	0.0	0.0
F	-0.154614	-1.211022	-2.001639
H	1.091531	0.0	0.0
H	0.002093	0.797342	-2.004737
H	-0.388557	-0.857061	0.546899
C	-1.953889	0.162114	-1.538771
N	-3.122108	0.24592	-1.616935
N	-0.451861	1.221719	0.699759
O	-0.606535	1.159054	1.915485
O	-0.606666	2.236953	0.016108
Cl	3.270646	0.0	0.0
