12

C	-0.496903	0.047693	-1.425112
C	0.0	0.0	0.0
F	-0.07786	-1.037706	-2.159021
H	1.088968	0.0	0.0
H	-0.048957	0.939788	-1.876531
H	-0.32257	0.894	0.538918
C	-1.963693	0.172131	-1.532841
N	-3.11857	0.353207	-1.635954
N	-0.522892	-1.156288	0.769958
O	-0.218172	-1.197084	1.957358
O	-1.220877	-1.985808	0.185002
Cl	3.284933	0.0	0.0
