12

C	-0.512528	-0.056391	-1.412412
C	0.0	0.0	0.0
F	-1.900585	-0.202579	-1.423886
H	1.092136	0.0	0.0
H	-0.085743	-0.957212	-1.864563
H	-0.34646	-0.879395	0.541795
C	-0.171284	1.078171	-2.2834
N	0.059222	1.902059	-3.08611
N	-0.503682	1.169962	0.758507
O	-0.657871	1.015597	1.967698
O	-0.710035	2.216203	0.147582
Cl	3.257042	0.0	0.0
