14
Coordinates from ORCA-job run
  C   0.86153976078183      0.29674822914314     -0.31679134046298
  C   -0.29174827544622     -0.54699138084639      0.21574101143492
  F   0.30131024556332      1.01356520366658     -1.44247133951752
  H   0.13284858836742     -1.19809344010241      0.98752077801338
  H   1.62917072878867     -0.33450815745321     -0.77141927305016
  N   1.37257775276040      1.13788995429367      0.65024356974387
  H   2.32487954539777      1.44066615161804      0.67338159938208
  H   0.75458394994527      1.40501036867412      1.39481506326229
  N   -0.91128410022686     -1.40450256740288     -0.79643864491817
  H   -0.27465136230671     -2.15390572368886     -1.04905243731722
  H   -1.06223642724176     -0.84407167913461     -1.62871834156620
  N   -1.23577369999322      0.36276141518333      0.82856403697229
  H   -1.56634696011408      1.00172105299713      0.11333429823990
  H   -2.03486974627582     -0.17728942694765      1.14029101978351
