14
Coordinates from ORCA-job run
  C   0.86686653628944      0.36396613883740     -0.28820206992352
  C   -0.27164826065266     -0.56572636825137      0.10561946018256
  F   0.57043352198614      0.96226362418545     -1.50171154709648
  H   0.04246147331019     -1.05938372815761      1.04113736328552
  H   1.76738446410705     -0.23700367946143     -0.46209627646128
  N   1.01226180480842      1.43199367201720      0.67227261841364
  H   1.29934191800387      1.04866107192621      1.56535674680613
  H   1.73499880280316      2.06852863449512      0.35795694424241
  N   -0.35877185863058     -1.60858414923815     -0.89942167490776
  H   -0.74894088370770     -1.17961076127929     -1.73209581454868
  H   -1.01585184508380     -2.31771243099274     -0.59708056947831
  N   -1.49159771568207      0.21682967827171      0.24347676512160
  H   -2.14248785793638     -0.25003329224670      0.86183699070136
  H   -1.26445009961507      1.12481158989418      0.63395106366282
