14
Coordinates from ORCA-job run
  C   0.93452531263014      0.29076890083299     -0.29487554111905
  C   -0.30371116667381     -0.48890271575992      0.12965085028753
  F   0.53283727357698      1.21331743374218     -1.28629039521458
  H   0.01976677978264     -1.15489982791766      0.94115696581148
  H   1.66750492408954     -0.35702511628308     -0.78610162035781
  N   1.51270733508668      0.91604093689926      0.82925045044756
  H   0.79419929125677      1.44430133271917      1.31019935296953
  H   2.27730801175411      1.52059791631619      0.56191806818238
  N   -0.86156845857242     -1.19210811065268     -1.02218748597023
  H   -1.53747518694399     -1.87720010433233     -0.70543906206475
  H   -0.13658885213456     -1.69017514979437     -1.52665219965380
  N   -1.24549935440890      0.45639980448131      0.70039292882930
  H   -1.96644372051938     -0.02797164261912      1.21937724197823
  H   -1.68556218892379      0.94685634236806     -0.07039955412580
