14
Coordinates from ORCA-job run
  C   0.73882150529070      0.41437727612474     -0.57482567494600
  C   -0.61761869911771     -0.25004926575757     -0.35408787840423
  F   0.46621881210485      1.72867138513982     -1.04771866195523
  H   -1.15905256186324     -0.21704153729634     -1.31063315237181
  H   1.29280667824850     -0.07195722313149     -1.38210270147880
  N   1.49242015205702      0.40560991787940      0.61533173829956
  H   0.94879940579972      0.81909570520474      1.36255731045369
  H   2.38153268191186      0.87293695835166      0.50978245512017
  N   -1.28294390343591      0.48376451521219      0.71440581285290
  H   -2.11741603756399     -0.02728802352627      0.97250687866665
  H   -1.54641440271271      1.40460890980497      0.38587740295115
  N   -0.52945149661963     -1.63584272180573      0.05881774370244
  H   0.18766618810119     -1.70880416003010      0.77217401129752
  H   -0.25436832220064     -2.21708173617001     -0.72308528418801
