13
Coordinates from ORCA-job run
  C   -0.31717864634840     -0.22208381779078      0.31728358606786
  C   1.03327057407965     -0.35205384108371     -0.36775647456534
  Br  -0.30201183456783     -0.85121008894003      2.11157958187519
  H   1.35236858549992     -1.39464210873651     -0.33075123887562
  H   0.91883810815944     -0.06447703692563     -1.41563464202597
  N   -1.38215329816536     -1.00167811260687     -0.45373262118092
  O   -2.53921186290353     -0.68939915089081     -0.22015535271824
  O   -0.97807143575068     -1.87819802468177     -1.20563771082676
  N   -0.77331497621471      1.24165658085878      0.21359850997212
  O   -0.86716240273310      1.61590436015486     -0.94976971786232
  O   -0.97481036508665      1.88209104359878      1.22809095765245
  C   2.01814565324278      0.50777903861627      0.28018606453114
  N   2.81129190078848      1.20531115842743      0.79169905795639
