13
Coordinates from ORCA-job run
  C   -0.42548171444483     -0.23591603953876      0.42933266380372
  C   1.09339874218760     -0.32551426760452      0.40596014133287
  Br  -1.12449719143194     -1.04749440708483      2.00941091542026
  H   1.46064391337001      0.11017000416100      1.33946545422363
  H   1.38153911843534     -1.37795973546126      0.37746756782365
  N   -1.06671389448311     -0.91612411063262     -0.77625417814205
  O   -0.30670346043876     -1.51110471831403     -1.53057744356589
  O   -2.27923331524549     -0.81230750819791     -0.86251417604744
  N   -0.80882009603673      1.24849550125629      0.35132164527460
  O   -1.05137370828118      1.66969140735600     -0.77111357644093
  O   -0.73190013473081      1.87826983074476      1.39311730981878
  C   1.68201392476191      0.38063402788336     -0.72960113726219
  N   2.17612781633799      0.93716001543253     -1.63701518623901
