13
Coordinates from ORCA-job run
  C   -0.29984390586252     -0.10434422830925      0.37640195339807
  C   1.05202876761538      0.39318056363259     -0.11315494835564
  Br  -0.19333337412711     -1.13598121475846      1.96535451493005
  H   1.41883293752473      1.12466914583876      0.61443839155990
  H   0.90459735703601      0.89725194695372     -1.07085259632458
  N   -1.02642948407338     -0.91511071934219     -0.70004401751461
  O   -0.38771645673352     -1.19054054312546     -1.70625231771023
  O   -2.18747249991260     -1.19599508938156     -0.44665132706067
  N   -1.19340776278971      1.13840910374018      0.54824452511379
  O   -1.58056428922017      1.44976655112378      1.65927942637039
  O   -1.39483781327284      1.72084728960145     -0.51155037778801
  C   2.03323805923959     -0.67559946336899     -0.25512143181320
  N   2.85490846457614     -1.50655334260457     -0.35909179480525
