13
Coordinates from ORCA-job run
  C   -0.30522418433787     -0.12671312380496      0.36508536552844
  C   0.98824163544294     -0.37401892943540     -0.39684651007337
  Br  -0.15222423986016     -0.43623992994220      2.23087886971011
  H   0.83115988418074     -0.08831034646189     -1.43930247466642
  H   1.19636133112160     -1.44827267587828     -0.35610597677627
  N   -1.38015611259479     -1.01705830462940     -0.28620997996947
  O   -1.87955898531785     -1.92182121224138      0.35662314590946
  O   -1.59572573314613     -0.71312592415155     -1.45418076973693
  N   -0.83406029035693      1.29138282633523      0.13381717106262
  O   -1.95530658111263      1.50700642581861      0.56666085440009
  O   -0.09801901115930      2.06181956912915     -0.46693418206342
  C   2.12214463092336      0.35568474819109      0.15731294633215
  N   3.06136765621703      0.90966687707098      0.59020154034302
