13
Coordinates from ORCA-job run
  C   -0.29665817632970     -0.09761682872240      0.38147542427115
  C   1.05806458216555      0.37412682374520     -0.12527837755782
  Br  -0.18982619345264     -1.12541835107970      1.97284566019103
  H   0.90981676789410      0.87592352065349     -1.08402720089527
  H   1.44447028119095      1.10296739265125      0.59480619082809
  N   -1.05047300461533     -0.89875102190373     -0.68348351843147
  O   -0.42958469911840     -1.18617089457924     -1.69748823348188
  O   -2.21257316742546     -1.16002536209550     -0.41452618731666
  N   -1.16620965737660      1.16141054095813      0.55921841665430
  O   -1.36867543949020      1.74477393306731     -0.49989446060512
  O   -1.53620589539863      1.48220898443016      1.67341013927686
  C   2.01879391024293     -0.71223921839543     -0.27354324613231
  N   2.81806069171341     -1.56118951872954     -0.40351460680090
