17

C	0.0	0.0	0.0
C	-0.297344	0.228767	-1.530988
Cl	1.831076	0.0	0.0
H	0.53817	-0.194501	-2.092686
N	-0.504386	1.083001	0.787132
H	-0.093334	1.055437	1.711859
H	-1.514612	0.892471	0.857328
N	-0.469221	-1.252882	0.445762
H	-0.256347	-2.023692	-0.167088
H	-0.202925	-1.433559	1.402174
N	-0.448665	1.603568	-1.814297
H	-0.991475	2.035559	-1.077034
H	-0.941831	1.704219	-2.691334
N	-1.426593	-0.647564	-2.153898
O	-2.226519	-0.084276	-2.88582
O	-1.288457	-1.864569	-2.057128
Cl	-3.646896	0.0	0.0
