17

C	0.0	0.0	0.0
C	-0.341105	-0.004712	-1.534611
Cl	1.795477	0.0	0.0
H	-0.02084	0.965053	-1.913099
N	-0.478199	1.264356	0.512468
H	-1.499572	1.222285	0.461654
H	-0.231729	1.338073	1.493912
N	-0.459775	-1.206226	0.639387
H	-1.477846	-1.150413	0.691522
H	-0.1022	-1.239535	1.5885
N	-1.667285	-0.297116	-1.944233
H	-2.305843	0.472975	-1.795798
H	-2.055969	-1.074599	-1.429015
N	0.525946	-1.006612	-2.276042
O	0.29149	-2.19614	-2.099622
O	1.369215	-0.557308	-3.052679
Cl	-4.035121	0.0	0.0
