17

C	0.0	0.0	0.0
C	-0.633595	-0.08879	-1.373893
F	1.357036	0.0	0.0
H	-1.74269	0.000778	-1.082385
N	-0.349791	1.37976	0.587746
O	0.130872	1.602864	1.698728
O	-1.026086	2.172061	-0.053284
C	-0.518391	-1.045735	0.952389
H	-0.111106	-0.850836	1.944509
H	-1.612728	-0.958697	0.919015
H	-0.182728	-2.027672	0.610966
C	-0.397425	-1.417053	-1.926517
N	-0.202667	-2.46245	-2.429516
N	-0.116531	0.946612	-2.282609
H	-0.878809	1.568589	-2.513607
H	0.237438	0.529558	-3.133394
F	-2.911774	0.0	0.0
