17

C	0.0	0.0	0.0
C	-0.473793	0.095393	-1.495643
F	1.372653	0.0	0.0
H	0.465372	-0.050941	-2.048055
N	-0.315904	1.25212	0.817673
O	-0.915908	1.143248	1.877985
O	0.169304	2.292501	0.374874
C	-0.488916	-1.218229	0.723607
H	-0.14326	-2.107455	0.19001
H	-1.581329	-1.137105	0.737256
H	-0.070538	-1.227499	1.731202
C	-0.955516	1.426574	-1.898098
N	-1.318833	2.446981	-2.349941
N	-1.459887	-0.864664	-1.948369
H	-2.257025	-0.686718	-1.279233
H	-1.091327	-1.796825	-1.796626
F	-2.843603	0.0	0.0
