17

C	0.0	0.0	0.0
C	-0.487604	-0.098414	-1.497789
F	1.37102	0.0	0.0
H	-0.781523	-1.149128	-1.610482
N	-0.315588	1.400088	0.519607
O	-0.835675	1.530261	1.619957
O	0.060226	2.322995	-0.203192
C	-0.587303	-1.042889	0.889708
H	-0.279512	-2.023014	0.515353
H	-0.242704	-0.915565	1.916266
H	-1.680438	-0.903308	0.804791
C	0.659528	0.118574	-2.40081
N	1.523255	0.286082	-3.177728
N	-1.607812	0.688595	-1.948248
H	-1.361941	1.667683	-1.871481
H	-2.382829	0.470025	-1.255279
F	-3.063111	0.0	0.0
