17

C	0.0	0.0	0.0
C	-0.311905	-0.001185	-1.544724
F	1.368228	0.0	0.0
H	-0.04572	-1.036167	-1.810984
N	-0.419156	1.307278	0.642151
O	-0.464387	2.294777	-0.087848
O	-0.603456	1.312809	1.854926
C	-0.549375	-1.166925	0.752627
H	-0.196424	-2.080435	0.26646
H	-1.644288	-1.067037	0.699508
H	-0.191022	-1.144112	1.78209
C	0.68651	0.839715	-2.23744
N	1.430038	1.50736	-2.853652
N	-1.619195	0.296564	-2.070451
H	-1.695726	1.306542	-2.112653
H	-2.324751	0.030813	-1.317994
F	-3.004044	0.0	0.0
