17

C	0.0	0.0	0.0
C	-0.501783	-0.104174	-1.492447
F	1.369695	0.0	0.0
H	-0.835628	-1.143986	-1.588156
N	-0.311599	1.402796	0.516771
O	0.084259	2.322665	-0.19944
O	-0.845979	1.537068	1.610375
C	-0.584398	-1.037965	0.897618
H	-0.277927	-2.019984	0.526923
H	-0.234841	-0.905795	1.921892
H	-1.677485	-0.898606	0.815789
C	0.645577	0.063545	-2.405303
N	1.513894	0.192315	-3.185097
N	-1.600677	0.713689	-1.941068
H	-2.378942	0.505168	-1.249934
H	-1.331359	1.686286	-1.863384
F	-3.057198	0.0	0.0
