17

C	0.0	0.0	0.0
C	-0.330871	-0.031557	-1.542243
F	1.3833	0.0	0.0
H	-0.100696	-1.07885	-1.789893
N	-0.406364	1.329053	0.61084
O	-0.498023	1.383956	1.833357
O	-0.546327	2.279267	-0.153782
C	-0.568239	-1.135913	0.781713
H	-0.251685	-2.07167	0.314394
H	-0.206961	-1.097371	1.808624
H	-1.662878	-1.005761	0.728943
C	0.676448	0.767517	-2.269771
N	1.434761	1.395311	-2.907893
N	-1.636716	0.287149	-2.061306
H	-2.344224	0.000382	-1.325137
H	-1.711911	1.297222	-2.053755
F	-3.039311	0.0	0.0
