17

C	0.0	0.0	0.0
C	-0.626684	0.119138	-1.369453
F	1.376055	0.0	0.0
H	-1.729457	0.232076	-1.057571
N	-0.333832	1.281914	0.786042
O	0.190976	1.350466	1.89808
O	-1.047072	2.141194	0.29151
C	-0.512327	-1.171069	0.793757
H	-0.175915	-2.094419	0.316449
H	-0.106585	-1.117029	1.804104
H	-1.607448	-1.079617	0.769344
C	-0.499848	-1.148436	-2.088504
N	-0.389801	-2.128364	-2.730737
N	-0.057612	1.233211	-2.127391
H	0.605838	0.900295	-2.81464
H	-0.802334	1.723545	-2.60171
F	-2.902382	0.0	0.0
