17

C	0.0	0.0	0.0
C	-0.525817	-0.087432	-1.44765
F	1.368787	0.0	0.0
H	-0.851551	0.914848	-1.738067
N	-0.361813	1.331272	0.630844
O	-0.574406	1.360008	1.836228
O	-0.275759	2.32538	-0.089164
C	-0.374525	-1.163157	0.886071
H	-0.071099	-2.067093	0.349508
H	-1.448249	-1.144254	1.043719
H	0.191371	-1.091775	1.816121
C	-1.686294	-0.984207	-1.601626
N	-2.287432	-1.830819	-2.16414
N	0.549887	-0.627742	-2.300676
H	1.241926	0.094521	-2.459527
H	0.129332	-0.877044	-3.187409
F	-2.542383	0.0	0.0
