16

C	-0.345722	0.013961	-1.520062
C	0.0	0.0	0.0
Cl	0.388017	-1.41668	-2.332548
H	1.095733	0.0	0.0
C	-1.796728	-0.068285	-1.726297
N	-2.969488	-0.144702	-1.778434
C	0.161744	1.214503	-2.186369
N	0.546177	2.172239	-2.74804
N	-0.483519	-1.180395	0.676614
H	-1.448876	-1.406172	0.453404
H	0.111977	-1.964709	0.445086
C	-0.537189	1.256452	0.659894
H	-0.196547	1.237762	1.696346
H	-1.63509	1.307142	0.659105
H	-0.1372	2.158687	0.190999
F	2.591149	0.0	0.0
