16

C	-0.483111	-0.001516	-1.463404
C	0.0	0.0	0.0
Cl	0.105936	1.451156	-2.355228
H	1.099342	0.0	0.0
C	0.01802	-1.187566	-2.165106
N	0.382714	-2.126213	-2.769865
C	-1.950803	0.004372	-1.531479
N	-3.124854	0.064614	-1.54162
N	-0.431053	-1.289743	0.538912
H	0.390093	-1.747834	0.916083
H	-1.120699	-1.183214	1.272519
C	-0.534085	1.180703	0.785125
H	-0.281063	2.130804	0.311813
H	-0.053254	1.165924	1.766551
H	-1.623588	1.136007	0.924301
F	2.597205	0.0	0.0
