16

C	-0.242839	0.215314	-1.494919
C	0.0	0.0	0.0
Cl	-2.0373	0.33869	-1.929244
H	1.105696	0.0	0.0
C	0.384339	1.445342	-1.980331
N	0.854384	2.447266	-2.375239
C	0.264998	-0.931569	-2.251039
N	0.62308	-1.885555	-2.835114
N	-0.475187	-1.282139	0.474854
H	0.194177	-1.996407	0.215285
H	-1.386491	-1.523559	0.098836
C	-0.524627	1.145236	0.839045
H	-0.162689	0.988535	1.856349
H	-1.62039	1.185269	0.86108
H	-0.139802	2.106189	0.48783
F	2.564749	0.0	0.0
