16

C	-0.383846	-0.139516	-1.464423
C	0.0	0.0	0.0
Cl	-2.202647	-0.050292	-1.737595
H	1.105968	0.0	0.0
C	0.208262	0.926287	-2.278278
N	0.655796	1.798569	-2.925951
C	0.038318	-1.442015	-1.986147
N	0.351251	-2.475383	-2.44881
N	-0.449571	-1.186472	0.710454
H	-1.209486	-0.978587	1.34526
H	0.338783	-1.538576	1.238396
C	-0.457594	1.313677	0.602877
H	-1.546667	1.365486	0.729468
H	-0.134125	2.166421	0.00037
H	0.018701	1.41083	1.581658
F	2.569606	0.0	0.0
