16

C	-0.423543	-0.167248	-1.475382
C	0.0	0.0	0.0
Cl	0.333527	-1.640614	-2.168327
H	1.10733	0.0	0.0
C	-1.879317	-0.311973	-1.597843
N	-3.052182	-0.384708	-1.642015
C	-0.00053	0.975829	-2.29107
N	0.300735	1.908337	-2.939274
N	-0.477347	-1.165807	0.731396
H	0.320331	-1.567247	1.209095
H	-1.176261	-0.910899	1.417725
C	-0.515957	1.313482	0.561655
H	-0.113526	1.420342	1.572432
H	-1.613689	1.350822	0.616344
H	-0.162441	2.169358	-0.018149
F	2.596326	0.0	0.0
