13
Coordinates from ORCA-job run
  C   -0.12505000017544     -0.14899293806981      0.32856240234243
  C   -1.25886314935946      0.14753701075919     -0.62176134087205
  F   -0.61547258658146     -0.80027600534442      1.42445110190035
  H   -2.02994895443378      0.72028558991803     -0.10321881262978
  H   -1.69137256592491     -0.79535227840183     -0.95992045710449
  H   -0.90198697904865      0.71443009777238     -1.47994226964231
  N   0.42814458597681      1.18460695573098      0.82520465459006
  O   0.91272242860053      1.90097289063232     -0.04668946055717
  O   0.35276257125348      1.43856315295627      2.01890350077724
  C   1.02460050234711     -0.93942421176438     -0.24594740724015
  H   0.65523498460343     -1.91284906810926     -0.57223853579682
  H   1.46684357755997     -0.41447966855862     -1.09097349923115
  H   1.78338558518238     -1.09302152752086      0.52357012346385
