13

C	0.0	0.0	0.0
C	-0.454088	0.304083	-1.428072
F	1.376566	0.0	0.0
H	0.447626	0.384022	-2.049704
H	-0.366692	-0.960951	0.336655
H	-0.357817	0.786367	0.656788
N	-1.263427	1.460635	-1.518603
H	-2.072264	1.151741	-0.915025
H	-1.574457	1.566827	-2.476299
N	-1.12024	-0.951856	-2.045257
O	-1.94408	-0.766141	-2.935635
O	-0.69038	-2.056949	-1.722566
F	-2.613408	0.0	0.0
