13

C	0.0	0.0	0.0
C	-0.449627	-0.060377	-1.46129
F	1.381793	0.0	0.0
H	0.454726	-0.121876	-2.080873
H	-0.356466	0.925942	0.439863
H	-0.366343	-0.846288	0.565938
N	-1.270442	1.028276	-1.834353
H	-2.077599	0.873269	-1.172325
H	-1.582821	0.894148	-2.787757
N	-1.093771	-1.436514	-1.750666
O	-0.640423	-2.420568	-1.172123
O	-1.923156	-1.489889	-2.654041
F	-2.621238	0.0	0.0
