13

C	0.0	0.0	0.0
C	-0.6071	0.125201	-1.360117
F	1.38223	0.0	0.0
H	-1.739124	0.109684	-1.011427
H	-0.351318	-0.944296	0.409784
H	-0.34918	0.815207	0.625762
N	-0.229236	-0.938614	-2.238535
H	0.742925	-0.839772	-2.509999
H	-0.78277	-0.891372	-3.082541
N	-0.31003	1.483421	-1.934948
O	-0.103912	1.569533	-3.153663
O	-0.353538	2.462452	-1.188728
F	-2.758574	0.0	0.0
