13

C	0.0	0.0	0.0
C	-0.554781	0.021177	-1.38934
F	1.389101	0.0	0.0
H	-1.67953	0.043921	-1.114836
H	-0.355654	0.864156	0.549904
H	-0.35871	-0.90884	0.474894
N	-0.124928	-1.105884	-2.155941
H	0.876217	-1.053955	-2.30816
H	-0.569534	-1.092608	-3.062816
N	-0.180813	1.33485	-2.046125
O	0.18368	1.314843	-3.229385
O	-0.30578	2.371932	-1.395191
F	-2.706702	0.0	0.0
