12
Coordinates from ORCA-job run
  C   -0.42713614925816     -0.03678051444925      0.07094172383707
  C   0.67235961002305     -0.76782206030532     -0.11448978849559
  H   0.65165101812449     -1.84914946515683     -0.11153574872550
  N   -1.73397854949054     -0.69342674799118      0.28873430730018
  O   -2.68523745407997      0.06216284362705      0.45539091422016
  O   -1.74526748479038     -1.91581071554827      0.28332650192121
  N   -0.52302233499321      1.41960823535382      0.08823344601774
  O   -0.39312923629502      1.94454207152527      1.18582292880224
  O   -0.76976767345858      1.94449123090782     -0.98918576460623
  N   1.98253832456539     -0.17493952695390     -0.33063306378987
  O   2.07069726764936      1.05048030907143     -0.35470543924245
  O   2.90029266200358     -0.98335566008063     -0.47190001723896
