12
Coordinates from ORCA-job run
  C   -0.42587186579193     -0.03821873019696      0.07805369348252
  C   0.73748408325055     -0.65836972358861      0.27746598015478
  H   0.80477676961381     -1.59864882525706      0.80763833233371
  N   -1.68396041922063     -0.62780736058840      0.58431628410497
  O   -1.59464494849377     -1.69083572889467      1.18121798428548
  O   -2.70154672284791      0.01576146639411      0.35190567781508
  N   -0.64066491075731      1.22721793182862     -0.61692310782075
  O   -0.61179011511900      2.22752761566572      0.08720348758309
  O   -0.87157261814655      1.13847671741836     -1.81525179699249
  N   2.00413661860094     -0.12385493261844     -0.19660350512748
  O   1.99367413524611      0.93952346919193     -0.81229913921862
  O   2.98997999366569     -0.80977189935459      0.07427610939971
