12
Coordinates from ORCA-job run
  C   -0.31677636159974      0.28037146599195      0.10103406126632
  C   0.97759439921225      0.03959861750794      0.31178271716954
  H   1.58769741847659      0.68011983377884      0.93409374544057
  N   -1.23681146161322     -0.50889171056961     -0.71199422076378
  O   -1.33176932777359     -0.16742116021661     -1.88316278187687
  O   -1.84202533559473     -1.39105406146175     -0.11815018083935
  N   -0.97155290239445      1.45051172979303      0.72380565364350
  O   -2.16408246881934      1.58622100112674      0.47260780658880
  O   -0.27152213258084      2.16690380414331      1.42459913089599
  N   1.67146925955884     -1.09546259364214     -0.27565126502636
  O   1.03271264141809     -1.86058081930095     -0.99421141856292
  O   2.86506627171014     -1.17931610715075      0.01424675206455
