12
Coordinates from ORCA-job run
  C   -0.44379873052974     -0.06112321062253      0.05797005314167
  C   0.72597911753939     -0.67986757430486      0.17985950996617
  H   0.80180970755342     -1.69900877808008      0.54053415219684
  N   -0.64351824938785      1.32403352173217     -0.37956921366001
  O   0.32553773336970      1.88148440400576     -0.87774116640833
  O   -1.76368451261894      1.78581862582962     -0.19271637488904
  N   -1.69270939509331     -0.74965669362965      0.38431101402462
  O   -2.32001278796132     -1.17888503764684     -0.57861513550901
  O   -1.98938203814786     -0.81831562118646      1.57243056009705
  N   2.01028885958804     -0.06421252193012     -0.15950950952161
  O   2.44229431501129     -0.33213337800838     -1.27237223944242
  O   2.54619598067717      0.59186626384139      0.72341835000407
