12
Coordinates from ORCA-job run
  C   -0.43041892311081     -0.06382095670313      0.00001680475678
  C   0.72065668904387     -0.67275307226182      0.28604865969910
  H   0.75976546717861     -1.69789472165155      0.62857420741690
  N   -0.60564999921941      1.30405598331625     -0.47638696691997
  O   -0.80729199681073      2.14103751688254      0.39337317428812
  O   -0.57897291714665      1.45114234775843     -1.69098283479969
  N   -1.71359573092346     -0.78232407085511      0.15075632155882
  O   -2.71489522093905     -0.15271737146851     -0.17301706479658
  O   -1.65862275505300     -1.92691094215612      0.57673704202740
  N   2.01191608531568     -0.02082981890190      0.13704770669370
  O   2.98514101481930     -0.74365955367498      0.35186441584168
  O   2.03196828684564      1.16567465971590     -0.18203146576626
