12
Coordinates from ORCA-job run
  C   -0.42824697528037     -0.02683153271875      0.07080041565815
  C   0.68990973074629     -0.75196317548881      0.11192749774818
  H   0.69048861093869     -1.79242899806674      0.40715945272907
  N   -1.72690714264022     -0.63328688215450      0.43444708386677
  O   -2.69762801533517      0.11272206166970      0.36538977544764
  O   -1.71315577773318     -1.80977260075739      0.76606127016679
  N   -0.55252199347503      1.37690726134040     -0.30930840893594
  O   -0.77680339008642      1.58497255342750     -1.49405964160593
  O   -0.46597623043178      2.18181355310086      0.60822083765696
  N   1.99299062410398     -0.20716252182665     -0.23489021758604
  O   2.05894724743551      0.97019814025129     -0.58038316808571
  O   2.92790331175771     -1.00316785877693     -0.14536489705995
