12
Coordinates from ORCA-job run
  C   -0.42602231528865     -0.04640763555588      0.07365632722259
  C   0.74517523119224     -0.65252764377393      0.27047498640704
  H   0.82295611726466     -1.60281052592975      0.78101900136959
  N   -0.65381575979473      1.22943414102524     -0.59797177234491
  O   -0.87645876973126      1.16086977048875     -1.79916165081174
  O   -0.64479010975138      2.21585351717297      0.12600285685909
  N   -1.67866181481270     -0.66428196553920      0.55798563429485
  O   -2.70444279931143     -0.03279377374806      0.32837523954605
  O   -1.57783824079374     -1.73667355272539      1.13609167951462
  N   2.00715515530214     -0.08983506343552     -0.18274920018761
  O   3.00176114149851     -0.76286226475437      0.08849347933213
  O   1.98498216422634      0.98203499677515     -0.78321658120170
