12
Coordinates from ORCA-job run
  C   -0.43289110250765     -0.02253001498852     -0.03408440817477
  C   0.65783632549269     -0.78816146756069      0.00937382117507
  H   0.60579675068974     -1.86718049528463     -0.04282073343828
  N   -1.77237819314319     -0.63623379415094     -0.15823334934428
  O   -2.71443984048569      0.14850418930910     -0.17990680399050
  O   -1.81696813539295     -1.85593929523925     -0.22622852457490
  N   -0.48814611272667      1.43456175870595      0.02997521232462
  O   -0.60002566769993      1.91047035068824      1.15166661853739
  O   -0.46394194989851      2.01081196456336     -1.04921615775185
  N   1.99864835934229     -0.23942486237711      0.13512367484952
  O   2.89907875664624     -1.07771033545966      0.18381333093579
  O   2.12643080968362      0.98183200179417      0.18153731945219
