12
Coordinates from ORCA-job run
  C   -0.30670746240117      0.30629706157026      0.03674029108337
  C   1.00176003362718      0.10681760966817      0.19772002398471
  H   1.66686342582837      0.89118692842379      0.53255029588875
  N   -0.90173316703912      1.63016626858442      0.31784446666668
  O   -2.11217455149220      1.71544410425936      0.14099408015822
  O   -0.14028189398167      2.50872599173896      0.69564431041454
  N   -1.29672921527386     -0.67010735654000     -0.40736331111450
  O   -1.49651808006130     -0.70781617078825     -1.61396644159722
  O   -1.84737449638065     -1.30493602578651      0.48199219891521
  N   1.63929462122165     -1.17381021523085     -0.06408776490099
  O   0.93692948162964     -2.10797907960745     -0.44335149119577
  O   2.85567130432314     -1.19498911629188      0.12528334169700
