12
Coordinates from ORCA-job run
  C   -0.31804666077202      0.28676236299780      0.07501041851753
  C   0.97367039302294      0.06459059239711      0.31952062731783
  H   1.57678084891893      0.75166044988922      0.89739128728119
  N   -0.97982095367371      1.50183254351093      0.59697386635708
  O   -0.28653078330214      2.27324039269070      1.24399765072620
  O   -2.17023385867041      1.61481829065871      0.32549594219426
  N   -1.22814278019543     -0.56309592637198     -0.68651219373949
  O   -1.83732137755790     -1.40125784017940     -0.03572087991782
  O   -1.31306658428366     -0.30791045457838     -1.88024822830232
  N   1.67435856668528     -1.11308346949367     -0.16729530367131
  O   2.86084088192712     -1.18006414869081      0.15448419652594
  O   1.04751230790099     -1.92649279283023     -0.84209738328909
