12
Coordinates from ORCA-job run
  C   -0.30867083776364      0.28702995479628      0.10998925578103
  C   0.95917179010998     -0.03522336614744      0.36672842587742
  H   1.57489242333636      0.54148591589210      1.04352158585284
  N   -1.22618989375917     -0.40934553826396     -0.78666907142593
  O   -1.97191382885220     -1.21569866512575     -0.24734601136350
  O   -1.17833085044535     -0.07648297875600     -1.96326425674989
  N   -0.92825530216587      1.46293042794353      0.75631532790078
  O   -0.25580430334821      2.05312644347242      1.58931157353115
  O   -2.06494294902354      1.73390624371452      0.38457335841502
  N   1.62260628987950     -1.16572126419884     -0.26336204107349
  O   2.83740376889364     -1.22456328778234     -0.07339164522835
  O   0.94003369313851     -1.95144388554452     -0.91640650151707
