12
Coordinates from ORCA-job run
  C   -0.31257629384944      0.28650854453487      0.09497555614869
  C   0.98425083349932      0.04531029080951      0.28929836614019
  H   1.61190654760164      0.70804269788819      0.86945840648718
  N   -1.25530967405960     -0.52907663866646     -0.66416848240921
  O   -1.37280225555725     -0.23709976624703     -1.84659422536826
  O   -1.85476777672739     -1.37969972305345     -0.02049097942638
  N   -0.94489683394594      1.48955101384917      0.67781969390506
  O   -0.22422699496175      2.23126250210352      1.32956793960604
  O   -2.14158989620029      1.62371950589208      0.44643768003081
  N   1.65701715403521     -1.12152457326191     -0.25901268186899
  O   0.99831327700633     -1.91094506653636     -0.93194599620712
  O   2.85468191315916     -1.20504878731214      0.01365472296197
