12
Coordinates from ORCA-job run
  C   -0.43292870753545     -0.03175160196786     -0.01853083293738
  C   0.67632964198442     -0.77023762907648     -0.06196285893155
  H   0.64758569386823     -1.84482422677027     -0.18107944684456
  N   -1.76157458067241     -0.67075906770845     -0.13345523360763
  O   -1.78013956245308     -1.88542127039729     -0.26957759179276
  O   -2.72166101102052      0.09015315942447     -0.07998395058917
  N   -0.52026018188519      1.41674675949733      0.13782897630756
  O   -0.54095917977040      2.05962733758735     -0.90306562736506
  O   -0.61071459120069      1.81867030401213      1.29000371696972
  N   2.00759358334820     -0.19523209956288      0.04699668010086
  O   2.92968535501683     -1.00927854035354     -0.00591920748825
  O   2.10704354032004      1.02230687531549      0.17974537617822
