12
Coordinates from ORCA-job run
  C   -0.31927302643013      0.28121471565297      0.08935865829342
  C   0.94363300917774     -0.00718998455283      0.40498433774607
  H   1.50490288729008      0.57471903002425      1.12337757447820
  N   -1.17202104123462     -0.42750710401711     -0.85974438932765
  O   -1.14519630921052     -0.00734551887732     -2.00870453172219
  O   -1.85150374029296     -1.32917298813614     -0.38801239787029
  N   -1.00580354067228      1.42709592498136      0.72304942857014
  O   -2.16549204294075      1.61127847271830      0.36960315193836
  O   -0.36122682369247      2.07811744694245      1.53243216826978
  N   1.66630449985067     -1.12216292984986     -0.18631040509579
  O   1.08432468608048     -1.82108624349539     -1.01259316045492
  O   2.82335144207475     -1.25896082139069      0.21155956517488
