12
Coordinates from ORCA-job run
  C   -0.41172441020371     -0.03146626893565      0.13575616862086
  C   0.64561725301648     -0.77575925063043     -0.18927617784912
  H   0.62202140996596     -1.85640800218684     -0.15193785103360
  N   -1.67338759158298     -0.67168528513861      0.56556368885265
  O   -2.58937711666964      0.09530641951046      0.84180126454644
  O   -1.68688929379495     -1.89337742897940      0.60528460103035
  N   -0.49883589795428      1.42540384838283      0.12360073280592
  O   -0.21241987363996      1.98033596641656      1.17582748871740
  O   -0.89436332809772      1.92146695571521     -0.92273596159404
  N   1.90995486249713     -0.19964317067266     -0.61852445347939
  O   2.00191949538742      1.02424137256084     -0.67866634213135
  O   2.78848449107623     -1.01941515604231     -0.88669315848611
