12
Coordinates from ORCA-job run
  C   -0.42813986596267     -0.02046344482701      0.08271972526003
  C   0.66185058352092     -0.77893314571599      0.15768586054015
  H   0.63836502889744     -1.80785051905387      0.49402708018179
  N   -1.74976576087135     -0.55986239362776      0.40624817911840
  O   -1.91360150660435     -0.99720809544814      1.53979588103733
  O   -2.56235047308742     -0.50969583680198     -0.51200652604330
  N   -0.50492870073312      1.37729422130910     -0.34266993788796
  O   -0.16653133019502      1.63595650407722     -1.48920459671163
  O   -0.92398930406757      2.13961040930837      0.52187053443703
  N   1.98502620149148     -0.27689849479643     -0.18679864345625
  O   2.78017456927958     -1.13502223595381     -0.56470324068562
  O   2.18289055833206      0.93207303153030     -0.10696431578996
