12
Coordinates from ORCA-job run
  C   -0.31166482393843      0.28988620113790      0.08755230345278
  C   0.95568599990121     -0.00770973682561      0.37571958293655
  H   1.54808165811371      0.59248443556392      1.05290215583846
  N   -1.20607601726083     -0.44044056468911     -0.80514035677586
  O   -1.88393493878430     -1.31158697278528     -0.27714271435633
  O   -1.21000570492236     -0.06531564194748     -1.96986241203931
  N   -0.95871091424080      1.47271330004509      0.69503119200365
  O   -2.12567592584981      1.66337036937222      0.37024565253674
  O   -0.27803485953069      2.14419401458664      1.45666900848959
  N   1.64100362900483     -1.15801307265944     -0.19151352408942
  O   1.02314663801761     -1.87671927298560     -0.97363743288330
  O   2.80618525948987     -1.30186305881325      0.17917654488645
