12
Coordinates from ORCA-job run
  C   -0.32642120505258      0.27154609646959      0.09500379743679
  C   0.99742842670329      0.14730866704572      0.19300378362294
  H   1.61674268039755      0.91527542413608      0.63622061045541
  N   -1.25952612465049     -0.69085947106910     -0.48263904648174
  O   -1.74406854346488     -1.49268213515536      0.30438107548721
  O   -1.48609387587652     -0.55556574525742     -1.67747278685736
  N   -1.00330246797556      1.48479236599975      0.60082814129815
  O   -2.22077678623860      1.51098940275721      0.45658287050742
  O   -0.29470992561506      2.34109821241764      1.10967630622307
  N   1.71532133836420     -1.02060072259286     -0.29204148475657
  O   1.06588911711552     -1.94262651230256     -0.78000403328508
  O   2.93851736629311     -0.96767558244868     -0.16253923365024
