12
Coordinates from ORCA-job run
  C   -0.32117335636661      0.28664688519741      0.05993846270408
  C   0.99678417880764      0.14259922377150      0.20125552425019
  H   1.62355546573638      0.93312964059244      0.59106196974822
  N   -0.97958355263372      1.55534740978231      0.43875750439543
  O   -0.26014277754866      2.44176355636158      0.87578151271725
  O   -2.19427913739372      1.59121353759102      0.27492550806288
  N   -1.26446471326485     -0.70258591828874     -0.45172283110908
  O   -1.47285336780413     -0.65848799170232     -1.65669963698386
  O   -1.77429206512783     -1.43078330561445      0.38906536742814
  N   1.69576591234220     -1.08207903499755     -0.15438122221138
  O   1.03915699397304     -2.01724304416025     -0.60632323075755
  O   2.91152641928027     -1.05952095853293      0.03834107175567
