12
Coordinates from ORCA-job run
  C   -0.32477014575450      0.27783875581148      0.08057746607611
  C   1.00305653434753      0.17035218773815      0.13690928490730
  H   1.63094959991623      0.97846091245538      0.48686705453193
  N   -1.27079197382871     -0.73804280363650     -0.37044696571483
  O   -1.70544801365650     -1.47906306892967      0.50078170633227
  O   -1.55649648131159     -0.70167254024634     -1.55974461124735
  N   -0.99256821711229      1.52773031723400      0.50273570953153
  O   -0.27133753939135      2.43521079764628      0.89078618847235
  O   -2.21602617360135      1.52836838057167      0.42043528561681
  N   1.71213082483024     -1.03422085830901     -0.26420135519845
  O   2.93702118770711     -0.97483662220742     -0.15527399795849
  O   1.05428039785518     -1.99012545812802     -0.66842576534916
