12
Coordinates from ORCA-job run
  C   -0.43165473341890     -0.04792747038011      0.01985260011561
  C   0.70811872556801     -0.70079695001871      0.24881416692245
  H   0.72486612186001     -1.71882023056745      0.61362078823939
  N   -0.57943866072889      1.31889395445425     -0.47025632312142
  O   -0.65355494242117      2.18361713472934      0.39228788106891
  O   -0.65972441675740      1.43829130041938     -1.68537994183687
  N   -1.73265564348959     -0.70700577769917      0.26278132740511
  O   -1.70054687764233     -1.85670676162966      0.67691922926122
  O   -2.72418214937075     -0.02699311061753      0.02153390150608
  N   2.01482105969287     -0.10231747529086      0.02652570396697
  O   2.97058704768483     -0.83585584187429      0.27991100905898
  O   2.06336446902332      1.05462122847480     -0.38461034258640
