15

C	0.0	0.0	0.0
C	-0.506136	0.103731	-1.42605
Br	1.990235	0.0	0.0
H	-1.594821	0.244741	-1.282101
H	-0.35123	-0.89495	-1.841097
N	-0.268393	1.352693	0.766244
O	-0.285623	1.283603	1.990003
O	-0.436337	2.382617	0.12097
N	-0.630886	-1.053663	0.638601
H	-1.677482	-0.834886	0.482554
H	-0.44337	-1.010318	1.635582
N	0.157543	1.080291	-2.284958
H	-0.121191	0.882178	-3.238263
H	-0.196933	1.996514	-2.045129
H	-3.014446	0.0	0.0
