15

C	0.0	0.0	0.0
C	-0.542107	0.206471	-1.408864
Br	1.936424	0.0	0.0
H	-0.349591	-0.759528	-1.905526
H	-1.636234	0.268961	-1.222525
N	-0.337059	1.217936	0.886825
O	-0.978196	1.015726	1.910101
O	0.085222	2.305262	0.508382
N	-0.552759	-1.138015	0.629798
H	-0.35385	-1.939272	0.038561
H	-1.590666	-0.954887	0.596272
N	-0.064659	1.357371	-2.151468
H	-0.610935	1.437097	-3.001652
H	0.908459	1.236955	-2.395813
H	-3.107999	0.0	0.0
