15

C	0.0	0.0	0.0
C	-0.222681	-0.081873	-1.525991
Br	2.043724	0.0	0.0
H	0.373659	0.713887	-1.981185
H	-1.272223	0.11721	-1.728334
N	-0.573158	1.20679	0.573652
O	-0.541249	1.277171	1.831138
O	-0.544793	2.227688	-0.17494
N	-0.31967	-1.174413	0.75406
H	-0.111576	-1.963165	0.152231
H	0.262058	-1.193734	1.582308
N	0.105821	-1.429116	-2.00829
H	1.102217	-1.484504	-2.178098
H	-0.372412	-1.588007	-2.885596
H	-1.968925	0.0	0.0
