15

C	-0.039965	0.045409	0.003047
C	-0.687954	0.195678	-1.356175
F	1.352079	-0.086829	-0.119193
H	-0.512578	1.183271	-1.76583
H	-1.761273	-0.053892	-1.199459
N	-0.053516	1.495781	0.699137
O	-0.128804	1.497211	1.925378
O	0.077563	2.50174	0.006465
N	-0.608982	-0.910455	0.777325
H	-1.662769	-0.947552	0.54996
H	-0.373937	-0.794937	1.753249
N	-0.106286	-0.757796	-2.333989
O	0.263758	-0.28818	-3.41474
O	-0.060063	-1.948254	-2.042676
F	-2.960341	-0.663842	-0.111559
