15

C	0.012943	0.027109	0.007529
C	-0.621249	0.045531	-1.378477
F	1.380639	-0.105867	-0.10043
H	-1.722692	-0.105091	-1.158203
H	-0.370822	0.943708	-1.936205
N	-0.18904	1.473288	0.532818
O	0.455077	2.344413	-0.051445
O	-0.958028	1.657528	1.464919
N	-0.503346	-0.865645	0.953208
H	-0.218923	-1.786278	0.636403
H	-1.543046	-0.815801	0.790661
N	-0.153317	-1.089727	-2.197553
O	0.036414	-2.180366	-1.657648
O	-0.017458	-0.889742	-3.406296
F	-2.865537	-0.561302	-0.121449
