15

C	0.0	0.0	0.0
C	-0.631624	-0.027832	-1.373321
Cl	1.794069	0.0	0.0
H	-0.392024	0.866296	-1.945213
H	-1.762348	-0.069256	-1.081747
C	-0.378509	1.299803	0.584915
N	-0.559258	2.356482	1.065058
C	-0.46471	-1.120286	0.926437
H	-0.095089	-0.931661	1.936783
H	-1.561625	-1.088239	0.902287
H	-0.101626	-2.078242	0.564288
N	-0.23174	-1.164126	-2.19966
O	0.181829	-0.919882	-3.341549
O	-0.376538	-2.306881	-1.750168
H	-2.995603	0.0	0.0
