15

C	0.0	0.0	0.0
C	-0.623213	0.011452	-1.370693
Cl	1.793942	0.0	0.0
H	-1.750105	0.113562	-1.098362
H	-0.425699	-0.920026	-1.89829
C	-0.381326	1.162901	0.820007
N	-0.551072	2.036164	1.587561
C	-0.479207	-1.269388	0.696393
H	-0.122725	-2.142149	0.143065
H	-1.578067	-1.216867	0.689773
H	-0.100254	-1.307402	1.719166
N	-0.167309	1.097349	-2.233611
O	-0.119752	2.234619	-1.757861
O	0.098639	0.820595	-3.411155
H	-2.993143	0.0	0.0
