15

C	0.0	0.0	0.0
C	-0.646195	0.004467	-1.358209
Cl	1.793743	0.0	0.0
H	-1.787139	0.099602	-1.044787
H	-0.465207	-0.931243	-1.884142
C	-0.376132	1.166576	0.818672
N	-0.551515	2.037848	1.587119
C	-0.470919	-1.266951	0.709544
H	-0.084195	-1.29881	1.729288
H	-1.568333	-1.219885	0.712537
H	-0.118407	-2.141278	0.158458
N	-0.214445	1.080611	-2.23702
O	-0.084021	2.211469	-1.756867
O	-0.042792	0.810324	-3.432459
H	-2.958211	0.0	0.0
