15

C	0.0	0.0	0.0
C	-0.62587	-0.031603	-1.379442
Cl	1.794192	0.0	0.0
H	-1.753091	-0.076937	-1.102957
H	-0.377069	0.859854	-1.951914
C	-0.37785	1.301282	0.579853
N	-0.557797	2.364776	1.046179
C	-0.470449	-1.117999	0.922558
H	-0.103317	-0.934295	1.934175
H	-0.103334	-2.075518	0.56152
H	-1.567669	-1.08447	0.895517
N	-0.21826	-1.17415	-2.194143
O	0.241731	-0.937281	-3.320025
O	-0.400377	-2.313919	-1.7526
H	-2.999954	0.0	0.0
