17
Coordinates from ORCA-job run
  C   0.72158959714676     -0.12415100422852      0.16438134119501
  C   -0.76015970941436     -0.09084719939415      0.63429444048283
  Cl  1.62118254910910     -1.06245763323692      1.37199911092089
  H   -0.77103848819114      0.47592160535604      1.56596801649046
  C   1.32480965533019      1.25350774732841      0.02655558470595
  H   1.23383481306372      1.77646063504353      0.97977482684459
  H   0.81800942989249      1.82734359101167     -0.74758889701096
  H   2.37897076022541      1.17509429661473     -0.23706990614913
  N   0.82153152169729     -0.88027487051214     -1.16152034453947
  O   0.50375575554330     -2.06433714528506     -1.14947855036200
  O   1.18467956333281     -0.24088023434547     -2.14142629519857
  N   -1.48784304808011     -1.29840333437617      0.79339461527258
  H   -1.29511078446710     -1.95729245668880      0.05081149888562
  H   -1.28805252944926     -1.72328531649396      1.68723369738411
  N   -1.49540055085602      0.77108732645053     -0.36341777171354
  O   -1.77219340300801      1.91942944254145     -0.02932681533120
  O   -1.73956513187509      0.24308455021486     -1.44458455187717
