17
Coordinates from ORCA-job run
  C   0.79214011499705     -0.00686968505868      0.12910786436693
  C   -0.61698678531149     -0.47898082488141      0.51651027481216
  Cl  1.77298995382166      0.25850894926683      1.58149866292385
  H   -0.52599990966386     -1.35883637647821      1.14988471045291
  C   0.84685904098273      1.20127501115566     -0.76987309174263
  H   1.88261628416043      1.42268776579371     -1.02036047617039
  H   0.30780174352995      1.00763459947431     -1.69690437266301
  H   0.40943646362245      2.05741449351034     -0.25844007258103
  N   1.40020396706776     -1.22599625157092     -0.58690610690498
  O   1.93306313364403     -1.03229714626036     -1.67117726660650
  O   1.30967718266915     -2.29794182524622     -0.00385408312430
  N   -1.36228826845706     -0.75888946119354     -0.65944951624341
  H   -2.13496515587821     -1.38174913998793     -0.46661119507103
  H   -1.71308763787175      0.09256261927890     -1.08040386273304
  N   -1.26834270332773      0.57776207520571      1.40131205222158
  O   -1.76794109205567      1.54312261162495      0.82377005885753
  O   -1.26617633192943      0.37959258536685      2.61189642020536
