17
Coordinates from ORCA-job run
  C   0.62931022388797     -0.22721937705276     -0.15175486623441
  C   -0.80205978431417      0.21148503180085      0.17739249007581
  Cl  0.81652680878498     -1.94409644317064      0.20758963452607
  H   -0.96335476031423      1.19313284168161     -0.27192263105137
  C   1.65864976836267      0.58696295764755      0.60794086625397
  H   1.50322684438953      1.64768217910837      0.40772421033543
  H   2.65885929545178      0.29648955715925      0.28062761393504
  H   1.55405954377649      0.40593863793776      1.67471563124388
  N   0.90088857359017      0.03393789132860     -1.64243934955981
  O   1.36116361860147     -0.85676333856768     -2.33418716369461
  O   0.67985823840972      1.19084710917679     -1.98285363735724
  N   -1.02270331454698      0.24594251600877      1.57148336117372
  H   -1.03752462422658     -0.68981811625694      1.95848781753267
  H   -1.90336944924634      0.69272973816147      1.78693019968176
  N   -1.77784393137472     -0.71363960638133     -0.57881058385234
  O   -1.63201622510542     -0.77406070445489     -1.79446932014389
  O   -2.62467082612634     -1.30155087412678      0.08354572713532
