19

C	-0.411564	-0.033901	-1.480102
C	0.0	0.0	0.0
Br	-2.344877	-0.378249	-1.660705
H	1.095564	0.0	0.0
N	-0.163876	1.337503	-2.103948
O	0.874804	1.460548	-2.747793
O	-0.970663	2.237676	-1.883863
C	0.35353	-1.09007	-2.240245
H	1.421852	-0.90754	-2.102111
H	0.101027	-1.072883	-3.301723
H	0.097756	-2.055328	-1.806847
N	-0.37665	-1.28921	0.582883
H	0.36033	-1.569576	1.218581
H	-1.241042	-1.200115	1.103928
C	-0.493875	1.199076	0.795464
H	-1.586274	1.266317	0.783305
H	-0.154569	1.072702	1.826815
H	-0.083919	2.139657	0.427122
Br	3.543412	0.0	0.0
