19

C	-0.586447	-5.1e-05	-1.420457
C	0.0	0.0	0.0
Br	0.255799	1.381643	-2.505027
H	1.101063	0.0	0.0
N	-0.213653	-1.340404	-2.050216
O	0.961922	-1.536256	-2.325898
O	-1.12195	-2.16499	-2.166585
C	-2.088286	0.16916	-1.46762
H	-2.346484	1.182223	-1.160225
H	-2.460826	0.005519	-2.478541
H	-2.540238	-0.55492	-0.791168
N	-0.506719	-1.218173	0.664532
H	0.1354	-1.9757	0.447416
H	-0.416501	-1.071917	1.664438
C	-0.455251	1.216559	0.792529
H	-1.519434	1.157747	1.038125
H	-0.254296	2.142917	0.25379
H	0.11895	1.251017	1.72166
Br	3.639843	0.0	0.0
