19

C	-0.353756	-0.049094	-1.504988
C	0.0	0.0	0.0
Br	-2.284679	-0.374598	-1.787305
H	1.097156	0.0	0.0
N	-0.058279	1.309838	-2.13261
O	1.038993	1.419729	-2.675308
O	-0.882397	2.211322	-2.006035
C	0.431838	-1.115954	-2.234959
H	0.256849	-1.064519	-3.310681
H	1.493922	-0.96957	-2.017894
H	0.119171	-2.096203	-1.874236
N	-0.372812	-1.224627	0.698082
H	0.313576	-1.94528	0.516242
H	-1.290307	-1.550542	0.41956
C	-0.530712	1.213058	0.741869
H	-0.232719	1.099268	1.784414
H	-0.11075	2.14462	0.362539
H	-1.62186	1.27204	0.689576
Br	3.558149	0.0	0.0
