15

C	-0.533328	0.031425	-1.442202
C	0.0	0.0	0.0
Cl	0.300572	-1.175747	-2.420478
H	1.092575	0.0	0.0
C	-1.97327	-0.215212	-1.469031
N	-3.127353	-0.433304	-1.423908
N	-0.286453	1.391137	-2.110017
O	-0.981009	1.643445	-3.088445
O	0.604337	2.080116	-1.636925
N	-0.404487	-1.270008	0.589966
H	0.384573	-1.646712	1.100033
H	-1.195007	-1.167268	1.211801
C	-0.519789	1.155268	0.737199
N	-0.998154	2.024035	1.368979
Cl	3.214561	0.0	0.0
