15

C	-0.51608	-0.023805	-1.448049
C	0.0	0.0	0.0
Cl	0.302703	-1.296013	-2.353983
H	1.094678	0.0	0.0
C	-1.961326	-0.237039	-1.486061
N	-3.124666	-0.401754	-1.447005
N	-0.234093	1.297881	-2.182301
O	-0.831692	1.454814	-3.240149
O	0.57256	2.057171	-1.667759
N	-0.411057	-1.248667	0.632449
H	-1.192842	-1.114226	1.260796
H	0.379383	-1.614458	1.148233
C	-0.527647	1.17702	0.693986
N	-1.031762	2.075733	1.260062
Cl	3.215324	0.0	0.0
