15

C	-0.532617	-0.027681	-1.442177
C	0.0	0.0	0.0
Cl	0.305864	-1.267976	-2.373057
H	1.092401	0.0	0.0
C	-1.971235	-0.282055	-1.459051
N	-3.124837	-0.502062	-1.410779
N	-0.29132	1.305948	-2.163388
O	-0.99443	1.522899	-3.144449
O	0.604417	2.010034	-1.723248
N	-0.400516	-1.246368	0.639499
H	0.380498	-1.5871	1.186352
H	-1.209292	-1.127081	1.235084
C	-0.523575	1.181577	0.691643
N	-1.014397	2.060587	1.298356
Cl	3.215583	0.0	0.0
