15

C	-0.517626	0.028908	-1.4474
C	0.0	0.0	0.0
Cl	0.311218	-1.193744	-2.408779
H	1.096423	0.0	0.0
C	-1.960728	-0.195603	-1.492278
N	-3.12162	-0.378097	-1.462935
N	-0.246834	1.382727	-2.12421
O	0.597888	2.098278	-1.606721
O	-0.881258	1.603372	-3.149586
N	-0.40689	-1.269981	0.587145
H	0.371698	-1.63919	1.118753
H	-1.214961	-1.170656	1.186457
C	-0.524782	1.152745	0.736708
N	-1.00295	2.010968	1.382652
Cl	3.213956	0.0	0.0
