15

C	-0.435907	0.029165	-1.461239
C	0.0	0.0	0.0
Cl	0.058292	1.529639	-2.254275
H	1.094701	0.0	0.0
C	0.086675	-1.124604	-2.185762
N	0.485484	-2.049882	-2.790168
N	-1.976811	-0.055097	-1.591768
O	-2.635271	0.097041	-0.570907
O	-2.415017	-0.247932	-2.717054
N	-0.432814	-1.256015	0.58359
H	-1.273909	-1.147071	1.132339
H	0.317192	-1.623872	1.154656
C	-0.440941	1.198123	0.72143
N	-0.807627	2.119002	1.352551
Cl	3.186619	0.0	0.0
