15

C	-0.442979	-0.055834	-1.462523
C	0.0	0.0	0.0
Cl	-0.194287	1.486381	-2.29689
H	1.095526	0.0	0.0
C	0.249221	-1.124702	-2.173604
N	0.790216	-1.986196	-2.762816
N	-1.952297	-0.359733	-1.553703
O	-2.344244	-0.933437	-2.561106
O	-2.645638	0.038421	-0.627207
N	-0.414727	-1.251698	0.612801
H	0.340582	-1.597165	1.192595
H	-1.255217	-1.141346	1.164
C	-0.461868	1.205046	0.690943
N	-0.783132	2.149696	1.311466
Cl	3.197691	0.0	0.0
