16
Coordinates from ORCA-job run
  C   -0.57314343574469      0.36206783286415     -0.10176205252581
  C   0.65508072178167     -0.03584786349259      0.36349631108337
  N   -1.06405785423119      1.68946780260432      0.14363896267804
  O   -2.10794253857006      2.02188441757284     -0.42777030017522
  O   -0.44146201619446      2.45484984943166      0.90328814272350
  C   -1.47220818871182     -0.46651473036550     -0.96680993390164
  H   -1.52989044746530     -0.06686183044177     -1.98279961635972
  H   -2.48862446650927     -0.46138027683279     -0.56862063407500
  H   -1.13192238177444     -1.49950672889705     -1.01492035767660
  N   1.44704800239399      0.66702689121384      1.21456320413324
  H   2.41804067662415      0.41271730857419      1.26375596544230
  H   1.19276958361100      1.62934397870763      1.38098134989511
  C   1.17256925849182     -1.40835035893189      0.01185600883105
  H   2.20696184578875     -1.52676532212210      0.33939210086675
  H   1.13520073409388     -1.58866387400184     -1.06273581223913
  H   0.58058050641597     -2.18246709588310      0.50544666129975
