16
Coordinates from ORCA-job run
  C   -0.60047816645275      0.11404456451818     -0.31927472661743
  C   0.63518316501572     -0.36609967664305      0.03846679297153
  N   -1.44235567008711     -0.63345790883619     -1.22310666364670
  O   -2.58976396789760     -0.21310175900643     -1.40337438645855
  O   -1.00798759446511     -1.65398533987525     -1.78603794580687
  C   -1.27610718174531      1.34202072657482      0.21391597258513
  H   -1.63814347919208      1.95936723410688     -0.61026838220280
  H   -2.14934639948511      1.07997766317284      0.81597301343828
  H   -0.60519663112809      1.94446705662953      0.82049257985039
  N   1.24924444584492     -1.45603003341730     -0.50125981536806
  H   0.68032880552417     -2.07187445605325     -1.06109649971716
  H   2.00576285802647     -1.85799525042852      0.02607164374210
  C   1.50431962336278      0.33285444026594      1.05110448382941
  H   1.13541970416500      1.30746618969666      1.35086583518643
  H   2.50869514537042      0.45866991680181      0.63925755462333
  H   1.58742534314367     -0.28632336750667      1.95027054359095
