16
Coordinates from ORCA-job run
  C   -0.62172369777894      0.05045027555721     -0.28648491124720
  C   0.66045848559841     -0.35354513586162     -0.01221036274378
  N   -1.47684400716248     -0.72632497594753     -1.14006575514312
  O   -2.66334964777316     -0.38916037846937     -1.21062493761553
  O   -1.01530337960717     -1.69555593467084     -1.77052884611162
  C   -1.29625679058795      1.23598364431833      0.33222718616119
  H   -0.57935822935709      1.87200537349686      0.84880187926502
  H   -2.07272525368871      0.93287589162681      1.03977295975502
  H   -1.78787035253982      1.83385779208469     -0.43744746666869
  N   1.31823725205317     -1.37518434477935     -0.62098118273367
  H   2.12214800173531     -1.75404918295802     -0.15139529232083
  H   0.76348443909159     -1.99598735509475     -1.19132057176359
  C   1.49590533744662      0.43636261734327      0.96426624133759
  H   0.96849581824387      0.59821290897408      1.90455750308577
  H   2.42923796339515     -0.08487172199986      1.18409225602664
  H   1.75446406093119      1.41293052638008      0.54834130071681
