16
Coordinates from ORCA-job run
  C   -0.60321542982852      0.13937349336750     -0.29605078200743
  C   0.58069010351216     -0.47265872835451      0.03114921506789
  N   -1.59051266468289     -0.53383982813840     -1.09266235365101
  O   -1.32570486755938     -1.63030946224054     -1.61965176428194
  O   -2.68785810898981      0.01939424023144     -1.22033950228933
  C   -1.03786802051330      1.48345185500913      0.20166139142395
  H   -1.86408869426304      1.40039183149622      0.91289453479075
  H   -1.39757960367786      2.09461034613030     -0.62824082175987
  H   -0.21502152696201      2.01169479727705      0.68032253928234
  N   1.02892417948506     -1.65232142055198     -0.47175529507121
  H   1.75608369667794     -2.12759932434450      0.03351264277374
  H   0.36497943623740     -2.20648938084798     -0.99171594625168
  C   1.55476417072357      0.23198434458546      0.94216651843974
  H   1.07357848635117      0.57053577785902      1.85998817854861
  H   2.37693497426454     -0.43164741984040      1.21579733525867
  H   1.98689386922497      1.10342887836218      0.44492410972677
