16
Coordinates from ORCA-job run
  C   -0.59826096433528      0.23692041802594     -0.22640222005915
  C   0.60244270945712     -0.16930667895425      0.27185432562022
  N   -0.67361865527356      0.90174785860391     -1.50770763268857
  O   -1.75088059108912      0.83639551955412     -2.10854603345001
  O   0.31753139525164      1.49846336163011     -1.94170152085780
  C   -1.90270093093183     -0.05050943712639      0.45067907483617
  H   -2.69326313389985      0.55939007920203      0.01923413941857
  H   -1.83556581836757      0.18166952722480      1.51767252944847
  H   -2.20659110507840     -1.09771267259894      0.33964914255621
  N   0.63467942646501     -0.80774786080066      1.49637946551833
  H   1.45999447905623     -1.35210426527815      1.68378402174941
  H   -0.21508994653798     -1.24638453241135      1.81221717633292
  C   1.95456768977326      0.07471960358456     -0.33600595825003
  H   1.95413278118460     -0.11442900812252     -1.40782449551988
  H   2.70075902660250     -0.56668336852344      0.13931479226966
  H   2.25186363772323      1.11557145599024     -0.20359680692454
