16
Coordinates from ORCA-job run
  C   -0.60483223650548      0.23359041544988     -0.23306870134858
  C   0.59213887231147     -0.21515836537391      0.23531738836575
  N   -0.66361699344058      1.03906301167890     -1.43498803656659
  O   -1.73055770867294      1.06497649419077     -2.05510834571882
  O   0.34096295999701      1.67106628986420     -1.77895121753812
  C   -1.90701046098199     -0.13912012329382      0.40543747608098
  H   -2.73599014087285      0.23192200098270     -0.19162762599723
  H   -1.99420400372926      0.28943426583913      1.41085435039454
  H   -2.00956442972308     -1.22596969788396      0.48790510772161
  N   0.60191318218779     -1.03957637633421      1.34478753126449
  H   -0.19532549555671     -0.99026592930081      1.95896318774972
  H   1.48074049840631     -1.09972712620575      1.83259490155537
  C   1.94546779603674      0.00136333761595     -0.37910128741385
  H   2.33321015466173      0.98914897542117     -0.12312636222570
  H   1.90958759812009     -0.04709892019660     -1.46515308048763
  H   2.63708040776176     -0.76264825245366     -0.01573528583592
