16
Coordinates from ORCA-job run
  C   -0.60479379765300      0.23345264792320     -0.23296167833919
  C   0.59230192280087     -0.21508201484885      0.23528129578647
  N   -0.66377353261774      1.03915051049775     -1.43471154464950
  O   -1.73050656413026      1.06435386738439     -2.05520335477370
  O   0.34046055676629      1.67198738074545     -1.77816273188812
  C   -1.90686965470197     -0.13976311223897      0.40546671814544
  H   -2.00873036422600     -1.22665105509178      0.48828449918476
  H   -2.73595728818091      0.23052694508218     -0.19191209971277
  H   -1.99449645968546      0.28906408943163      1.41072691154307
  N   0.60233243755054     -1.03960829189295      1.34468536760436
  H   1.48130879718109     -1.09984765009333      1.83222184653682
  H   -0.19467831970053     -0.99016613161707      1.95914755886787
  C   1.94550543226741      0.00175324721323     -0.37928853467085
  H   2.33346997672315      0.98923662570592     -0.12245734319962
  H   2.63707557462825     -0.76269223849103     -0.01674926461713
  H   1.90935128297828     -0.04571481970976     -1.46536764581790
