16
Coordinates from ORCA-job run
  C   -0.60832594851813      0.22835956042901     -0.23019941781405
  C   0.59512576684693     -0.20967131252317      0.23187817748409
  N   -0.68395351099191      1.00485656561821     -1.44968658730863
  O   -1.75841739620610      1.01264583322818     -2.05710317203828
  O   0.31444078197739      1.63161625808104     -1.82037031481319
  C   -1.90137338914899     -0.12819544129856      0.43562024536898
  H   -1.97429149212687      0.32485976035823      1.43129853639135
  H   -2.00254318435067     -1.21268599024973      0.54608429662798
  H   -2.73876467174512      0.22744887902518     -0.15914324646868
  N   0.62152003448815     -1.00546436443435      1.36128371084356
  H   1.50805741847143     -1.05835037265046      1.83556438535194
  H   -0.16615094009251     -0.94287881536398      1.98625875628849
  C   1.93964120732709     -0.00911640653387     -0.40703455940331
  H   2.33508925953000      0.98062345739146     -0.17053210564743
  H   1.88658623977749     -0.07248608068885     -1.49145651980896
  H   2.63335982476182     -0.77056153038835     -0.04246218505387
