15

C	-0.523938	-0.027784	-1.421309
C	0.0	0.0	0.0
Br	0.457526	-1.371839	-2.487564
H	1.092411	0.0	0.0
C	-1.937933	-0.363279	-1.500609
N	-3.078966	-0.649305	-1.499278
N	-0.304059	1.309068	-2.121784
O	0.636162	1.987602	-1.708513
O	-1.039047	1.562738	-3.074904
N	-0.341223	-1.254098	0.653313
H	0.47488	-1.541492	1.193857
H	-1.14508	-1.162547	1.26483
C	-0.49375	1.179023	0.698785
N	-0.910692	2.104001	1.297221
H	2.503402	0.0	0.0
