15

C	-0.467621	0.001542	-1.470423
C	0.0	0.0	0.0
Br	0.370954	-1.496685	-2.444277
H	1.093928	0.0	0.0
C	-1.912377	-0.131435	-1.602831
N	-3.079443	-0.29006	-1.615415
N	-0.023624	1.292761	-2.180192
O	-0.893211	1.909582	-2.795026
O	1.151096	1.597483	-2.069189
N	-0.458473	-1.12331	0.77293
H	-1.45012	-1.305831	0.652
H	0.092529	-1.940819	0.533451
C	-0.463285	1.254885	0.583022
N	-0.843686	2.267054	1.046753
H	2.575418	0.0	0.0
