15

C	-0.545375	-0.032371	-1.413618
C	0.0	0.0	0.0
Br	0.482939	-1.30848	-2.519246
H	1.092305	0.0	0.0
C	-1.942613	-0.432526	-1.472955
N	-3.069006	-0.772126	-1.453823
N	-0.397007	1.32045	-2.09882
O	-1.181298	1.570806	-3.009842
O	0.530969	2.020727	-1.716331
N	-0.310677	-1.267414	0.646399
H	-1.076854	-1.18694	1.30139
H	0.533476	-1.560581	1.133241
C	-0.506969	1.159916	0.714311
N	-0.942123	2.067729	1.326735
H	2.501632	0.0	0.0
