15

C	-0.529094	-0.027087	-1.421087
C	0.0	0.0	0.0
Br	0.445587	-1.372548	-2.484476
H	1.092344	0.0	0.0
C	-1.946876	-0.347521	-1.495755
N	-3.094102	-0.611383	-1.484155
N	-0.299091	1.306407	-2.127926
O	0.610518	2.000479	-1.693884
O	-1.005279	1.543385	-3.104033
N	-0.331214	-1.26004	0.650633
H	0.510888	-1.566764	1.132116
H	-1.089026	-1.161401	1.312874
C	-0.505781	1.166765	0.704377
N	-0.940762	2.076654	1.313008
H	2.513888	0.0	0.0
