15

C	-0.354515	-0.05079	-1.468442
C	0.0	0.0	0.0
Br	0.191216	1.582255	-2.382613
H	1.096934	0.0	0.0
C	0.270571	-1.194264	-2.128162
N	0.721423	-2.125222	-2.686987
N	-1.878085	-0.200035	-1.754755
O	-2.209178	-0.410723	-2.913895
O	-2.628863	-0.10936	-0.791509
N	-0.308578	-1.205574	0.731215
H	-1.186863	-1.636528	0.481489
H	0.475754	-1.843484	0.64535
C	-0.505846	1.194667	0.657921
N	-0.865896	2.155314	1.233857
H	2.52782	0.0	0.0
