15

C	-0.454002	-0.041951	-1.43567
C	0.0	0.0	0.0
Br	-0.144575	1.656844	-2.338744
H	1.09584	0.0	0.0
C	0.226736	-1.101756	-2.172282
N	0.747713	-1.959489	-2.783848
N	-1.972757	-0.317045	-1.570437
O	-2.669161	-0.030074	-0.60612
O	-2.36455	-0.775018	-2.636485
N	-0.326613	-1.283238	0.600152
H	-1.112275	-1.219676	1.233039
H	0.50425	-1.60042	1.095645
C	-0.463632	1.162831	0.735449
N	-0.786567	2.067937	1.415119
H	2.538402	0.0	0.0
