15

C	-0.542565	-0.039064	-1.414262
C	0.0	0.0	0.0
Br	0.471694	-1.340681	-2.501038
H	1.093602	0.0	0.0
C	-1.94546	-0.421307	-1.471772
N	-3.082953	-0.721399	-1.443593
N	-0.374718	1.303937	-2.114879
O	-1.142582	1.547884	-3.041476
O	0.553061	2.001704	-1.72642
N	-0.316343	-1.262645	0.653918
H	-1.073306	-1.170892	1.317877
H	0.530396	-1.560315	1.133933
C	-0.507657	1.163467	0.70625
N	-0.944789	2.076767	1.308122
H	2.501439	0.0	0.0
