13

C	0.0	0.0	0.0
C	-0.580202	-0.057448	-1.406111
Br	1.943509	0.0	0.0
H	-1.695168	0.01643	-1.228809
H	-0.325865	-0.912166	0.503433
C	-0.424409	1.144671	0.805351
N	-0.599226	2.036725	1.549724
C	-0.253759	-1.309284	-2.067621
N	-0.004615	-2.34959	-2.553499
N	-0.178375	1.095742	-2.272613
O	0.040565	2.162616	-1.709971
O	-0.164544	0.904234	-3.485761
Cl	-3.30386	0.0	0.0
