13

C	0.0	0.0	0.0
C	-0.582047	-0.18476	-1.394568
Br	1.943431	0.0	0.0
H	-1.697307	-0.097983	-1.222984
H	-0.324624	-0.863621	0.583847
C	-0.426329	1.211909	0.698903
N	-0.606788	2.166533	1.359522
C	-0.252349	-1.488824	-1.942691
N	-0.001942	-2.565591	-2.34065
N	-0.187075	0.887867	-2.362159
O	0.051703	1.996387	-1.896502
O	-0.199979	0.593591	-3.554386
Cl	-3.306162	0.0	0.0
