14

C	-0.151809	-0.047039	-1.52754
C	0.0	0.0	0.0
F	-0.243637	1.338287	-1.906577
H	1.089094	0.0	0.0
H	-0.483877	0.879474	0.409084
N	0.963206	-0.679094	-2.073657
H	1.811415	-0.469978	-1.505267
H	1.061801	-0.508592	-3.063271
C	-1.422377	-0.619501	-2.032113
N	-2.441647	-1.038161	-2.438755
N	-0.5406	-1.182662	0.677123
O	-0.226556	-2.294208	0.25391
O	-1.262451	-0.990867	1.660867
F	2.6317	0.0	0.0
