14

C	-0.534757	-0.026611	-1.412209
C	0.0	0.0	0.0
F	-1.943929	0.26152	-1.38985
H	1.090269	0.0	0.0
H	-0.396718	-0.837195	0.569641
N	0.150026	0.830651	-2.293761
H	0.387612	1.689991	-1.816755
H	-0.396854	1.005221	-3.126563
C	-0.480088	-1.413733	-1.934016
N	-0.458529	-2.498794	-2.379697
N	-0.436158	1.209995	0.704358
O	-0.84753	1.092824	1.858855
O	-0.308933	2.298058	0.132652
F	2.503927	0.0	0.0
