14

C	-0.546291	-0.028083	-1.40046
C	0.0	0.0	0.0
F	-1.946099	-0.319133	-1.364623
H	1.088459	0.0	0.0
H	-0.370082	0.886673	0.517363
N	-0.319836	1.229161	-2.016631
H	-0.666157	1.976762	-1.430808
H	-0.758821	1.263613	-2.927084
C	0.031552	-1.07409	-2.270351
N	0.421266	-1.848549	-3.0607
N	-0.464944	-1.147009	0.780041
O	-0.731423	-0.958682	1.969738
O	-0.5094	-2.247481	0.227148
F	2.506758	0.0	0.0
