14

C	-0.159439	0.102038	-1.519685
C	0.0	0.0	0.0
F	-1.385897	0.6418	-1.890541
H	1.089266	0.0	0.0
H	-0.473509	-0.862871	0.458128
N	0.89272	0.863768	-2.142499
H	0.727077	1.820549	-1.842406
H	1.747995	0.581902	-1.627953
C	-0.138256	-1.282218	-2.054438
N	-0.182191	-2.379739	-2.465724
N	-0.474189	1.198297	0.692986
O	-0.286753	2.299213	0.172776
O	-1.002585	1.044891	1.79555
F	2.583546	0.0	0.0
