17

C	-0.383975	-0.022367	-1.470907
C	0.0	0.0	0.0
Br	-2.369352	-0.035009	-1.644728
H	1.092931	0.0	0.0
H	-0.390929	0.888448	0.491976
C	0.134471	1.279342	-2.067493
H	-0.111961	1.336541	-3.129774
H	-0.295143	2.146555	-1.561848
H	1.22234	1.298623	-1.941946
C	0.174856	-1.212136	-2.232395
H	-0.251893	-2.152634	-1.89106
H	-0.026792	-1.091538	-3.300292
H	1.256729	-1.239023	-2.061094
N	-0.497065	-1.149561	0.788829
O	-1.267433	-0.903935	1.721146
O	-0.111648	-2.276962	0.479796
Br	3.502329	0.0	0.0
