17

C	-0.41496	0.009136	-1.461891
C	0.0	0.0	0.0
Br	-2.404178	-0.006546	-1.580097
H	1.092968	0.0	0.0
H	-0.386298	-0.881721	0.508565
C	0.100593	1.204065	-2.244007
H	-0.323372	2.139771	-1.886316
H	-0.140336	1.081645	-3.303263
H	1.187239	1.243982	-2.112737
C	0.094736	-1.291653	-2.066641
H	-0.312182	-2.159297	-1.54257
H	-0.184146	-1.357072	-3.120776
H	1.186168	-1.301092	-1.972887
N	-0.485634	1.159787	0.785424
O	-0.085753	2.280084	0.470983
O	-1.259614	0.928409	1.717067
Br	3.500929	0.0	0.0
