14

C	-0.522744	-0.035127	-1.429304
C	0.0	0.0	0.0
Br	0.212974	1.398386	-2.496728
H	1.096902	0.0	0.0
H	-0.345468	-0.922767	0.478715
C	-0.245848	-1.306865	-2.090958
N	-0.040087	-2.331648	-2.631382
N	-2.059943	0.099753	-1.367631
O	-2.60037	1.138289	-1.712492
O	-2.621224	-0.880247	-0.876631
N	-0.472189	1.205165	0.664394
H	-1.053677	0.975637	1.459327
H	0.347796	1.698379	1.004424
H	2.783472	0.0	0.0
