14

C	-0.56777	0.000244	-1.403627
C	0.0	0.0	0.0
Br	0.317062	-1.339657	-2.538246
H	1.089643	0.0	0.0
H	-0.335962	0.924151	0.486935
C	-1.997863	-0.278952	-1.432548
N	-3.150894	-0.504637	-1.385037
N	-0.353878	1.346388	-2.089148
O	0.537732	2.056576	-1.641274
O	-1.072841	1.599624	-3.053552
N	-0.430545	-1.220874	0.670783
H	0.39264	-1.625662	1.10485
H	-1.117751	-1.030961	1.386835
H	2.770949	0.0	0.0
