14

C	-0.61635	0.087301	-1.379258
C	0.0	0.0	0.0
Br	0.114462	-1.287474	-2.564059
H	1.090212	0.0	0.0
H	-0.312432	-0.963258	0.42089
C	-2.066617	-0.069711	-1.34308
N	-3.22093	-0.259368	-1.221737
N	-0.31576	1.435504	-2.033684
O	-1.136213	1.834172	-2.858971
O	0.726561	1.982605	-1.716146
N	-0.492067	1.147369	0.758425
H	0.321814	1.63966	1.111881
H	-1.058501	0.855181	1.543035
H	2.828248	0.0	0.0
