14

C	-0.594966	0.023135	-1.390266
C	0.0	0.0	0.0
Br	0.141124	-1.427134	-2.481374
H	1.091248	0.0	0.0
H	-0.314268	-0.943678	0.460668
C	-2.047425	-0.109934	-1.3802
N	-3.208459	-0.278514	-1.294911
N	-0.261147	1.328005	-2.114455
O	0.72992	1.932309	-1.74087
O	-1.004302	1.635815	-3.044257
N	-0.50642	1.177223	0.704642
H	0.301763	1.708444	1.011724
H	-1.041493	0.909784	1.518961
H	2.827783	0.0	0.0
