14

C	-0.515771	-0.059741	-1.404638
C	0.0	0.0	0.0
Br	-2.516179	-0.075866	-1.493009
H	1.100917	0.0	0.0
H	-0.296211	0.976366	0.400353
C	-0.08281	1.074339	-2.210616
N	0.261264	2.008471	-2.836234
N	-0.061813	-1.324903	-2.139449
O	0.613896	-2.121005	-1.504527
O	-0.385276	-1.415538	-3.320167
N	-0.507737	-1.108961	0.800987
H	-0.932899	-0.754532	1.644767
H	0.295449	-1.666266	1.070183
H	2.735889	0.0	0.0
