14

C	-0.574514	0.006742	-1.398252
C	0.0	0.0	0.0
Br	0.124798	-1.503991	-2.429649
H	1.09327	0.0	0.0
H	-0.318361	-0.940059	0.465252
C	-2.031517	-0.07116	-1.409457
N	-3.200855	-0.174186	-1.32811
N	-0.185167	1.275661	-2.158289
O	0.757057	1.917477	-1.726413
O	-0.841197	1.518016	-3.170109
N	-0.508611	1.183082	0.692028
H	-1.066884	0.918429	1.490589
H	0.29903	1.702358	1.024149
H	2.825127	0.0	0.0
