14

C	-0.487061	0.193421	-1.406644
C	0.0	0.0	0.0
Br	0.031623	1.95659	-2.081602
H	1.108888	0.0	0.0
H	-0.346045	0.842294	0.606921
C	-0.01105	-0.82909	-2.329479
N	0.375199	-1.634138	-3.09322
N	-2.031099	0.18324	-1.488507
O	-2.538501	-0.036968	-2.582471
O	-2.642606	0.409048	-0.449176
N	-0.447325	-1.309511	0.442993
H	0.306148	-1.738885	0.966576
H	-1.276559	-1.24759	1.016297
H	2.784492	0.0	0.0
