14

C	-0.493552	0.071478	-1.437238
C	0.0	0.0	0.0
Br	0.262536	-1.415652	-2.480745
H	1.090314	0.0	0.0
H	-0.327628	-0.971424	0.386237
C	-1.945125	-0.000242	-1.552099
N	-3.120502	-0.059571	-1.523458
N	-0.062777	1.361985	-2.13498
O	-0.617887	1.613735	-3.20375
O	0.818276	2.020943	-1.598377
N	-0.477255	1.071005	0.850426
H	-1.455397	1.291827	0.710552
H	0.092662	1.891361	0.699081
H	2.830083	0.0	0.0
