17

C	-0.128694	0.253532	-1.515465
C	0.0	0.0	0.0
F	-1.274262	0.914535	-1.86473
H	1.104995	0.0	0.0
N	1.001849	0.910678	-2.071759
H	0.855477	1.907164	-1.96383
H	1.819218	0.634816	-1.487763
N	-0.234756	-1.129152	-2.179375
O	-1.347889	-1.521861	-2.52069
O	0.808952	-1.76283	-2.266303
C	-0.636312	-1.264245	0.55907
H	-1.707412	-1.323689	0.344202
H	-0.494102	-1.293425	1.641383
H	-0.136854	-2.139066	0.139227
C	-0.443901	1.196308	0.690767
N	-0.794837	2.154057	1.277152
F	2.618063	0.0	0.0
