17

C	-0.502304	-0.118822	-1.412508
C	0.0	0.0	0.0
F	0.093511	-1.225445	-2.003841
H	1.092828	0.0	0.0
N	-1.907586	-0.146207	-1.556294
H	-2.309356	-0.807765	-0.907416
H	-2.155565	-0.381294	-2.509414
N	-0.042138	1.039641	-2.303689
O	-0.37749	0.940276	-3.4857
O	0.58329	1.96413	-1.808216
C	-0.310925	-1.270162	0.803585
H	0.232317	-1.197908	1.747093
H	-1.373918	-1.427599	1.025851
H	0.088526	-2.129347	0.264051
C	-0.542345	1.168216	0.664234
N	-0.976792	2.078212	1.270057
F	2.523321	0.0	0.0
