17

C	-0.084065	-0.021989	-1.519376
C	0.0	0.0	0.0
F	-0.097696	1.299058	-2.00553
H	1.098887	0.0	0.0
N	0.960947	-0.791587	-2.007983
H	1.818036	-0.565398	-1.454707
H	1.06612	-0.707143	-3.00799
N	-1.420559	-0.519578	-2.09357
O	-1.407228	-0.981343	-3.232689
O	-2.42552	-0.363477	-1.404684
C	-0.43715	-1.301906	0.66708
H	-1.522371	-1.417549	0.691215
H	0.010469	-2.136886	0.125385
H	-0.049909	-1.32202	1.688078
C	-0.590689	1.174415	0.60235
N	-1.066027	2.110169	1.131538
F	2.639185	0.0	0.0
