17

C	-0.451476	0.01215	-1.435185
C	0.0	0.0	0.0
F	0.098807	-1.087456	-2.076826
H	1.095862	0.0	0.0
N	-1.847781	0.087826	-1.642282
H	-2.327666	-0.554667	-1.027895
H	-2.067726	-0.108443	-2.61148
N	0.118344	1.200146	-2.217086
O	-0.072485	1.151669	-3.432505
O	0.666711	2.106383	-1.608909
C	-0.329559	-1.336552	0.676036
H	-1.401153	-1.54417	0.791702
H	0.144077	-2.137684	0.108302
H	0.125747	-1.322737	1.667251
C	-0.557864	1.104713	0.752226
N	-0.992273	1.962959	1.42991
F	2.520908	0.0	0.0
