13
Coordinates from ORCA-job run
  C   0.77639595699517      0.31129630613649      0.34087730346554
  C   -0.58714602163841     -0.35211391186405      0.14533182526262
  Cl  0.77751654139144      1.87139472366120     -0.59557080797759
  H   -0.63152420768208     -1.21395214735913      0.81735272883076
  H   0.86166926875837      0.60190412079012      1.38682973806294
  N   1.79350826528834     -0.60842868641322     -0.00595629371429
  H   2.70445822934285     -0.27772401362114      0.28264400090453
  H   1.81112948489927     -0.79720456765509     -1.00154391864741
  C   -0.79449913258813     -0.77536137516972     -1.23180224902594
  N   -0.88024533694697     -1.16100696253370     -2.33741885619019
  N   -1.68474841524284      0.57914700513295      0.60800559407989
  O   -2.57813831527347      0.86530911469059     -0.17616230626508
  O   -1.56937631730353      0.95574039420469      1.76841324121422
