13
Coordinates from ORCA-job run
  C   0.87470698062297     -0.27604657880300      0.00636595045861
  C   -0.60519724572490     -0.16621965096778      0.38297969900768
  Cl  1.67063731906504     -1.20600895168773      1.35722552677884
  H   -0.72125942836021      0.38988886549515      1.31555294040977
  H   0.97462992859783     -0.89999065521688     -0.88072180085742
  N   1.39766648604196      1.01049889719800     -0.24072257846882
  H   2.30796455246872      0.97398655816548     -0.67789849929100
  H   1.44483906048263      1.57890709476568      0.59568375005968
  C   -1.26391008146708     -1.46262064072335      0.46981296710093
  N   -1.80026252295395     -2.50453621065332      0.53967479783923
  N   -1.27586349974885      0.65535587771885     -0.69496914092193
  O   -1.30947534850839      0.15040161737580     -1.80966065138298
  O   -1.69447620051577      1.75638377733310     -0.36332296073259
