13
Coordinates from ORCA-job run
  C   0.90475485872680     -0.12678642681851      0.45566774601900
  C   -0.61732476093555     -0.34939726273037      0.44615860591620
  Cl  1.36837958659181      0.83096445062932      1.88841703820636
  H   -0.95567785147149     -0.61256707323779      1.44928438093420
  H   1.35636562860377     -1.11276427263959      0.62313228747464
  N   1.31100296655656      0.56724801213740     -0.72797051843531
  H   2.31941979302042      0.62686066825446     -0.77958367284900
  H   0.95392123501326      0.12090650146254     -1.56498580208903
  C   -0.96155905595835     -1.39497777075298     -0.51092442441393
  N   -1.20207430373972     -2.27593800951775     -1.24951266361561
  N   -1.32952538003762      0.93061454535863      0.07535044717092
  O   -1.53022468422867      1.13009624716249     -1.11634004858774
  O   -1.61745803214122      1.66674039069215      1.01030662426932
