13
Coordinates from ORCA-job run
  C   0.79459194330832      0.30354285444369      0.30492424410985
  C   -0.57848309431237     -0.35501282186373      0.16874033489170
  Cl  0.74673987275605      1.88534568774103     -0.59381641804616
  H   -0.58715726081939     -1.23181981050733      0.82253799291478
  H   0.93706255641352      0.57011779727452      1.35105155098447
  N   1.78997932457224     -0.60777500599973     -0.11802307063414
  H   1.75241512265134     -0.77486718336845     -1.11686602175998
  H   2.71589332300587     -0.28403994740002      0.12749127896043
  C   -0.86111369757331     -0.74657959813610     -1.20430565658319
  N   -1.00742938480489     -1.10677359781703     -2.31216384487245
  N   -1.64816468920350      0.56520845452120      0.71196219079691
  O   -2.58333412542640      0.86823458143797     -0.01509501658819
  O   -1.46899989056749      0.91541858967395      1.87256243582597
