13
Coordinates from ORCA-job run
  C   0.93806078778127     -0.05295124915282      0.51852685199354
  C   -0.58571898393575     -0.34971760873755      0.44417230667423
  Cl  1.13635016631133      1.22869097605693      1.75426126079340
  H   -0.95863301783010     -0.66363286753088      1.42024165906965
  H   1.39619282097106     -0.95370252088276      0.93280406599973
  N   1.60406631991699      0.29169975235472     -0.68473293654357
  H   1.10068554547844      0.98674254278914     -1.21881432529964
  H   1.79776285461516     -0.52183238392159     -1.25246874314196
  C   -0.83417606410867     -1.36540461897946     -0.57018042765231
  N   -0.96910518673215     -2.20513517343791     -1.38014979131984
  N   -1.35997729686686      0.89543189761332      0.09610888601551
  O   -2.15817844957942      1.29973150843523      0.93124517409483
  O   -1.10732949602130      1.41007974539364     -0.99001398068357
