15

C	-0.328175	-0.026292	-1.471894
C	0.0	0.0	0.0
F	-0.277463	-1.320467	-1.912461
H	1.102784	0.0	0.0
N	-1.786544	0.402447	-1.765969
O	-2.015796	0.905871	-2.858162
O	-2.606737	0.112449	-0.90491
C	0.564118	0.786993	-2.304954
N	1.243627	1.371666	-3.063419
C	-0.507994	-1.126744	0.738741
N	-0.856137	-2.072185	1.344307
N	-0.399753	1.279285	0.589373
O	-0.496357	2.229801	-0.193485
O	-0.548247	1.344115	1.803698
F	2.395572	0.0	0.0
