16

C	0.0	0.0	0.0
C	-0.160095	0.037615	-1.592405
F	1.36598	0.0	0.0
H	0.088373	1.076207	-1.820422
C	-0.468788	1.176988	0.71537
N	-0.509445	2.22052	1.260734
N	-0.354067	-1.282197	0.709959
O	-0.431972	-1.216294	1.929111
O	-0.353405	-2.301996	0.029736
N	-1.461437	-0.192176	-2.321231
O	-1.956663	0.794704	-2.850292
O	-1.79532	-1.354225	-2.494376
N	0.750075	-0.831347	-2.295083
H	0.510681	-1.789454	-2.067854
H	1.700083	-0.647915	-2.008222
Cl	-2.910211	0.0	0.0
