16

C	0.0	0.0	0.0
C	-0.588116	-0.200509	-1.407727
F	1.345427	0.0	0.0
H	-1.423639	-0.899049	-1.316966
C	-0.44812	1.241282	0.639723
N	-0.589707	2.269388	1.190146
N	-0.351931	-1.175362	0.938443
O	-0.075392	-0.976286	2.116298
O	-0.750845	-2.217796	0.446989
N	0.428663	-0.895681	-2.283296
O	0.549525	-0.499668	-3.440344
O	1.005317	-1.868316	-1.80843
N	-0.923319	1.080992	-1.97135
H	-1.066209	0.954956	-2.965287
H	-1.830054	1.300837	-1.55757
Cl	-3.279019	0.0	0.0
