16

C	0.0	0.0	0.0
C	-0.135357	-0.029951	-1.59211
F	1.361232	0.0	0.0
H	0.261509	0.953753	-1.850519
C	-0.470304	1.211919	0.65632
N	-0.510866	2.285486	1.13977
N	-0.374513	-1.245689	0.767824
O	-0.374633	-1.131607	1.986664
O	-0.469074	-2.288128	0.131497
N	-1.447204	-0.084805	-2.329561
O	-1.891648	-1.19347	-2.584241
O	-1.855188	0.984237	-2.767756
N	0.664965	-1.040833	-2.234805
H	0.261787	-1.945557	-2.024478
H	1.610108	-1.007933	-1.881808
Cl	-2.932244	0.0	0.0
