16

C	0.0	0.0	0.0
C	-0.210163	0.113428	-1.586976
F	1.35645	0.0	0.0
H	-0.118511	1.185217	-1.764267
C	-0.466904	1.144482	0.771168
N	-0.507099	2.182403	1.326077
N	-0.346073	-1.31607	0.655269
O	-0.502666	-1.303422	1.867729
O	-0.252989	-2.304902	-0.063252
N	-1.479301	-0.270137	-2.314694
O	-2.037188	0.639805	-2.913196
O	-1.710617	-1.464149	-2.433649
N	0.786822	-0.594936	-2.354098
H	1.71194	-0.300101	-2.081603
H	0.683225	-1.584725	-2.157946
Cl	-2.908132	0.0	0.0
