16

C	0.0	0.0	0.0
C	-0.388866	0.193032	-1.502083
Cl	1.797937	0.0	0.0
H	0.390228	-0.318884	-2.078821
H	-0.282714	-1.015155	0.287476
N	-0.547532	0.891581	0.977629
H	-1.54588	0.694572	1.055559
H	-0.441712	1.852251	0.67509
C	-0.380486	1.664589	-1.891033
H	-0.500917	1.746791	-2.971996
H	0.551154	2.158636	-1.599086
H	-1.224147	2.18236	-1.426805
N	-1.651756	-0.397862	-1.895579
H	-2.440618	-0.022386	-1.36612
H	-1.643906	-1.388718	-1.678098
Cl	-4.195895	0.0	0.0
