16

C	0.0	0.0	0.0
C	-0.360466	0.295434	-1.499132
Cl	1.802157	0.0	0.0
H	0.466493	-0.10867	-2.091825
H	-0.277682	-1.035431	0.205025
N	-0.574923	0.809776	1.024707
H	-0.5439	1.786368	0.759227
H	-1.557254	0.543123	1.097251
C	-0.436911	1.792827	-1.759376
H	-0.519052	1.959579	-2.834574
H	0.448201	2.317814	-1.386515
H	-1.332576	2.211317	-1.293134
N	-1.563423	-0.336873	-1.996576
H	-2.378651	-0.099556	-1.428482
H	-1.465658	-1.344181	-1.944684
Cl	-4.037945	0.0	0.0
