14
Coordinates from ORCA-job run
  C   -0.98944931706406      0.13098465439156      0.18847306451844
  C   0.52508072526285      0.05420337468904      0.41049658645587
  Br  -1.87161264159471      0.33918550297284      1.98584822046065
  H   0.72770928475453     -0.80801014219764      1.05801720800901
  H   -1.25129375247531      1.05502515130670     -0.32825269943233
  N   -1.45513693999912     -0.98419707876310     -0.54537965287138
  H   -1.33164271210283     -1.84703903168649     -0.02901415856584
  H   -2.43178477942762     -0.88881994115399     -0.79021578795427
  C   1.00601476682649      1.24975394955681      1.10537663030596
  N   1.43443439577599      2.22168839015620      1.60539027874624
  C   1.27279854989743     -0.10508996918836     -0.92009878009830
  H   0.96687260820633     -1.02516905243634     -1.41429660672550
  H   2.34970076891276     -0.12570199180926     -0.74400159784376
  H   1.04930904302728      0.73418618416201     -1.58234270500479
