14
Coordinates from ORCA-job run
  C   -0.90217279772805     -0.41246448546944      0.09783753102804
  C   0.45823746430009      0.28357513225290      0.17137412107241
  Br  -1.18115507575861     -1.22061143265368     -1.65801726924877
  H   0.50852521493459      0.72023805566378      1.17990941396844
  H   -0.88302789529009     -1.26999292013742      0.78272313848823
  N   -1.95680158459081      0.54211255875768      0.32477676888609
  H   -1.84741803857593      0.96257307341753      1.24165069705495
  H   -2.86386907846527      0.09445185434921      0.27986510193098
  C   0.53534390496095      1.39468152985313     -0.77962725352285
  N   0.66705383539077      2.27958257921903     -1.53926016855565
  C   1.64479150038255     -0.66751367841785      0.00335153386740
  H   2.58008717588593     -0.13827705491733      0.19189488053263
  H   1.67330765715785     -1.07291254509845     -1.00766144034419
  H   1.56609771739601     -1.49544266681908      0.71218294484229
