14
Coordinates from ORCA-job run
  C   -0.96158545958485      0.09339596719201      0.36984547567275
  C   0.56948203942059      0.06207789431407      0.43396041479008
  Br  -1.68324072060599      0.19579996580080      2.17715172778798
  H   0.84805501209907     -0.76402253826569      1.09630602636875
  H   -1.28933746868399      1.02356438502962     -0.11133197658666
  N   -1.44898426431832     -1.12314929409101     -0.25222964377821
  H   -1.37907421101217     -1.02935348318113     -1.26012021987749
  H   -2.42745136700488     -1.25690590836440     -0.02821970780685
  C   1.07931441196305      1.31192552765213      1.00213745664343
  N   1.50370866058430      2.32713526939693      1.41157861239483
  C   1.17928403846166     -0.16671015418036     -0.95461015803842
  H   0.90218418209598     -1.15475407511040     -1.32229618473335
  H   0.83998918086244      0.59679666259302     -1.66007323593092
  H   2.26765596572311     -0.11480021878559     -0.90209858690596
