14
Coordinates from ORCA-job run
  C   -0.99156597918712      0.14759577710359      0.16353634890234
  C   0.51578633661321      0.04758801775203      0.42265413193015
  Br  -1.91414029510576      0.37579433211518      1.93767325360326
  H   0.68846926649825     -0.81628285448434      1.07655379094934
  H   -1.22564465664416      1.07389482194569     -0.36248873691111
  N   -1.45641396622177     -0.96305074292629     -0.57816195576214
  H   -2.42601094516145     -0.85416997335938     -0.84492719778734
  H   -1.35859113110132     -1.82534758445136     -0.05535927434484
  C   0.99822765077692      1.23711291699221      1.12664879239130
  N   1.42913455197624      2.20251273280409      1.63708432215647
  C   1.29271698170527     -0.12790191344964     -0.88893151304830
  H   2.36495700710369     -0.15922717027976     -0.68755263552885
  H   1.09377553030849      0.70925665976950     -1.56186907845990
  H   0.98829964843950     -1.04777501953150     -1.38486024809037
