14
Coordinates from ORCA-job run
  C   -0.98024519181125      0.11705020783590      0.29890817423605
  C   0.54322355364217      0.08447391590817      0.46564319868007
  Br  -1.81934558512950      0.32091398574072      2.04592523305554
  H   0.77204764759412     -0.70439994565078      1.18948455435776
  H   -1.26929276860181      1.02009509808094     -0.25364429045294
  N   -1.43308268497321     -1.13087733739737     -0.28690328179548
  H   -2.42265612316528     -1.25507255886212     -0.11207304260299
  H   -1.30605314477457     -1.08861985931827     -1.29269818784278
  C   1.02172207322672      1.36306989641472      0.99529712514385
  N   1.39438396107674      2.40600224113819      1.38502694427777
  C   1.24085388715463     -0.22509233101564     -0.86478028728498
  H   0.97723130196775     -1.22953242482668     -1.19606609144311
  H   2.32392148825784     -0.17927560412544     -0.74232152912870
  H   0.95829158553567      0.50126471607765     -1.63179851920007
