14
Coordinates from ORCA-job run
  C   -0.97136413028482     -0.20694857352717      0.62574763469811
  C   0.53361212548461      0.15116612458258      0.53216737988191
  Br  -1.11713126162772     -2.06578345235877      1.23904770328739
  H   0.98907462010600     -0.04647045518061      1.50860928678441
  H   -1.41798647246636      0.38349891805647      1.42784876441403
  N   -1.76082652952269     -0.03196967638378     -0.55281471109025
  H   -1.37102499450837     -0.50966634292006     -1.35402664005692
  H   -1.89037597635262      0.95116772724590     -0.75920850604491
  C   0.59858725213776      1.59545150383413      0.28553107670310
  N   0.59701325135677      2.74843835207691      0.06003301841371
  C   1.30375048429949     -0.60424706897490     -0.55197077701480
  H   0.90843835805854     -0.37992019972386     -1.54429368181908
  H   1.24475451117398     -1.67854137286784     -0.37746847613828
  H   2.35347876214543     -0.30717548385901     -0.54020207201841
