14
Coordinates from ORCA-job run
  C   -0.94023448737850     -0.05816571113451      0.57941830903244
  C   0.57007652964493      0.20610529365903      0.50958977155247
  Br  -1.18272756740206     -1.90874645277111      1.37847520244306
  H   0.99776255296469     -0.04943217820326      1.48374668085647
  H   -1.39803704570792      0.57903784435941      1.33511994609199
  N   -1.57683948653759      0.13034492204053     -0.65923904341141
  H   -2.58432525658985      0.12508454677148     -0.58035312621586
  H   -1.29051224539394     -0.54369163354897     -1.35617658110579
  C   0.76331603664670      1.64630212507231      0.30544594128150
  N   0.92853044778399      2.79788317391913      0.14722086216503
  C   1.28818520390400     -0.58658701231410     -0.58471752558852
  H   2.36377659668784     -0.41641592952866     -0.52168802709418
  H   1.09981455302224     -1.65384323787877     -0.46146058724348
  H   0.96121416835548     -0.26687575044250     -1.57538182276371
