14
Coordinates from ORCA-job run
  C   -0.91971164427620     -0.24493941263181      0.56146135668644
  C   0.56052299393080      0.17096468127399      0.51697271205201
  Br  -1.06184339481327     -2.10969891350110      1.13931788792105
  H   0.98020685538998      0.00304113583144      1.51442353070638
  H   -1.41766041265594      0.30652143708318      1.36755847664536
  N   -1.52445573238471     -0.11538758218426     -0.73945219166188
  H   -1.47593987418250      0.85461911991970     -1.03723907854471
  H   -2.49895450956242     -0.38814162157918     -0.70426608366222
  C   0.59064615358423      1.61547202326396      0.25786333714015
  N   0.59775479861448      2.76349729193930      0.00873037208182
  C   1.38950158844154     -0.57497310703049     -0.53110589585635
  H   2.41301660700948     -0.19637757027694     -0.53520708354858
  H   1.41073316554534     -1.63882348180839     -0.29581706674532
  H   0.95518340535917     -0.44677400029940     -1.52124027321414
