14
Coordinates from ORCA-job run
  C   -1.05091523987963      0.08508555784314      0.34039411660083
  C   0.48871059042627      0.04154706676150      0.44950132158846
  Br  -1.78961632142750      0.05366211362261      2.15875283101776
  H   0.75722739527141     -0.85456256531996      1.02192205665058
  H   -1.35595163862459      1.04613688594215     -0.08013294573538
  N   -1.65542906139284     -0.96239683223243     -0.42236383475403
  H   -1.31070545437815     -1.87677126646266     -0.15970617699716
  H   -1.54343773720341     -0.81380980231137     -1.41609532864880
  C   0.98784806875357      1.20803848580941      1.17930675326619
  N   1.40632652849379      2.16852020376745      1.70974471310654
  C   1.14114056641238     -0.01420584348175     -0.93701411310245
  H   0.82843352917032      0.83902495505403     -1.54472612384771
  H   2.22803087725424      0.01559907478748     -0.84681307868283
  H   0.86733789712414     -0.93586803377962     -1.45177019046199
