14
Coordinates from ORCA-job run
  C   -0.87253178746087     -0.45042349707739      0.20937383426298
  C   0.49978424563905      0.22604582049679      0.26545029223243
  Br  -1.20363548027363     -1.11855162594991     -1.66582472832736
  H   0.62279974234240      0.49749656083867      1.32168089969048
  H   -0.84080943207175     -1.37205380422146      0.79146708757123
  N   -1.88376061808775      0.40080922609702      0.70228114435149
  H   -1.98493068434445      1.23651266160337      0.13778715828496
  H   -2.77778750529611     -0.06802127458280      0.76199219104802
  C   0.46993992996798      1.47876048360944     -0.49292007563732
  N   0.42782226732708      2.48687352690223     -1.09349470896312
  C   1.66714833340024     -0.66338787613791     -0.16157502835663
  H   1.62800458867813     -0.88004277162966     -1.22792444349220
  H   2.61332638161659     -0.16741586520053      0.06167472561004
  H   1.63363001856309     -1.60660156474786      0.38903165172498
