16

C	0.0	0.0	0.0
C	-0.544991	-0.139276	-1.422076
Cl	1.786273	0.0	0.0
H	-1.587045	-0.443631	-1.280877
H	-0.275486	0.989522	0.382091
N	-0.477331	-1.104142	0.796628
H	-0.214975	-0.955931	1.765096
H	-1.497589	-1.059698	0.746199
C	0.17027	-1.200367	-2.237533
H	-0.425123	-1.449028	-3.122062
H	0.299304	-2.104933	-1.641524
H	1.1493	-0.843345	-2.56353
N	-0.471127	1.165436	-2.090565
H	-1.244083	1.720331	-1.729684
H	-0.67617	1.021362	-3.074317
Br	-3.822802	0.0	0.0
