16

C	0.0	0.0	0.0
C	-0.525426	0.055355	-1.455908
Cl	1.860372	0.0	0.0
H	0.326289	-0.098754	-2.125453
H	-0.196442	0.936238	0.522255
N	-0.545976	-1.066886	0.706097
H	-0.197575	-1.193617	1.641796
H	-0.621743	-1.90994	0.157751
C	-1.123819	1.43923	-1.710888
H	-0.393238	2.231661	-1.510175
H	-1.445171	1.524572	-2.753147
H	-2.004844	1.572852	-1.077575
N	-1.452185	-1.052094	-1.683146
H	-2.322878	-0.861845	-1.176887
H	-1.686347	-1.071094	-2.669372
Br	-4.450419	0.0	0.0
