16

C	0.0	0.0	0.0
C	-0.455121	0.127168	-1.45023
Cl	1.874464	0.0	0.0
H	0.114606	0.953596	-1.898042
H	-0.223414	0.90757	0.559788
N	-0.561359	-1.120707	0.601583
H	-0.449648	-1.942769	0.024712
H	-0.301606	-1.262154	1.56348
C	-1.939359	0.454132	-1.490025
H	-2.55256	-0.302644	-1.0026
H	-2.276925	0.567506	-2.5238
H	-2.151124	1.391852	-0.973455
N	-0.189322	-1.151055	-2.116565
H	0.767398	-1.179849	-2.448581
H	-0.810052	-1.254501	-2.909178
Br	-5.353949	0.0	0.0
