16

C	0.0	0.0	0.0
C	-0.362335	0.011283	-1.524968
Cl	1.78865	0.0	0.0
H	0.353438	-0.678274	-1.992997
H	-0.318055	0.930038	0.476122
N	-0.50025	-1.099039	0.776761
H	-0.363293	-1.962536	0.261476
H	-1.503664	-0.962416	0.895491
C	-0.154022	1.404671	-2.106918
H	-0.879354	2.097813	-1.666446
H	-0.329164	1.375844	-3.183073
H	0.852035	1.784455	-1.917248
N	-1.684279	-0.443513	-1.891017
H	-1.862932	-1.37435	-1.536538
H	-2.421548	0.127074	-1.480253
Br	-4.411145	0.0	0.0
