16

C	0.0	0.0	0.0
C	-0.34763	-0.017101	-1.534963
Cl	1.803489	0.0	0.0
H	0.457579	-0.585928	-2.016204
H	-0.314005	0.943779	0.450069
N	-0.512995	-1.063896	0.807507
H	-0.406863	-1.947028	0.319601
H	-1.512419	-0.895031	0.925019
C	-0.328702	1.411887	-2.064992
H	-1.195346	1.951037	-1.670071
H	0.580698	1.941199	-1.771608
H	-0.402985	1.404179	-3.153204
N	-1.585426	-0.645744	-1.935758
H	-2.395616	-0.232303	-1.474353
H	-1.587717	-1.624012	-1.675767
Br	-4.2245	0.0	0.0
