12
Coordinates from ORCA-job run
  C   0.84874176928000     -0.33405425022373     -0.14860490681755
  C   -0.60510336703154     -0.72516136829879     -0.12664998197696
  Cl  1.83167336917775     -1.70589608650044      0.36922115169747
  H   -0.93519855848534     -0.99054494215446      0.87470351608427
  H   1.19560613109618      0.00112310744180     -1.12160098012610
  H   -0.78897862886624     -1.55525339743145     -0.81016573461629
  N   1.10385731832802      0.81763694148897      0.79525168545936
  O   2.05939900563714      1.53030656459821      0.51979184661905
  O   0.35530015941599      0.92427717412094      1.76035574544415
  N   -1.47192924440266      0.40657275357430     -0.58406708968161
  O   -2.67433987027927      0.26600066634179     -0.40716593541428
  O   -0.91902808387004      1.36399283704284     -1.12106931667152
