12
Coordinates from ORCA-job run
  C   0.82733449571877     -0.40942985978598      0.03128111101365
  C   -0.65106584353108     -0.69308355921658      0.06034929394003
  Cl  1.67120308734066     -1.59701635807183      1.02830435551079
  H   -1.05740316786733     -0.60637389273291      1.06510472836850
  H   1.25338796479084     -0.42125598080289     -0.96759125769071
  H   -0.85824958142547     -1.68687537354581     -0.33904954048598
  N   1.11661173060379      0.96677258484333      0.58322265975454
  O   2.14343341982736      1.49640483755549      0.18081265109595
  O   0.32006416793455      1.42029803789416      1.39746933048669
  N   -1.40061902993891      0.27854845575260     -0.79704110937556
  O   -2.61847848793276      0.26798350553667     -0.68093611614686
  O   -0.74521875552042      0.98302760257375     -1.56192610647104
