12
Coordinates from ORCA-job run
  C   0.55751199592839     -0.30654226063985      0.37972838489053
  C   -0.57171578857266      0.35861464217820     -0.37247228971510
  Cl  0.04447614298565     -0.81680560152786      1.98411300156009
  H   -0.21087547821612      0.74731873583244     -1.32792886129545
  H   0.95874561855261     -1.16536623347624     -0.15068029479130
  H   -1.03915037794340      1.14429801085515      0.21381487183008
  N   1.68531280232182      0.68365721230093      0.51208429448851
  O   1.38403990294613      1.81985883671610      0.86243499389175
  O   2.80921049780489      0.26506978756021      0.25515990185179
  N   -1.61583248886241     -0.66067082290605     -0.69603965093859
  O   -2.78283334795287     -0.34747359892291     -0.48947294886628
  O   -1.21788947899204     -1.72095870797012     -1.17074140290603
