12
Coordinates from ORCA-job run
  C   0.75129126521923     -0.45567571616203      0.32763792175713
  C   -0.37146736397675     -0.56778054105299     -0.67712966932688
  Cl  0.31058471443944     -1.10725332623002      1.88975007962875
  H   -0.08284431737918     -0.08371871388012     -1.61061411343730
  H   1.61494157261643     -1.00703090238459     -0.04743307076292
  H   -0.63316932099855     -1.60995278432326     -0.84757581748532
  N   1.25100357307304      0.98600409731365      0.41926761883164
  O   1.55046238635729      1.45423650926419     -0.67327616866004
  O   1.36041824524925      1.51941306353168      1.50672969601211
  N   -1.61196399359800      0.11531832117902     -0.20125505869063
  O   -2.67734202725515     -0.44023495632364     -0.44373389045296
  O   -1.46091473374706      1.19667494906808      0.35863247258643
