12
Coordinates from ORCA-job run
  C   0.82122520824409     -0.40881908399832      0.05966064940925
  C   -0.65958746817804     -0.68026945386661      0.04446167631264
  Cl  1.62354174671438     -1.60893008214484      1.07686163904046
  H   -0.86640132295623     -1.68285980122942     -0.33109564935123
  H   1.27778418040613     -0.42030250746129     -0.92584090233835
  H   -1.09556947175991     -0.56147442548491      1.03398360918158
  N   1.10911664914357      0.96087923700187      0.62849475813578
  O   0.31329258818453      1.40206781605298      1.44967913606494
  O   2.13493610318749      1.49686455381472      0.23229524074701
  N   -1.37432686401798      0.27324055285237     -0.86210375921823
  O   -2.59417780564413      0.18061442941825     -0.87857722369285
  O   -0.69083354332390      1.04898876504525     -1.52681917429099
