12
Coordinates from ORCA-job run
  C   0.68206660963283     -0.24625903966180      0.23467672914223
  C   -0.69377401415895      0.25033043490786     -0.15287714135064
  Cl  0.60195020383336     -1.44784568771091      1.50055961075417
  H   -1.27428467436678      0.56139358900586      0.71383135133803
  H   1.20246704021129     -0.65937977688333     -0.62647545758838
  H   -0.60616215574025      1.05278414017552     -0.88698814900511
  N   1.48721838816068      0.97685400583162      0.65335764284202
  O   1.75815645385876      1.71701552673859     -0.28759302252881
  O   1.77040550128429      1.14400391893569      1.82812923552042
  N   -1.45415890953380     -0.85228365212338     -0.81881747587253
  O   -2.62451135950313     -1.00037704973945     -0.48634806449834
  O   -0.85037308367826     -1.49623640947628     -1.67145525875303
