12
Coordinates from ORCA-job run
  C   0.68231256013435     -0.23421509841896      0.14233015130759
  C   -0.71536854902170      0.27946029703485     -0.11180536510295
  Cl  0.68904956821112     -1.48692991205213      1.38011752970684
  H   -1.21768809839270      0.56275752264016      0.80824619639053
  H   1.14623659183675     -0.63036010244513     -0.75672404525354
  H   -0.68866451976561      1.11654776239886     -0.81338502715877
  N   1.54434726697030      0.91183304504576      0.60366303923964
  O   2.68957832010583      0.93870051182408      0.16673148372894
  O   1.03305898926512      1.71131191016092      1.38149358044529
  N   -1.52064502751969     -0.79695537733162     -0.76512912551984
  O   -2.64514451201025     -0.99975744232623     -0.32113729239276
  O   -0.99707258981348     -1.37239311653060     -1.71540112539097
