12
Coordinates from ORCA-job run
  C   0.69978321051468     -0.24756495693171      0.08812033914142
  C   -0.71252093880062      0.27191334974572     -0.05258817542342
  Cl  0.77493775909526     -1.59877756974403      1.21122683879038
  H   -0.72457360537990      1.16348322251629     -0.68473320642457
  H   1.12578572653408     -0.55302568147916     -0.86306000574134
  H   -1.16319210155708      0.47501691430515      0.91494510027720
  N   1.55396460034054      0.88448820104468      0.59932375984016
  O   1.16800408354009      1.45099568036441      1.61555134893678
  O   2.55545312592703      1.14865404487195     -0.05851227658341
  N   -1.55187713996220     -0.75123649090680     -0.74690419024265
  O   -1.06706797718873     -1.26900308563395     -1.74913853273353
  O   -2.65969674306309     -0.97694362815256     -0.27323099983703
