12
Coordinates from ORCA-job run
  C   0.75862256423724     -0.45467179031967      0.30784095399268
  C   -0.38398265198246     -0.56294139251237     -0.67546897558516
  Cl  0.34854459721855     -1.11367024988730      1.87493000063610
  H   -0.11655367454574     -0.06467912859057     -1.60777662037417
  H   1.61581067616746     -1.00204933488313     -0.08704629960903
  H   -0.64242714625804     -1.60481858907177     -0.85228026355247
  N   1.25675051410339      0.98790922187148      0.39696198652661
  O   1.55005822988267      1.45550500675561     -0.69754413065435
  O   1.37156760593904      1.52202476525100      1.48351243468136
  N   -1.61643384921688      0.10685191237765     -0.16256150199164
  O   -1.46045623986084      1.20412622573281      0.36439208153063
  O   -2.68150062568442     -0.47158664672374     -0.34595966560058
