9
Coordinates from ORCA-job run
  C   0.08675950164214      0.11857810092906      0.06999408360340
  C   1.20830640686716     -0.44859583966524     -0.38030479638923
  H   2.17105045008146     -0.00242947558593     -0.16426802603625
  H   1.15448617014470     -1.35861017111009     -0.96428282688508
  N   -1.23612030634903     -0.49576801605515     -0.22790664668023
  O   -2.21495855706367      0.09026327465530      0.22322749173999
  O   -1.24029628641635     -1.52305159121488     -0.89045393614275
  C   0.03200026038954      1.31558951854512      0.84802764005913
  N   0.03977236070405      2.30302419950182      1.48596701673102
