9
Coordinates from ORCA-job run
  C   0.07919810893686      0.14366492706537     -0.00762078828806
  C   1.24836577670256     -0.49458749861378      0.08332778484356
  H   2.17700583080842      0.06193707311144      0.06073412016421
  H   1.26726319790926     -1.57273342857090      0.17881615689797
  N   -1.19697674492960     -0.62256827364563      0.02414703014886
  O   -1.11839462040720     -1.83737758711118      0.13460464310973
  O   -2.22524120205870      0.04076974644554     -0.06320006597363
  C   -0.07235873990422      1.55805716023445     -0.13914279490172
  N   -0.15986160705738      2.72283788108469     -0.27166608600093
