9
Coordinates from ORCA-job run
  C   0.08640870451667      0.11847653847894      0.07016058428179
  C   1.21048451893878     -0.44688546758654     -0.37575160872438
  H   2.17115760422821      0.00183333867242     -0.15594204534366
  H   1.16151444999307     -1.35729129736452     -0.95931559912546
  N   -1.23439873696861     -0.49934349338332     -0.22958703032664
  O   -2.21271023282187      0.06327463995441      0.25128864093271
  O   -1.23695158697006     -1.50766194989787     -0.92074331874800
  C   0.02641637653540      1.31752079870540      0.84465792092037
  N   0.02807890254841      2.30907689242109      1.47623245613326
