9
Coordinates from ORCA-job run
  C   0.08541800727046      0.11417566270160      0.07850785117429
  C   1.21166790134966     -0.39547098850189     -0.42542333633905
  H   2.16587105070680      0.06820197646517     -0.20850160476952
  H   1.17077744109860     -1.27750401833582     -1.05179769069133
  N   -1.22681288870581     -0.51734116077046     -0.22954793045907
  O   -2.21867831151449      0.07788896845291      0.17849126540891
  O   -1.21023871367289     -1.56252465271257     -0.86345438434238
  C   0.01407958092704      1.26946998947503      0.91593368888064
  N   0.00791593254063      2.22210422322604      1.60479214113751
