9
Coordinates from ORCA-job run
  C   0.08277717306061      0.13871845383757      0.01890520041294
  C   1.14869376022450     -0.43396249939788     -0.54531388345885
  H   1.09260221712180     -1.46060172739282     -0.88417780189543
  H   2.06906511214618      0.12417396898183     -0.66417478126789
  N   -1.18197169108118     -0.62907955130494      0.18365257650276
  O   -1.19213603605122     -1.78417382146325     -0.21621871750975
  O   -2.11123547727770     -0.02734183619749      0.71225078798963
  C   0.03846109386756      1.48145996341577      0.50506996108655
  N   0.05374384798944      2.59180704952119      0.89100665814004
