9
Coordinates from ORCA-job run
  C   0.07570658149855      0.14295631104555     -0.01366516555903
  C   1.24027026795184     -0.49893899241380     -0.13283616512693
  H   1.26827032642695     -1.57974149893211     -0.07824646061388
  H   2.15682408396683      0.05705352396631     -0.28569531060776
  N   -1.18502566746785     -0.62218631405000      0.18753103509670
  O   -2.21784124162534      0.03983326847242      0.20900275129691
  O   -1.09122059782441     -1.83481095647274      0.30883719936686
  C   -0.08415918778399      1.56156008510875     -0.07046358074497
  N   -0.16282456514259      2.73327457327563     -0.12346430310790
