9
Coordinates from ORCA-job run
  C   0.07859598210733      0.14118242056637     -0.02033997385690
  C   1.24286273763084     -0.50939883183241      0.03878649524778
  H   1.25299570572915     -1.58258784490027      0.18119971843310
  H   2.17640532330117      0.03131260284923     -0.05428163827720
  N   -1.20377008158515     -0.60373604296127      0.10768796999548
  O   -2.22624892625883      0.07112795735614      0.04312946195663
  O   -1.13550743971280     -1.81405040586818      0.26479846723983
  C   -0.06137710263569      1.55112181398289     -0.20400354959111
  N   -0.12395619857601      2.71502833080750     -0.35697695114762
