9
Coordinates from ORCA-job run
  C   0.08748691907291      0.13491776901086      0.02522035010766
  C   1.16908048071781     -0.49265308503455     -0.44241279115135
  H   1.09496975124048     -1.52122330584253     -0.77191053676464
  H   2.12001061618203      0.02289572687247     -0.49361166366650
  N   -1.21957558411769     -0.57424120546554      0.09452151939952
  O   -1.24865178239176     -1.73418418280038     -0.29002713596018
  O   -2.16140662436669      0.07614148010265      0.53612957764838
  C   0.06319171960061      1.48671403763975      0.48685110784984
  N   0.09489450406230      2.60263276551726      0.85523957253727
