9
Coordinates from ORCA-job run
  C   0.08139977343997      0.12682406438513      0.06113826344507
  C   1.21580634617805     -0.37504062549014     -0.43233975556479
  H   1.19847261986597     -1.30741410919876     -0.98216987317035
  H   2.15308092998481      0.14677126211334     -0.28454314008095
  N   -1.20728377559870     -0.59065201419181     -0.14195640293599
  O   -2.20044241737760     -0.06061077306968      0.34559322161663
  O   -1.17197028272963     -1.63796971420554     -0.77134929213639
  C   -0.01917188484203      1.34478379338335      0.80118048508598
  N   -0.04989130892085      2.35330811627411      1.40444649374078
