9
Coordinates from ORCA-job run
  C   0.07169228891821      0.14365433008222      0.02806425318039
  C   1.26452767289258     -0.45524230723796      0.00106075617627
  H   1.32808319526550     -1.52211106828931     -0.17124436150768
  H   2.16851195129879      0.12188209467174      0.15046688786998
  N   -1.17111387687909     -0.64984291876652     -0.17803125438228
  O   -2.22372008456908     -0.02093642723769     -0.13754768848654
  O   -1.04385662871038     -1.85084773249012     -0.36716223691132
  C   -0.13677643815741      1.54020965875164      0.24549985782990
  N   -0.25634808005912      2.69523437051600      0.42889378623129
