9
Coordinates from ORCA-job run
  C   0.07903504467822      0.14154492750435     -0.01491018746200
  C   1.24018380730737     -0.51002252085951      0.08218743443276
  H   1.24543001197035     -1.58561413488289      0.20506311821812
  H   2.17642417797101      0.03236893381190      0.03811087829443
  N   -1.20722985291997     -0.60585730750522      0.04594537596611
  O   -2.22669428055775      0.06976281783245     -0.05036078584181
  O   -1.14440353280929     -1.81860140081458      0.18564242744945
  C   -0.05418889524081      1.55445702271051     -0.17909717249340
  N   -0.11055648039912      2.72096166220300     -0.31358108856366
