9
Coordinates from ORCA-job run
  C   0.08559606829936      0.13754689882000      0.01745034867442
  C   1.15777136954184     -0.47561308194267     -0.48928008646828
  H   2.09151210558361      0.06099481645980     -0.60255058960504
  H   1.09216595947761     -1.51382304316680     -0.78893512912258
  N   -1.19763315636726     -0.60161779345481      0.17117209774711
  O   -2.13117099518403      0.03522061313219      0.64865709317572
  O   -1.21718089949823     -1.77044464063102     -0.18612362111783
  C   0.04944604322649      1.49992018031381      0.44606960546146
  N   0.07049350492061      2.62581605046951      0.78354028125501
