9
Coordinates from ORCA-job run
  C   0.07400181380790      0.14407534594022     -0.01694024982458
  C   1.25630268032306     -0.47580713528785     -0.03108620020024
  H   1.30070570846059     -1.55346530078063      0.06161161651247
  H   2.17075712440499      0.09495845725768     -0.13509499086486
  N   -1.18261915989213     -0.64146089879973      0.12531865790445
  O   -2.22447121571345      0.00643476203259      0.12728454283814
  O   -1.07618455518697     -1.85500431391611      0.22664109491652
  C   -0.10951967146665      1.55638941336845     -0.13013259126909
  N   -0.20797272473734      2.72387967018537     -0.22660188001280
