9
Coordinates from ORCA-job run
  C   0.06989324318207      0.14373270750088      0.03119453272344
  C   1.26821436380262     -0.44367417808826     -0.00503052898086
  H   1.34144753125316     -1.50627127759399     -0.19901778668393
  H   2.16664825771173      0.13850045429792      0.15788522888492
  N   -1.16482504411267     -0.65724140786320     -0.19317431172258
  O   -1.02597072325538     -1.85310121508406     -0.40498218348000
  O   -2.22301882994145     -0.03842398226888     -0.14568042784988
  C   -0.15140422560968      1.53369754436391      0.27628879425936
  N   -0.28098457303039      2.68378135473567      0.48251668284953
