9
Coordinates from ORCA-job run
  C   0.07447510833332      0.14338208165555     -0.01988367092530
  C   1.25422902024494     -0.48135741612671     -0.02775847323808
  H   1.29478518236885     -1.55751210213750      0.08310506192959
  H   2.17046568502819      0.08376357328281     -0.14530080500425
  N   -1.18488898400241     -0.63427075006375      0.14145401087581
  O   -1.08293273128197     -1.84616820202055      0.26478314020541
  O   -2.22398817015397      0.01788613934162      0.13610656823951
  C   -0.10395808631856      1.55417948001006     -0.15748937357372
  N   -0.19818702421837      2.72009719605847     -0.27501645850897
