13

C	-0.524247	0.082341	-1.413156
C	0.0	0.0	0.0
F	-0.358779	-1.119857	-2.089226
H	1.089408	0.0	0.0
H	-1.595378	0.314846	-1.419935
H	0.046783	0.853973	-1.936814
N	-0.600637	-1.230129	0.623783
O	0.134119	-2.116716	1.043313
O	-1.834964	-1.257281	0.676951
N	-0.389397	1.132885	0.791628
H	0.413737	1.741526	0.888533
H	-1.190092	1.630446	0.428065
H	2.831829	0.0	0.0
