13

C	-0.52949	0.063513	-1.41189
C	0.0	0.0	0.0
F	-0.366822	-1.147407	-2.07507
H	1.089413	0.0	0.0
H	0.038695	0.829282	-1.947859
H	-1.600782	0.296299	-1.414506
N	-0.597836	-1.22267	0.642502
O	0.139118	-2.116233	1.042534
O	-1.830624	-1.238618	0.725342
N	-0.387524	1.144115	0.777339
H	-1.192633	1.637776	0.41428
H	0.415868	1.755248	0.861734
H	2.836914	0.0	0.0
