16
Coordinates from ORCA-job run
  C   -0.32853779187307     -0.28947921281422      0.24324857560922
  C   1.10722864043092     -0.29928295376596     -0.27445053974018
  F   -0.29150644564895     -0.74930481024587      1.56418004015025
  H   1.58364036957116     -1.24200989872405     -0.00645458747815
  H   1.13434742429537     -0.12997594207485     -1.34990311255848
  C   -1.14753915498054     -1.28557628827861     -0.55661337482195
  H   -0.67276379728214     -2.26923967416490     -0.54711630249493
  H   -2.13656941058361     -1.37985451549842     -0.10480688785315
  H   -1.26565689390909     -0.95687027795899     -1.59123813740664
  C   -0.94678973159406      1.09300805187174      0.26261428382780
  H   -1.98674309193114      1.01663257042447      0.58489988189556
  H   -0.41813867968201      1.73815766109754      0.96530223414576
  H   -0.91212928775690      1.55610282739709     -0.72519195354378
  N   1.90736290356618      0.78725449037149      0.34941346222529
  O   2.39503307281767      0.56223132204002      1.45400790258239
  O   1.97976187456022      1.85020665032353     -0.26789148453903
