16
Coordinates from ORCA-job run
  C   -0.40262129978832     -0.17213547671303      0.47975503488262
  C   1.11864887174130     -0.04684693579504      0.60580007739027
  F   -0.79194114638058     -0.56304137458736      1.77278431187478
  H   1.54800392188357     -1.01044448302438      0.87624360901262
  H   1.36725737676366      0.71384368469778      1.34440424360556
  C   -0.82224377011023     -1.27327377386273     -0.47002868702403
  H   -1.90495446593492     -1.40040467517862     -0.41263213213444
  H   -0.55069809717731     -1.03715678428393     -1.49959561858071
  H   -0.34602689242131     -2.21598741113844     -0.19487314785134
  C   -1.07636828433492      1.15092414894949      0.18621320023498
  H   -0.77755991177561      1.90199287403885      0.91956248807867
  H   -2.15870510524397      1.02028546799308      0.24270051368236
  H   -0.81866419212762      1.51789460895587     -0.80798737491815
  N   1.72791941607189      0.36704714904564     -0.68383499424027
  O   2.05398589619429     -0.52662255766727     -1.46450844700068
  O   1.83396768264006      1.57492553857008     -0.89400307701226
