13

C	-0.647567	0.053186	-1.353363
C	0.0	0.0	0.0
Cl	-0.251643	1.595732	-2.147355
H	1.087273	0.0	0.0
H	-1.73248	-0.030221	-1.328821
H	-0.254276	0.897353	0.564632
N	-0.225038	-1.054224	-2.295644
O	0.854242	-1.595391	-2.114549
O	-1.022765	-1.29171	-3.203236
N	-0.497186	-1.129945	0.74825
O	-1.008463	-2.078931	0.118536
O	-0.308239	-1.128308	1.971077
H	2.542677	0.0	0.0
