13

C	-0.452565	-0.005057	-1.420447
C	0.0	0.0	0.0
Cl	-2.232409	0.103278	-1.617097
H	1.092684	0.0	0.0
H	-0.121127	-0.889075	-1.953862
H	-0.370503	0.852119	0.562246
N	0.128131	1.17837	-2.14364
O	0.572847	0.966107	-3.268943
O	0.086131	2.264248	-1.576338
N	-0.411651	-1.21653	0.664821
O	-0.378071	-2.272208	0.012589
O	-0.652538	-1.155808	1.878423
H	2.548781	0.0	0.0
