19

C	-0.439988	-0.048715	-1.472826
C	0.0	0.0	0.0
F	-0.0869	1.192087	-2.030306
H	1.096685	0.0	0.0
C	0.344498	-1.101725	-2.232368
H	1.411468	-0.974626	-2.032872
H	0.043744	-2.111113	-1.940726
H	0.156118	-0.980983	-3.3026
C	-1.940971	-0.175285	-1.657518
H	-2.304602	-1.146486	-1.314931
H	-2.459158	0.614447	-1.107087
H	-2.179122	-0.070621	-2.719117
C	-0.437019	-1.222662	0.81595
H	-0.002147	-1.155943	1.814803
H	-0.055022	-2.135315	0.355848
H	-1.523363	-1.291482	0.913716
C	-0.508566	1.214569	0.633067
N	-0.976079	2.144776	1.177337
Br	3.557387	0.0	0.0
