19

C	-0.369256	-0.011004	-1.488252
C	0.0	0.0	0.0
F	-1.780504	-0.017709	-1.608256
H	1.097268	0.0	0.0
C	0.146493	1.235983	-2.176893
H	-0.298018	2.129478	-1.734507
H	-0.113645	1.205184	-3.238558
H	1.23313	1.286177	-2.06569
C	0.150904	-1.267146	-2.15987
H	1.225783	-1.357831	-1.981359
H	-0.35788	-2.1515	-1.773168
H	-0.035492	-1.21081	-3.235497
C	-0.493332	-1.223962	0.776297
H	-1.566662	-1.371784	0.633409
H	0.045517	-2.114487	0.450819
H	-0.29256	-1.091208	1.841176
C	-0.493284	1.219956	0.635598
N	-0.922438	2.180008	1.159601
Br	3.526305	0.0	0.0
