19

C	-0.435769	0.04309	-1.480216
C	0.0	0.0	0.0
F	-0.096504	-1.208769	-2.025603
H	1.096791	0.0	0.0
C	-1.93377	0.196737	-1.676586
H	-2.286509	1.145871	-1.268874
H	-2.472254	-0.619316	-1.190476
H	-2.162348	0.165526	-2.744724
C	0.366835	1.087111	-2.229665
H	1.4323	0.9067	-2.066606
H	0.12359	2.090556	-1.87065
H	0.138897	1.028999	-3.298097
C	-0.477564	-1.240032	0.757904
H	-1.565421	-1.271911	0.862761
H	-0.031042	-1.246338	1.753901
H	-0.137782	-2.128367	0.226556
C	-0.458128	1.217578	0.663999
N	-0.881329	2.181223	1.187497
Br	3.562406	0.0	0.0
