19

C	-0.435467	0.047327	-1.47979
C	0.0	0.0	0.0
F	-0.093271	-1.202133	-2.028779
H	1.096814	0.0	0.0
C	-1.933209	0.197396	-1.674563
H	-2.469115	-0.622875	-1.191954
H	-2.1617	0.170767	-2.743208
H	-2.288896	1.14342	-1.261432
C	0.365396	1.094954	-2.226312
H	1.430957	0.916379	-2.063349
H	0.138616	1.038725	-3.294968
H	0.119461	2.096939	-1.864948
C	-0.47746	-1.243209	0.752766
H	-1.565386	-1.276314	0.856453
H	-0.136495	-2.129357	0.218282
H	-0.031593	-1.252979	1.74907
C	-0.458616	1.214924	0.668191
N	-0.880979	2.176254	1.196589
Br	3.561809	0.0	0.0
