19

C	-0.442119	-0.061549	-1.472128
C	0.0	0.0	0.0
F	-0.117967	1.183457	-2.037347
H	1.096661	0.0	0.0
C	0.359625	-1.100972	-2.230287
H	0.082045	-2.112921	-1.929777
H	0.162223	-0.992081	-3.300275
H	1.423622	-0.952736	-2.038154
C	-1.940308	-0.221634	-1.646692
H	-2.472877	0.553832	-1.092288
H	-2.188256	-0.120826	-2.706418
H	-2.277551	-1.201147	-1.302795
C	-0.433792	-1.217922	0.825222
H	0.012195	-1.149687	1.818788
H	-1.519182	-1.281147	0.934302
H	-0.061252	-2.134164	0.364717
C	-0.512464	1.217519	0.624095
N	-1.000465	2.157056	1.133427
Br	3.562424	0.0	0.0
