14
Coordinates from ORCA-job run
  C   -0.62955679024943     -0.15463107375802     -0.57658302136006
  C   0.74194058997136     -0.49167293041582      0.02302633789595
  H   -0.62082251450453     -0.61207613656835     -1.57280054105507
  H   0.78492699759019     -1.57245561249565      0.18693837786052
  C   -0.77240536841664      1.30181282671969     -0.77507480660530
  N   -0.93894501015242      2.45049424705659     -0.95589891703657
  N   -1.67872302653079     -0.79643840775241      0.19219519359188
  H   -2.52366221874824     -0.86081545675487     -0.36098807929685
  H   -1.87750477993901     -0.25622587293201      1.02433928737496
  N   0.94271824109951      0.11944936183584      1.40216397250463
  O   -0.00430884279006      0.71501477744398      1.90324320466978
  O   2.04077558804572     -0.06873054295418      1.90436252612746
  C   1.84199953016932     -0.05877492733489     -0.83194161945125
  N   2.69256760445502      0.28504974791010     -1.56498191522007
