14
Coordinates from ORCA-job run
  C   -0.78262746428378     -0.22730486059483     -0.15759758485383
  C   0.71945874278230     -0.52763419694043     -0.02293125887836
  H   -1.30239252816224     -0.99893472904293      0.41659008787364
  H   0.95320350207471     -1.52474657675858     -0.40758382115680
  C   -1.17123365469712     -0.35564183655177     -1.57491026693991
  N   -1.49273286075954     -0.41614994230264     -2.70358950433558
  N   -1.05092008161867      1.05820093184663      0.45159213080797
  H   -2.03594338204551      1.15937822549285      0.65851717552310
  H   -0.76937681122985      1.81970423900529     -0.15563425461780
  N   1.03016070558767     -0.57376397307484      1.46289474072625
  O   0.37835116323745     -1.39977224168579      2.08934923963647
  O   1.88368465564983      0.18136256805384      1.90148751696613
  C   1.52468645732255      0.48853602554531     -0.68681300070892
  N   2.11668155614220      1.31676636700788     -1.27237120004237
