16

C	0.0	0.0	0.0
C	-0.346004	0.189503	-1.46677
F	1.389417	0.0	0.0
H	0.395626	-0.344449	-2.060641
H	-0.379964	0.835105	0.576462
C	-0.41771	-1.332398	0.580858
H	-0.028039	-2.150682	-0.029476
H	-1.508338	-1.321512	0.610516
H	0.018763	-1.404783	1.582768
N	-0.182048	1.62139	-1.888502
O	0.206366	1.78999	-3.045629
O	-0.433274	2.514975	-1.088533
N	-1.660603	-0.296578	-2.018834
O	-2.385008	0.511357	-2.577302
O	-1.74039	-1.5167	-2.082228
F	-2.590251	0.0	0.0
