16

C	0.0	0.0	0.0
C	-0.475844	-0.01004	-1.449204
F	1.389049	0.0	0.0
H	0.377246	0.263254	-2.07701
H	-0.355644	0.924611	0.441731
C	-0.395866	-1.202815	0.83465
H	0.024298	-1.069284	1.835893
H	0.039306	-2.108232	0.403546
H	-1.484853	-1.223996	0.857579
N	-1.50638	1.020249	-1.786719
O	-1.323892	2.120129	-1.278199
O	-2.253567	0.786922	-2.726348
N	-0.808049	-1.397482	-1.925083
O	0.211972	-2.056978	-2.159237
O	-1.949264	-1.806976	-2.018624
F	-2.549534	0.0	0.0
