16

C	0.0	0.0	0.0
C	-0.287695	0.110538	-1.490187
F	1.389518	0.0	0.0
H	0.335021	-0.618111	-2.007364
H	-0.379715	0.867806	0.527064
C	-0.455635	-1.303538	0.608252
H	-1.550199	-1.237832	0.629647
H	-0.024262	-1.38143	1.61144
H	-0.101183	-2.146783	0.008119
N	0.187819	1.436992	-2.015291
O	0.621773	1.428504	-3.167642
O	0.110703	2.424075	-1.293444
N	-1.665519	-0.103397	-2.060661
O	-2.266071	0.87312	-2.48128
O	-1.943322	-1.278455	-2.257653
F	-2.629544	0.0	0.0
