16

C	0.0	0.0	0.0
C	-0.285107	0.033249	-1.494984
F	1.383591	0.0	0.0
H	0.309629	-0.744794	-1.97061
H	-0.388042	0.890219	0.481286
C	-0.453011	-1.274572	0.668818
H	-1.547613	-1.230053	0.659095
H	-0.054057	-1.286867	1.68836
H	-0.061509	-2.142852	0.129298
N	0.242277	1.31106	-2.086126
O	0.168128	2.341915	-1.429135
O	0.709775	1.220952	-3.222241
N	-1.670755	-0.151264	-2.056728
O	-2.234257	0.83734	-2.503085
O	-1.990836	-1.320131	-2.222848
F	-2.626196	0.0	0.0
