16

C	0.0	0.0	0.0
C	-0.421036	-0.193939	-1.448268
F	1.392137	0.0	0.0
H	0.395271	0.168989	-2.074141
H	-0.357397	0.983364	0.293079
C	-0.408698	-1.060088	0.999014
H	-1.497722	-1.100928	0.973997
H	-0.03786	-0.749351	1.98111
H	0.058762	-2.01567	0.745499
N	-1.597074	0.618275	-1.906548
O	-1.497115	1.816114	-1.673102
O	-2.358147	0.100677	-2.711622
N	-0.580868	-1.617462	-1.885696
O	0.210264	-1.978912	-2.766644
O	-1.433806	-2.324618	-1.372464
F	-2.581705	0.0	0.0
