16

C	0.0	0.0	0.0
C	-0.680733	-0.087674	-1.336961
F	1.37349	0.0	0.0
H	-1.825772	-0.108944	-0.967728
H	-0.338866	0.948672	0.416672
C	-0.442336	-1.135983	0.906644
H	-1.531227	-1.134183	0.922996
H	-0.055903	-2.089271	0.539457
H	-0.034811	-0.959357	1.905693
N	-0.248229	-1.285418	-2.091961
O	0.743343	-1.19348	-2.816658
O	-0.882961	-2.322006	-1.897959
N	-0.463882	1.093042	-2.202662
O	0.029746	2.105938	-1.702467
O	-0.884542	1.015203	-3.357423
F	-2.855033	0.0	0.0
