17

C	0.0	0.0	0.0
C	-0.546317	-0.068651	-1.411504
Cl	1.785398	0.0	0.0
H	-1.60935	-0.314604	-1.303488
H	-0.052506	-0.888343	-1.934555
C	-0.524545	1.147775	0.820566
H	-0.200063	2.087594	0.372583
H	-0.151705	1.089873	1.841169
H	-1.618185	1.087496	0.814509
N	-0.336008	-1.324587	0.712396
O	-0.455957	-1.296979	1.93119
O	-0.388951	-2.331916	0.015925
C	-0.406301	1.241748	-2.175826
H	-0.687608	1.082955	-3.219872
H	-1.080159	1.998216	-1.771207
H	0.618395	1.62422	-2.156588
Br	-3.962665	0.0	0.0
