17

C	0.0	0.0	0.0
C	-0.389917	-0.368431	-1.427832
Cl	1.784169	0.0	0.0
H	0.159714	0.339316	-2.059292
H	0.032044	-1.354714	-1.6343
C	-0.599034	1.289469	0.497462
H	-0.380368	2.083098	-0.218904
H	-1.686445	1.16067	0.563808
H	-0.204535	1.552608	1.477133
N	-0.379517	-1.112004	0.98253
O	-0.27454	-0.843817	2.175136
O	-0.736797	-2.189532	0.523199
C	-1.869639	-0.322595	-1.771173
H	-1.988568	-0.708324	-2.78964
H	-2.495674	-0.911361	-1.105408
H	-2.273596	0.688893	-1.742724
Br	-4.850865	0.0	0.0
