16

C	-0.542613	-0.002157	-1.454164
C	0.0	0.0	0.0
Cl	-0.185053	-1.568222	-2.191489
H	1.092509	0.0	0.0
C	-1.981747	0.233445	-1.476413
N	-3.142039	0.415294	-1.424211
N	0.13608	1.048204	-2.3669
O	1.346937	0.98014	-2.435134
O	-0.61006	1.814451	-2.965396
N	-0.512961	-1.102145	0.733591
H	-1.206985	-0.791548	1.401736
H	0.24932	-1.548405	1.227318
N	-0.398067	1.330489	0.609282
O	-0.217334	2.322918	-0.090261
O	-0.849867	1.33732	1.751369
Cl	3.214425	0.0	0.0
