16

C	-0.61846	-0.015502	-1.4067
C	0.0	0.0	0.0
Cl	-0.039862	-1.441118	-2.275653
H	1.096061	0.0	0.0
C	-2.074879	-0.053368	-1.31394
N	-3.23674	-0.131311	-1.155124
N	-0.210438	1.18502	-2.279654
O	0.964132	1.491536	-2.242005
O	-1.094024	1.670374	-2.972561
N	-0.407792	-1.152326	0.719983
H	0.310995	-1.402592	1.388316
H	-1.294029	-1.032376	1.19325
N	-0.433439	1.285991	0.69435
O	-0.414582	1.278711	1.920227
O	-0.755067	2.244377	-0.008225
Cl	3.19294	0.0	0.0
