16

C	-0.536702	0.108108	-1.429699
C	0.0	0.0	0.0
Cl	-2.317138	0.183432	-1.406343
H	1.091931	0.0	0.0
C	-0.030855	1.205858	-2.244902
N	0.325766	2.022224	-3.011247
N	-0.131779	-1.176195	-2.212197
O	-0.721629	-1.353356	-3.26994
O	0.768053	-1.849145	-1.740887
N	-0.510404	-1.161561	0.634918
H	0.234971	-1.595176	1.163951
H	-1.278047	-0.927625	1.249638
N	-0.395877	1.282869	0.714302
O	-0.055431	2.336618	0.188583
O	-1.016111	1.18435	1.772243
Cl	3.188122	0.0	0.0
