16

C	-0.485736	0.021009	-1.454428
C	0.0	0.0	0.0
Cl	-0.138478	1.46561	-2.412488
H	1.094743	0.0	0.0
C	0.085439	-1.134773	-2.142076
N	0.528486	-2.042166	-2.742518
N	-2.01907	-0.149976	-1.483441
O	-2.62993	0.386654	-0.567281
O	-2.505006	-0.756068	-2.427316
N	-0.464844	-1.223688	0.566933
H	-1.288288	-1.065447	1.13416
H	0.268214	-1.618694	1.142405
N	-0.41514	1.217945	0.802981
O	-0.09688	2.316524	0.366697
O	-0.992061	1.017071	1.869248
Cl	3.169635	0.0	0.0
