17
Coordinates from ORCA-job run
  C   0.87995948883617     -0.58477001301000     -0.08632384436707
  C   -0.50230954988015      0.02204083327866     -0.33216991054840
  Br  0.98495542576268     -1.45527686971521      1.67787774746238
  H   -0.43324966356762      0.42254405912073     -1.35540167431096
  H   1.02450343947744     -1.41274716918198     -0.78562171901520
  C   2.03056572208022      0.39917551227274     -0.20750120420735
  H   2.00258531686897      1.14701044825788      0.58545829761847
  H   1.97161603095405      0.91103489116242     -1.17390829498449
  H   2.98946763829207     -0.11805767549245     -0.14900214401394
  C   -0.84344250310574      1.17855744464281      0.60289167567885
  H   -0.87564674174933      0.83995246047328      1.64095979041542
  H   -1.82717877104675      1.58274223289403      0.35051491551107
  H   -0.12390265755923      1.99655294077515      0.53077279635141
  C   -1.60580165975760     -1.03261534747392     -0.32532533285439
  H   -2.54490650161265     -0.60107575887992     -0.68158179407288
  H   -1.77120845179028     -1.41779325078672      0.68287580081088
  H   -1.35500656220223     -1.87727473833751     -0.97351510547382
