17
Coordinates from ORCA-job run
  C   0.91411571657909     -0.57171886998923      0.42243876861688
  C   -0.56046087152071     -0.17556895731507      0.54170862956687
  Br  1.87506703175234     -0.09175404685054      2.07325613189449
  H   -0.91249804622753     -0.56858112333058      1.50260120823125
  H   0.98338552070743     -1.66237706971281      0.40108525772008
  C   1.65874724111257      0.02014736616254     -0.76136994344640
  H   1.15210497537428     -0.24163774085006     -1.69458495967231
  H   2.67594666683370     -0.37160585771883     -0.80679933948344
  H   1.71987554219964      1.10662284978289     -0.68882013003764
  C   -1.37413606783753     -0.85514713052940     -0.56303368806773
  H   -1.12102680703601     -0.46159323181602     -1.55079045150294
  H   -1.21475620499167     -1.93718058260113     -0.57409124103275
  H   -2.44100892630716     -0.67739263892975     -0.40435545045442
  C   -0.78702752164920      1.33299394165392      0.52907711607368
  H   -0.17700806142033      1.83815885926319      1.28022814110732
  H   -1.83571145077376      1.55473846482627      0.74337990241363
  H   -0.55560873679515      1.76089576795462     -0.44992995192659
