15

C	0.0	0.0	0.0
C	-0.527345	0.194486	-1.407665
Cl	1.770763	0.0	0.0
H	-1.586079	0.443151	-1.289244
H	0.006981	1.044835	-1.83546
N	-0.381834	1.192017	0.894866
O	-0.450484	2.277585	0.338731
O	-0.490185	0.969923	2.091356
C	-0.44089	-1.234325	0.644446
N	-0.650954	-2.29628	1.101671
C	-0.382702	-1.06087	-2.255495
H	0.647118	-1.427247	-2.291434
H	-1.030298	-1.849013	-1.868222
H	-0.701439	-0.842959	-3.277518
Cl	-3.463216	0.0	0.0
