15

C	0.0	0.0	0.0
C	-0.497393	0.193485	-1.421806
Cl	1.770193	0.0	0.0
H	0.081454	1.013958	-1.850628
H	-1.546454	0.48513	-1.334994
N	-0.386279	1.19094	0.88791
O	-0.424924	2.278149	0.332534
O	-0.526903	0.967667	2.080557
C	-0.440418	-1.238202	0.635673
N	-0.658447	-2.304022	1.07973
C	-0.380746	-1.084866	-2.24021
H	0.612447	-1.53865	-2.172195
H	-1.126112	-1.806238	-1.900363
H	-0.580412	-0.864798	-3.291869
Cl	-3.402788	0.0	0.0
