15

C	0.0	0.0	0.0
C	-0.520694	0.18606	-1.412983
Cl	1.76681	0.0	0.0
H	-1.586767	0.409571	-1.304737
H	-0.004181	1.050843	-1.835527
N	-0.389311	1.190971	0.890926
O	-0.439606	2.277969	0.335079
O	-0.521786	0.96874	2.08463
C	-0.438931	-1.236811	0.643824
N	-0.620796	-2.28738	1.13775
C	-0.341432	-1.065412	-2.260484
H	-0.652327	-0.853033	-3.286305
H	0.692773	-1.415793	-2.283704
H	-0.979958	-1.864734	-1.88244
Cl	-3.456028	0.0	0.0
