15

C	0.0	0.0	0.0
C	-0.570655	0.161917	-1.394891
Cl	1.764346	0.0	0.0
H	-0.069396	1.020909	-1.845687
H	-1.630218	0.394215	-1.239951
N	-0.398589	1.208099	0.860927
O	-0.727435	0.98724	2.016661
O	-0.297071	2.298998	0.316575
C	-0.423995	-1.220908	0.68351
N	-0.600905	-2.278509	1.164729
C	-0.445857	-1.100294	-2.231192
H	-1.070907	-1.889151	-1.808518
H	0.585316	-1.455927	-2.305113
H	-0.812206	-0.898651	-3.240449
Cl	-3.572653	0.0	0.0
