15
Coordinates from ORCA-job run
  C   -0.65412960928134     -0.52044968583686     -0.11734147143993
  C   0.77541031347771     -0.36198069204228      0.47401826341894
  Br  -0.70515966407236     -2.21666899990544     -1.09661713074916
  H   0.98638126199798     -1.26708262559974      1.05122346725758
  C   -1.01092466582844      0.61852228805353     -1.06276193420501
  H   -0.98117528148320      1.56955560826829     -0.52247073756314
  H   -2.01426855869242      0.47595510275578     -1.46415445804284
  H   -0.29952813128894      0.63463628993917     -1.88885779634628
  C   -1.61767235752662     -0.62501523172509      0.97474626476404
  N   -2.38632314096159     -0.67949222113450      1.86289941844270
  C   0.77354483118303      0.78352564160041      1.40406807673001
  N   0.81058218441118      1.73443346565984      2.09410304321012
  N   1.75735909804563     -0.22992825566105     -0.58469318945162
  H   1.93220289257713      0.74180828862026     -0.80530694353128
  H   2.63270082744225     -0.65781897299233     -0.31585487249412
