15
Coordinates from ORCA-job run
  C   -0.55393557924944     -0.30106185040790     -0.31061821988816
  C   0.69841713705558      0.07124072305176      0.51292883230698
  Br  0.01989492384888     -1.12524834190315     -2.00077441001611
  H   0.31648049377889      0.49517503584573      1.45045971221216
  C   -1.41993768002036      0.91314409730004     -0.62659814476879
  H   -1.73597920816439      1.38554824449228      0.30838649783649
  H   -0.85918580876279      1.63302627486995     -1.22413818588075
  H   -2.30746015364586      0.60820168609424     -1.18115210419636
  C   -1.31586668493629     -1.29874045197938      0.43530738421226
  N   -1.98511898835122     -2.04445086789663      1.04953924765733
  C   1.45501516158713      1.13718370210155     -0.17553893284254
  N   2.10226749001593      1.96803648773203     -0.69695606530987
  N   1.47026638924739     -1.10571033730261      0.84705123649397
  H   2.14020574726861     -0.89367307597353      1.57586847152025
  H   1.97393676032796     -1.44267132602438      0.03523468066314
