15
Coordinates from ORCA-job run
  C   -0.65968855837783     -0.51095503546023     -0.13372430516097
  C   0.76315488707524     -0.39399535690775      0.46946557435510
  Br  -0.77039575366879     -2.17951351874943     -1.14219002848710
  H   0.95035792223125     -1.30565430588694      1.04597923955254
  C   -0.97409961418487      0.66095158662548     -1.05858435175658
  H   -1.98214958479545      0.56208034814717     -1.46141757915804
  H   -0.26887161114067      0.67018171686674     -1.89093026158440
  H   -0.90883411477523      1.59939822493622     -0.50018459280905
  C   -1.63050583941138     -0.59644360878877      0.95376498297916
  N   -2.39599560681869     -0.66731122698420      1.84386915056596
  C   0.78242783995461      0.74083460779194      1.41439643459752
  N   0.82961894250769      1.63518092502879      2.17579162761487
  N   1.75928616955234     -0.29425033633929     -0.57915853624706
  H   2.66402494806927     -0.58203929578864     -0.22914377425346
  H   1.84366997378251      0.66053527550890     -0.90593358020849
