15
Coordinates from ORCA-job run
  C   -0.63696520287595     -0.44892903708378     -0.09481259885779
  C   0.88484652092058     -0.22384340954330      0.08445078358056
  Br  -0.97879419930186     -2.37851270153245     -0.07773992135564
  H   1.36925957941338     -0.67908127456878     -0.78576326418142
  C   -1.13116098100537      0.13336806727719     -1.41403446019641
  H   -0.92247111788273      1.20293185919840     -1.43243533318718
  H   -2.20231609766660     -0.03887626198545     -1.52274999131467
  H   -0.61082915222907     -0.35207206079322     -2.24246144418957
  C   -1.33756142398037      0.14916546666332      1.03823031591454
  N   -1.86642777422955      0.68993019593387      1.93851639487285
  C   1.38917918967313     -0.89918573440764      1.29574350538402
  N   1.84118860498846     -1.35001260143324      2.28242100129261
  N   1.14912469636948      1.20620673623155      0.06905298197575
  H   0.92121589165474      1.61369081752170      0.96989144478641
  H   2.13171146615173      1.37621993852182     -0.10830941452408
