15
Coordinates from ORCA-job run
  C   -0.52797203106774     -0.25967751930811     -0.40397230381109
  C   0.74423100469793      0.07019055698627      0.42041778150728
  Br  -0.03084913048531     -0.79869412614570     -2.21409229261779
  H   0.36593815528828      0.43547115968461      1.39103399952771
  C   -1.47836968057573      0.93076858931666     -0.47658307499442
  H   -1.75896869905244      1.24353853327609      0.53361449383324
  H   -2.38127730572665      0.65858520834645     -1.02338628201873
  H   -0.99303731505959      1.76150750136856     -0.99154810332883
  C   -1.17093560593087     -1.40038574539269      0.24391276677245
  N   -1.67206885439387     -2.28932495150573      0.82810321477375
  C   1.46173130459392      1.18687663234527     -0.20143582364191
  N   2.04258018215660      2.09567075679669     -0.66495032992745
  N   1.61406749811468     -1.08639123875872      0.52794658998190
  H   1.24175724268107     -1.73760751293982      1.20923950074345
  H   2.54317323475973     -0.81152784406983      0.81969986320044
