15
Coordinates from ORCA-job run
  C   -0.63339365631245     -0.47286931780850     -0.12669379321422
  C   0.78078294081180     -0.28766636429230      0.49033752204132
  Br  -0.58930540414157     -2.14080401842996     -1.17407276440416
  H   0.96498626695325     -1.15575907641927      1.14056181753764
  C   -1.03854282002113      0.68143359225881     -1.03138365373381
  H   -0.28646662309949      0.80893938051385     -1.80813601793046
  H   -1.10436815507041      1.59775088538185     -0.43848629009867
  H   -2.01125991057175      0.48266051504075     -1.48180125895901
  C   -1.59815975418651     -0.67655385978787      0.94944601260966
  N   -2.36893139630265     -0.80994354632541      1.82739614114430
  C   0.75417936526308      0.90813677299923      1.34202991601260
  N   0.74517322561133      1.86956565140943      2.01618837680606
  N   1.77058630491162     -0.10254184424829     -0.56041061219679
  H   1.99999128472516     -1.00002775170768     -0.96965852627137
  H   2.61672833142973      0.29867898141536     -0.17531686934308
