12
Coordinates from ORCA-job run
  C   0.93647414914952     -0.06968303872191      0.04487270274069
  C   -0.43274355736848      0.02119536776803      0.03915138552376
  C   1.47207145426651     -1.33237208087877      0.43670020586973
  N   1.82600147143571     -2.40651153501578      0.76641848582120
  C   1.85298013286618      0.95009258898264     -0.33456819967603
  N   2.69578268027795      1.71471721985443     -0.63794322858771
  N   -1.29687216738410     -0.93048751431865      0.43091255765054
  H   -2.25713223760890     -0.81385880045923      0.14481852186612
  H   -0.95305933000773     -1.86780748364690      0.57610804443632
  N   -1.10770684363859      1.27099976085412     -0.38318963947463
  O   -0.43703849489493      2.29587859975790     -0.41867946303728
  O   -2.30075725709313      1.16783691582411     -0.66560137313270
