12
Coordinates from ORCA-job run
  C   0.93417423163804     -0.07956307902959     -0.06900500824470
  C   -0.43479801122508     -0.00432883855518     -0.01122776438782
  C   1.49822537464692     -1.35390390273568      0.23547365333908
  N   1.87652388237445     -2.43700710637825      0.50302964793707
  C   1.82739626177473      0.98714513708794     -0.36594735331376
  N   2.65247051612114      1.79885087849724     -0.58330375956538
  N   -1.27973322195519     -1.02041025591425      0.23302291010568
  H   -0.90484911506115     -1.88725666621764      0.58809194093650
  H   -2.22403708340181     -0.77170875784254      0.48601774748442
  N   -1.13538768623856      1.27410070813648     -0.27581165545614
  O   -2.30254486114189      1.33614876751614      0.10869713968052
  O   -0.50944028753162      2.15793311543532     -0.84903749851548
