12
Coordinates from ORCA-job run
  C   0.93950171375820     -0.05287415645194     -0.02306036052339
  C   -0.42991754117322      0.00958906605815      0.05872162624824
  C   1.51335840569327     -1.33608905295686      0.22059581218135
  N   1.89589593970030     -2.43040312316357      0.43039180469377
  C   1.82072736819543      1.02105158653452     -0.32805383197900
  N   2.63885772879900      1.82683411688028     -0.58990763479204
  N   -1.25200374848052     -0.99839265141038      0.39414525117628
  H   -2.23340553306877     -0.87615027095339      0.19596043147187
  H   -0.88254509285215     -1.93547644902692      0.44275158378981
  N   -1.15089344383823      1.27806687233179     -0.20163782979340
  O   -2.36632422059915      1.18219830379007     -0.36690398019180
  O   -0.49225157613416      2.31064575836823     -0.23300287228167
