12
Coordinates from ORCA-job run
  C   0.92175802690826     -0.12309573433715     -0.14007343803273
  C   -0.43368722934620      0.01870051275369      0.01961484344186
  C   1.43336878153624     -1.44021276496099      0.05471717601537
  N   1.76809992655186     -2.55425124887110      0.24067677358027
  C   1.84962821654605      0.91119803467103     -0.44587229647809
  N   2.69970267667981      1.69127794577529     -0.68192335190915
  N   -1.31461934111094     -0.96547955797563      0.26765171169182
  H   -0.96405940652031     -1.87054098158326      0.54333184642196
  H   -2.22332820143085     -0.68416398693507      0.60315994051541
  N   -1.07910260600064      1.34470029093692     -0.12239378649447
  O   -0.44975900629364      2.22580172675588     -0.69608346546593
  O   -2.20900183751964      1.44506576377039      0.35419404671369
