12
Coordinates from ORCA-job run
  C   0.93843554035795      0.02561144813026      0.04564364439264
  C   -0.43319949496174      0.03977822291682      0.00906683235944
  C   1.81416459894849      0.01269587975988     -1.07519954396003
  N   2.62599603614349     -0.01620368598719     -1.92792063723693
  C   1.52282816209562     -0.01806783045112      1.34635456123432
  N   1.92088814550868     -0.05592209484248      2.45444305097272
  N   -1.25909517612443      0.08659795072269      1.06839685939759
  H   -0.87960597434919     -0.09204792009669      1.98619563535283
  H   -2.22319603716279     -0.15695565784909      0.89804467151769
  N   -1.15632937850148      0.05575185829569     -1.28373719538894
  O   -0.52736958878867      0.38323051591089     -2.28318356777314
  O   -2.34351683316593     -0.26446868650965     -1.23910431086819
