12
Coordinates from ORCA-job run
  C   0.93659185250667     -0.08410020750786      0.00475129681977
  C   -0.43242600367499     -0.00315955876863     -0.04478149688496
  C   1.46882553689903     -1.35388190538266      0.37785459335422
  N   1.81949308984240     -2.43276741265321      0.69543212549859
  C   1.85555956029482      0.97262785719654     -0.24581552351934
  N   2.69971631361963      1.77599343746751     -0.41592414224153
  N   -1.29882650083094     -1.01063473281769      0.15568242990921
  H   -2.25854789774456     -0.75323912095057      0.32956905814821
  H   -0.95684614771899     -1.87113488239645      0.55635569013647
  N   -1.10404759002002      1.27222775909810     -0.38792478344111
  O   -0.43174152071781      2.14140023808713     -0.93032869958098
  O   -2.29675069245526      1.34666852862779     -0.09487054819856
