12
Coordinates from ORCA-job run
  C   0.94052691483273     -0.02781736656871      0.02834836744107
  C   -0.43171873707005     -0.00247685118939      0.04371453624365
  C   1.53718478886270     -1.29491661140976      0.29909333176790
  N   1.93969782519332     -2.37835101095251      0.52682870120124
  C   1.80523512819874      1.06400959009440     -0.26100298901111
  N   2.60668601957779      1.89406134283543     -0.49701951619069
  N   -1.24370500123118     -1.02701999020211      0.35315346032827
  H   -2.21381398811396     -0.92943580574595      0.09508565093115
  H   -0.85459821103677     -1.95589853619344      0.41361282326237
  N   -1.17169019159992      1.24592707521519     -0.25709471687255
  O   -0.54620264636758      2.29913683781210     -0.22875986082646
  O   -2.36760190124583      1.11278132630474     -0.51395978827485
