12
Coordinates from ORCA-job run
  C   0.93782847813440     -0.04592569450453      0.01206990264162
  C   -0.43157171307922      0.05589252301737      0.01825812929603
  C   1.78884105345248     -0.05538720567805     -1.12761789669075
  N   2.59040921335212     -0.07829854652681     -1.99059167373154
  C   1.55221940868697     -0.15733896234378      1.29485246720428
  N   1.97211287365608     -0.25328438138705      2.39162727417169
  N   -1.21527492782334      0.13426187252872      1.10632869460167
  H   -2.20299258797825     -0.01722541750038      0.97055600804343
  H   -0.81544253759149     -0.06955632699997      2.00945073673924
  N   -1.19545847628057      0.14478288737295     -1.24877648153006
  O   -2.41803531537281      0.04936061586263     -1.14843427926411
  O   -0.56263546915637      0.29371863615889     -2.28772288148151
