12
Coordinates from ORCA-job run
  C   0.92407157432925     -0.08505626822587     -0.13809877877180
  C   -0.42791463528956      0.01977485169939      0.08659425939832
  C   1.58240539674476     -0.10679074863128     -1.39784330014348
  N   2.23619692276147     -0.13878254061825     -2.37697134210579
  C   1.74313363453186     -0.15498223664037      1.02750755201940
  N   2.36458556128718     -0.19966250436330      2.02764004475731
  N   -1.02905600650877      0.01608854751330      1.28438402746874
  H   -0.48087098046064      0.10021510738091      2.12597547266678
  H   -2.02322448961747      0.17308678545816      1.31814456729177
  N   -1.38656875552812      0.10184838759193     -1.04226847445190
  O   -2.57769924761963      0.14135788058127     -0.73779751411211
  O   -0.92505897463032      0.13290273825410     -2.17726651401724
