12
Coordinates from ORCA-job run
  C   0.93713998167941     -0.02107774286733      0.09173769100501
  C   -0.43310236586270     -0.00265656456963      0.01660273263224
  C   1.51684760387063     -1.26476477233012      0.48186386640608
  N   1.90386379889389     -2.32958642824538      0.80458553518471
  C   1.81542889084624      1.05534601612342     -0.21401653407683
  N   2.62791144380443      1.87284529890131     -0.45540175143276
  N   -1.26289099827678     -1.00943213945548      0.33816672315555
  H   -0.87644556922290     -1.93151401571849      0.47414414857525
  H   -2.21283150814879     -0.93527514174342      0.00648881953199
  N   -1.15296279187332      1.22136063256028     -0.40822398656247
  O   -0.53595457238665      2.27984765360878     -0.38989978291469
  O   -2.32600391332348      1.06490720373606     -0.74504746150408
