12
Coordinates from ORCA-job run
  C   0.93835199930661     -0.05988566456474      0.01978205633820
  C   -0.43121464840531     -0.01284038396153     -0.05218903222450
  C   1.49756966761861     -1.32579235794311      0.36545061175835
  N   1.87095057034669     -2.40411151766783      0.65807950535777
  C   1.83317951869968      1.02766962764450     -0.18128504778413
  N   2.65710766615507      1.85890458473854     -0.31161767758875
  N   -1.27373625119426     -1.04862060292749      0.10244236095098
  H   -2.24288557346347     -0.82086224458915      0.26544677914220
  H   -0.91596449598136     -1.90825032805976      0.49107547361364
  N   -1.13047748630088      1.25281345058350     -0.37442201182877
  O   -2.33036636456272      1.28697164173660     -0.10412487851032
  O   -0.47151506834274      2.15501086682257     -0.87763523448522
