12
Coordinates from ORCA-job run
  C   0.93519222126636     -0.03802824932688      0.09184944780472
  C   -0.42560511383124     -0.02328758970092     -0.08570087180638
  C   1.81698611491923      1.06819829839918     -0.06054087777050
  N   2.62893523531995      1.91728678232782     -0.14133405549543
  C   1.49413142276315     -1.28336535368313      0.50633856187808
  N   1.86889072320914     -2.34658882949430      0.84849333075276
  N   -1.25472789261302     -1.07626883693316      0.02161525601916
  H   -0.90797113460618     -1.92113210160900      0.45022338487819
  H   -2.23786538689310     -0.87073081766637      0.11742215206227
  N   -1.12576508683733      1.21792191870417     -0.48453829476990
  O   -2.34142117570322      1.23511905449593     -0.29480071534750
  O   -0.45177992699374      2.11987572448667     -0.96902731820548
