12
Coordinates from ORCA-job run
  C   0.93058889283876     -0.06998302211874      0.08074040810217
  C   -0.43014803255370     -0.01410141159017     -0.08468327884871
  C   1.85484372030806      0.98751745739734     -0.14773754493547
  N   2.70640678024281      1.78830533797738     -0.29261929752369
  C   1.45054665475174     -1.30324330799730      0.57454137836422
  N   1.80477135145667     -2.34213804919665      1.00138923595423
  N   -1.29794651639863     -1.02585159595401      0.08957921139741
  H   -2.27054645919232     -0.77541189471939      0.18532014476387
  H   -0.97751051564124     -1.86512457843308      0.54911158625894
  N   -1.08659308904828      1.23280189797821     -0.54009773617811
  O   -0.38626737181042      2.07606960137160     -1.08867349443483
  O   -2.29614541495343      1.31115956528480     -0.32887061292004
