12
Coordinates from ORCA-job run
  C   0.93452715669245     -0.09562615424856     -0.03880954608729
  C   -0.43487893590217     -0.01338326833489      0.02443760500702
  C   1.74913706613446      0.06522577373346     -1.19274937719785
  N   2.53056509704904      0.17962386453044     -2.06694052727960
  C   1.58863718338079     -0.31342775226070      1.21072756677517
  N   2.02001200235895     -0.49204861755338      2.29220910520413
  N   -1.18410917824250     -0.20077485101062      1.12026782246053
  H   -2.14440561334299      0.10233140251425      1.08505291520464
  H   -0.73625516264549     -0.27898196669467      2.02057527686352
  N   -1.23589751511464      0.27845399842285     -1.18754436270015
  O   -2.41689375321710      0.55948291080466     -0.99439422875448
  O   -0.67043834715079      0.20712466009717     -2.27183224949564
