12
Coordinates from ORCA-job run
  C   0.93579013408678     -0.07987331330746     -0.03250820638829
  C   -0.43421433895860     -0.00168186284273     -0.03001718634539
  C   1.84400063316534      0.99372750935963     -0.24760519282505
  N   2.68127781622067      1.80814887003825     -0.39818437888629
  C   1.48374367850707     -1.36809870527594      0.24211094715113
  N   1.84898069357967     -2.46212298491409      0.48181467838162
  N   -1.29106230515827     -1.02429522561740      0.13193562255129
  H   -2.24434882095853     -0.78329378764304      0.35716531273605
  H   -0.93328186869081     -1.90826610436661      0.46115480615416
  N   -1.11987305285748      1.29029822472918     -0.26607599868134
  O   -2.30177069095440      1.34010813926200      0.07229138356973
  O   -0.46824187798145      2.19634924057820     -0.77208178741762
