12
Coordinates from ORCA-job run
  C   0.93402455937692     -0.09680009039664     -0.05048244655090
  C   -0.43454079867011     -0.00073780857174     -0.01657754306125
  C   1.84386342700523      0.92149073575648     -0.45010430650729
  N   2.68110702377972      1.69717503002349     -0.74071487151288
  C   1.47904723739478     -1.33781055436897      0.39406937741564
  N   1.83967029633132     -2.38892107126203      0.78495504022288
  N   -1.29452072783121     -0.97506763514807      0.32602058954823
  H   -0.93289741844698     -1.80272241922920      0.77597132467761
  H   -2.23753424958461     -0.69139699113732      0.54437423817139
  N   -1.11725616595012      1.24966741824927     -0.42509889440926
  O   -0.47547817106496      2.05929771784887     -1.08369966746347
  O   -2.28648501233999      1.36582566823587     -0.05971284053072
