12
Coordinates from ORCA-job run
  C   0.93813409244152     -0.06437550967992     -0.01280729823188
  C   -0.43257393413933     -0.01199531141733     -0.04573352315713
  C   1.82784638146059      1.03213236049997     -0.18867842954693
  N   2.64684090907860      1.87032500122176     -0.30408531485656
  C   1.50332419000499     -1.34307271063730      0.27072013546292
  N   1.88127066396025     -2.43184752019016      0.51443013566376
  N   -1.27506884067393     -1.05129332857133      0.08701357887035
  H   -0.90766076894142     -1.92758385109337      0.42673484641359
  H   -2.23536676126069     -0.82674717437149      0.29999653177895
  N   -1.13484199558539      1.26914990167941     -0.29137739602670
  O   -0.49405712248705      2.18109610645565     -0.80072911934499
  O   -2.31784681385813      1.30421203610410      0.04451585297463
