12
Coordinates from ORCA-job run
  C   0.94653637497964     -0.05684054418648      0.02519281489464
  C   -0.42354664104890     -0.01877815116836     -0.07236863432997
  C   1.49980733439467     -1.32071601402929      0.38829383999286
  N   1.84787017782690     -2.39326426228966      0.73049924602726
  C   1.82944749150596      1.05215542054059     -0.07699309451324
  N   2.62254896036330      1.91935512487595     -0.14913629893223
  N   -1.25826237200277     -1.06414553403894      0.05033471320786
  H   -0.90789263120483     -1.92243486121209      0.44822612237641
  H   -2.23984185718245     -0.84770638614276      0.13804678222855
  N   -1.12537224871470      1.23997467158738     -0.41594925016646
  O   -0.45609176839134      2.15678700721723     -0.87370840464647
  O   -2.33520282052548      1.25561352884643     -0.19443783613921
