12
Coordinates from ORCA-job run
  C   0.92726561926593     -0.10952563930898     -0.11300400554565
  C   -0.43454595513549      0.01229399066080      0.00448336858088
  C   1.45151051864624     -1.42073694821955      0.08859692322568
  N   1.79680690395546     -2.53151298701445      0.27529936351362
  C   1.85022809983061      0.94098976008075     -0.37453825198204
  N   2.69755390241962      1.73565943042337     -0.56765234694272
  N   -1.30852468583075     -0.98567562566948      0.21957425617859
  H   -0.95468232940949     -1.88612454727377      0.50586615681952
  H   -2.23223241246447     -0.71884053405658      0.52482231150290
  N   -1.09416122673524      1.32946120933711     -0.15188111694340
  O   -2.24209779833418      1.41026652208624      0.28360071516224
  O   -0.45712063620820      2.22374536895455     -0.69616737356963
