12
Coordinates from ORCA-job run
  C   0.93685301257068     -0.06872873327654     -0.05162635641356
  C   -0.43378178469888     -0.00583598391028     -0.02148911214020
  C   1.82831047241979      1.02116596425134     -0.25479508480129
  N   2.65086141389426      1.85160698559857     -0.39889932293437
  C   1.50292407806934     -1.35762257834332      0.17858587815598
  N   1.88325450863481     -2.45351314177903      0.38383511187110
  N   -1.27593315023838     -1.04179587949677      0.13204622775852
  H   -2.22812283277513     -0.81725417690919      0.37786527738984
  H   -0.90251795490424     -1.92881950582076      0.43490978888402
  N   -1.13856997256545      1.28301325831961     -0.21377478018456
  O   -2.31610968539782      1.30963905356416      0.14233814282118
  O   -0.50616810500896      2.20914473780222     -0.70799577040665
