12
Coordinates from ORCA-job run
  C   0.93536937197346     -0.08175746433788     -0.01073614801610
  C   -0.43386114396593     -0.00248299435023     -0.03538641155756
  C   1.84724976453605      0.98690631080561     -0.23481902476486
  N   2.68596400760837      1.79914557211204     -0.38889052801108
  C   1.47944105585754     -1.36423913812815      0.29666745322829
  N   1.84183005334110     -2.45462277465534      0.55573872006658
  N   -1.29611741609471     -1.02010406792285      0.13508772114248
  H   -2.25069403375010     -0.76847424132541      0.34423200207991
  H   -0.94737965253266     -1.89260345084654      0.50314224767413
  N   -1.11244099815830      1.28327318865298     -0.31942464733536
  O   -2.29444738690530      1.35178971295483      0.01516316172902
  O   -0.45591362190952      2.16516934704094     -0.86077454623544
