12
Coordinates from ORCA-job run
  C   0.93354064084014     -0.09300857609410     -0.05938565580012
  C   -0.43495814325998     -0.00422018983076     -0.01324386686782
  C   1.49027019821793     -1.33402636633667      0.37047223991522
  N   1.86289515597345     -2.38693176912216      0.74515163283950
  C   1.83337620199165      0.93408992798834     -0.45921193220832
  N   2.66277308439720      1.71666621890996     -0.75343052802932
  N   -1.28766658274973     -0.98612153930697      0.32682435723701
  H   -0.91802709509235     -1.81248454639100      0.77258857322237
  H   -2.22845452624159     -0.70388345613274      0.55695345685925
  N   -1.12621177504148      1.24807068730097     -0.40198859162798
  O   -2.29288193084804      1.35535987539904     -0.02628326384780
  O   -0.49365522818720      2.06748973361609     -1.05744642169199
