12
Coordinates from ORCA-job run
  C   0.93761729989832     -0.06893952645822      0.02283589345161
  C   -0.43148304034754     -0.01135057844279     -0.05203845326739
  C   1.48224917276367     -1.31958850552479      0.43918789751543
  N   1.84365852366364     -2.38318651869263      0.79408080941178
  C   1.84476945341309      0.99504232411194     -0.23921640082310
  N   2.67944986384027      1.80693296140636     -0.41592988058260
  N   -1.28510580663579     -1.02730471248946      0.16246814282133
  H   -2.25118316751402     -0.77814061979498      0.31178646756463
  H   -0.93667029198703     -1.86525312973839      0.60366312203028
  N   -1.11751336693644      1.24129542825946     -0.44716466435005
  O   -2.31833270108335      1.30132287750195     -0.18513168015119
  O   -0.44745593907479      2.10916999986155     -0.99454125362073
