12
Coordinates from ORCA-job run
  C   0.93712995193568     -0.06758730423664     -0.03379488795082
  C   -0.43401099930907     -0.01265618540120     -0.02404895925757
  C   1.51259498883103     -1.30509261388646      0.38023487155012
  N   1.89832399524326     -2.35985176763303      0.73586438048134
  C   1.82196013362126      0.99271553897662     -0.37472956096501
  N   2.63980554755368      1.80390275794536     -0.61969323538066
  N   -1.27001122395680     -1.02541110524241      0.26275949565600
  H   -2.22688194199701     -0.77861359676215      0.46511452919898
  H   -0.89400413120836     -1.85427857571379      0.69772112420882
  N   -1.14579322094809      1.22931252016350     -0.40557714748271
  O   -2.32636636595098      1.29688506824544     -0.06530250268697
  O   -0.51474673381461      2.08167526354476     -1.01954810737152
