12
Coordinates from ORCA-job run
  C   0.93857786349099     -0.06331477280547      0.03247094386457
  C   -0.43164332429343      0.01003679648355      0.04154966300082
  C   1.83954149991285      1.00980413794230     -0.21375861498966
  N   2.66811235830143      1.82059482527989     -0.42098542844972
  C   1.49047743287325     -1.35829850214492      0.26350185560182
  N   1.85358651242851     -2.46114457861037      0.46228380682462
  N   -1.28302497314573     -0.99452017984007      0.31033074149965
  H   -0.92646879984285     -1.93814952036719      0.33298149181563
  H   -2.24383605523424     -0.85670993709686      0.03543264910693
  N   -1.12307930643296      1.29448947300523     -0.21660321171232
  O   -2.31018613787957      1.21188117038300     -0.52930839913257
  O   -0.47105707017823      2.32533108777090     -0.09789549742977
