12
Coordinates from ORCA-job run
  C   0.93612381263125     -0.05441801431184      0.07232497460107
  C   -0.43398487892083      0.00609738630584      0.02470436504893
  C   1.83746914718385      1.02744684432235     -0.13063294518175
  N   2.66703143014175      1.84672324416552     -0.29615613985468
  C   1.49110159547068     -1.34610377815994      0.31398714823339
  N   1.86324272108918     -2.44624501985147      0.51154717444091
  N   -1.28560375893717     -1.00895235878623      0.25022317471702
  H   -0.92115279261093     -1.94931863018290      0.28022115115852
  H   -2.23641301513293     -0.87679943213458     -0.05986111191975
  N   -1.12696849952472      1.28609209201074     -0.25215589831885
  O   -0.48602567057953      2.32140908527540     -0.11446538661144
  O   -2.30382009081059      1.19506858134712     -0.59973650631338
