12
Coordinates from ORCA-job run
  C   0.93620822550420     -0.06983040613102     -0.05963393228010
  C   -0.43434212364257      0.00661778797314      0.00600545175253
  C   1.84004915566795      0.99315696065838     -0.33555274365450
  N   2.67770460595154      1.79173599979238     -0.55380918274056
  C   1.49434610040415     -1.35842838331016      0.19553773567923
  N   1.86857499677374     -2.45133911716830      0.42664613150208
  N   -1.27123140770110     -1.01756102782439      0.22187567921088
  H   -2.24287593278221     -0.80776456445083      0.38469157814657
  H   -0.90360558112516     -1.92046028498961      0.47869282936326
  N   -1.13890020808150      1.29370942308525     -0.20661112125454
  O   -2.35947247463065      1.27123028695829     -0.05052788083614
  O   -0.46445535633838      2.27093332540687     -0.50831454488870
