12
Coordinates from ORCA-job run
  C   0.93543063636142     -0.01228306525396      0.11090131028028
  C   -0.42437475659658     -0.02084388047238     -0.07412782298752
  C   1.51721760233115     -1.27384236616822      0.43239000537859
  N   1.89164395841152     -2.36061382844918      0.69095869269144
  C   1.79833300051361      1.11132411388458      0.00183182227882
  N   2.59613414109119      1.97743561226262     -0.04439882513903
  N   -1.22416195370844     -1.10321702790706     -0.02960967350321
  H   -0.85037068872273     -1.97040354900566      0.32247801231417
  H   -2.21299432351696     -0.92970075677400      0.06497680218799
  N   -1.15417161121040      1.22031795253569     -0.40773915201171
  O   -2.37406900206574      1.19320392688850     -0.23964977938494
  O   -0.49861700288806      2.17062286845908     -0.82701139210487
