12
Coordinates from ORCA-job run
  C   0.93580140258048     -0.07365672487383      0.01391535933714
  C   -0.43396402107860      0.00084219561283     -0.03096308751388
  C   1.47391575397291     -1.35520937565597      0.33417887251553
  N   1.83476821347074     -2.44455064780554      0.60082151998179
  C   1.85809028591769      0.98453172690575     -0.21155966531772
  N   2.71554368297418      1.77858431147528     -0.36174127868491
  N   -1.29156531373436     -1.01764398676014      0.15374998136987
  H   -0.95332114435881     -1.87099538236437      0.57231746589940
  H   -2.26098766951241     -0.76877954151640      0.28619092477916
  N   -1.11775649889361      1.27525344756783     -0.37057939647812
  O   -2.33729758430265      1.28968581192409     -0.21658327216835
  O   -0.42322710703556      2.20193816549046     -0.77074742371992
