12
Coordinates from ORCA-job run
  C   0.93637396946998     -0.07747257358029      0.04590710426586
  C   -0.43259030078563      0.01778269553179      0.03567663770299
  C   1.85882408364288      0.97555768427947     -0.20703138727241
  N   2.70472641896003      1.76791548923828     -0.41542292656129
  C   1.46468881224084     -1.37708056938455      0.30413279457147
  N   1.81188651787918     -2.48167114700553      0.52135384258493
  N   -1.30277368757843     -0.96875062282333      0.31047357416514
  H   -0.96181173256347     -1.91737551290049      0.35366467635666
  H   -2.25907857191355     -0.81893460538389      0.02660422882886
  N   -1.10054460567848      1.30865961335304     -0.25222645128731
  O   -2.29033071053179      1.24097811782167     -0.55849909540617
  O   -0.42837019314157      2.32939143085382     -0.16363299794872
