12
Coordinates from ORCA-job run
  C   0.93658194192491     -0.08212813034279      0.01169982718755
  C   -0.43112577210371      0.02050023332255      0.05277783638269
  C   1.85420451476462      0.96267257187461     -0.28874682938582
  N   2.69661971559527      1.74676216808458     -0.53887425787897
  C   1.46823827267099     -1.38229092189546      0.26029375597876
  N   1.81836909074065     -2.48685283699171      0.47275182311430
  N   -1.29529459711941     -0.95829380984861      0.37054721238508
  H   -2.26150924948037     -0.80518355718665      0.12448270785328
  H   -0.95844491747508     -1.90858565742158      0.40839512911365
  N   -1.10257939120313      1.31260717947687     -0.22179337074972
  O   -0.42238650825478      2.33020952433392     -0.16632336028668
  O   -2.30267310005996      1.24858323659427     -0.48521047371413
