12
Coordinates from ORCA-job run
  C   0.90948004526760     -0.14601959810491     -0.18824413541677
  C   -0.43196195877165      0.02375125342827      0.04456213345437
  C   1.82035801267999      0.84868854702003     -0.64096651121518
  N   2.65753032923516      1.59784371777475     -0.99423481725756
  C   1.42835467488811     -1.44492813948504      0.09182107078113
  N   1.77083243365271     -2.54162410944211      0.35211945738632
  N   -1.30023483402418     -0.92391767467274      0.43807221083274
  H   -0.93615157490420     -1.80089972810357      0.77943380581558
  H   -2.18132161706753     -0.60065721403667      0.80827380332821
  N   -1.07859289162112      1.33796649096764     -0.17793908477245
  O   -2.17019871341195      1.49808545075564      0.36670925770833
  O   -0.48709390592294      2.15171100389870     -0.87760719064473
