12
Coordinates from ORCA-job run
  C   0.93928489038922     -0.06347890463361     -0.02612428174733
  C   -0.43246685951786      0.00371467517481      0.01469399705904
  C   1.83961024377987      1.00094895369817     -0.31011815800552
  N   2.66810834845161      1.80608331352379     -0.54075139238856
  C   1.50278024025628     -1.35124045524592      0.22004926634165
  N   1.88287348232965     -2.44863171797714      0.41581362803375
  N   -1.27051494274269     -1.02297535781419      0.21438990081331
  H   -0.91165867687327     -1.92966306877521      0.46949130012498
  H   -2.24505491760176     -0.81212139670141      0.35573718669984
  N   -1.14199662126684      1.28868341946593     -0.22057415703168
  O   -0.46463402918238      2.26865750013218     -0.50396071065353
  O   -2.36433115802181      1.26002303915259     -0.08864657924595
