12
Coordinates from ORCA-job run
  C   0.93718796010747     -0.05489509136515      0.04901176796757
  C   -0.43378103109965      0.00339106601691      0.03634224864640
  C   1.83136246588347      1.03856761252115     -0.12065181151320
  N   2.65530068779655      1.86688260166044     -0.26814260036920
  C   1.50142951416922     -1.35514129210689      0.20914248431164
  N   1.88164503991486     -2.46264885353257      0.33901650900708
  N   -1.27754753697472     -1.02446267775635      0.22898401732260
  H   -0.91073223763523     -1.96405682884645      0.20451157274090
  H   -2.23664214194215     -0.88001099740672     -0.04805070086148
  N   -1.13559002146666      1.29378991651773     -0.15972066872078
  O   -0.49238710568091      2.32298080592320      0.00918084344424
  O   -2.32124559307224      1.21660373837472     -0.47962366197578
