12
Coordinates from ORCA-job run
  C   0.93290180327987     -0.03557978994125      0.11456850764902
  C   -0.43428898128657      0.00242251350709      0.00332638064977
  C   1.83279251812169      1.03361232558223     -0.15145605466098
  N   2.66271354255124      1.84313637586885     -0.35811465737277
  C   1.48721828953085     -1.29015428259785      0.50705687820239
  N   1.85562496499210     -2.36089788735525      0.83196804659510
  N   -1.28625804771928     -0.99627524034777      0.29110873583933
  H   -2.22393679687266     -0.90654180127281     -0.06994698898477
  H   -0.91600168531715     -1.92487630310924      0.42779557522526
  N   -1.12564608421630      1.24088051611175     -0.42496499117664
  O   -0.49991580871957      2.29264703073597     -0.36165949891139
  O   -2.28620371434423      1.10262654281828     -0.80968193305433
