12
Coordinates from ORCA-job run
  C   0.93308235811046     -0.03589100100542      0.11427658573373
  C   -0.43411101717579      0.00242874054024      0.00302979919255
  C   1.83342571674902      1.03248071434342     -0.15352768053839
  N   2.66378636083309      1.84124884444570     -0.36141694620591
  C   1.48702739000427     -1.29000920257835      0.50894277999781
  N   1.85533882957471     -2.36022559023593      0.83571877981160
  N   -1.28644940257264     -0.99544442609381      0.29251784570869
  H   -2.22422935118661     -0.90568778479820     -0.06832692239420
  H   -0.91669932681664     -1.92401665805733      0.43068978947004
  N   -1.12514493066222      1.24059167677603     -0.42661532241328
  O   -0.49892878086592      2.29217481831011     -0.36509951918720
  O   -2.28609784599174      1.10234986835354     -0.81018918917544
