12
Coordinates from ORCA-job run
  C   0.93034809531836     -0.05612882432198      0.12079478927250
  C   -0.43491676640968      0.01366356041842      0.00198385004466
  C   1.85926118105623      0.97707074271699     -0.18546308937198
  N   2.71262537686144      1.75320376975396     -0.42278797939180
  C   1.45104352464994     -1.30712691823537      0.56660596791931
  N   1.79435555586595     -2.37103339373563      0.93785623846186
  N   -1.31433523763217     -0.94964225527449      0.32597450430592
  H   -2.24768206174089     -0.85033439012473     -0.04381893522861
  H   -0.96895463679969     -1.88181342703477      0.49864827774640
  N   -1.09109128848422      1.25197564116716     -0.47878014559202
  O   -2.25278653722984      1.12868930817755     -0.86506709466761
  O   -0.43786720545544      2.28847618649291     -0.45394638349863
