12
Coordinates from ORCA-job run
  C   0.92503338577442     -0.10503256511589     -0.13188658409592
  C   -0.43414825700941     -0.00057902335176      0.01730273676919
  C   1.80661716284837      0.93374418428187     -0.54226128833383
  N   2.61910902924332      1.72791859380807     -0.85169307030113
  C   1.49286665379154     -1.37051256575754      0.20084964196959
  N   1.87244674051846     -2.44673269363599      0.49311394874353
  N   -1.27916032492002     -0.98416412072852      0.37639352047827
  H   -2.18754717696557     -0.69158695935921      0.70450396901475
  H   -0.88898988840623     -1.82570255410464      0.77354372051501
  N   -1.12961506151148      1.27371595187201     -0.27612140277380
  O   -0.56034570669446      2.07722676273832     -1.00613849405872
  O   -2.23726655666894      1.41170498935329      0.24139330207306
