12
Coordinates from ORCA-job run
  C   0.90557333435411     -0.19958255710716      0.15046473557821
  C   -0.42485432612063      0.05348784357363     -0.07285566869308
  C   1.68466752748362      0.25519166815930      1.24874079906081
  N   2.43436723444353      0.57442173104456      2.09983558198593
  C   1.56001289304521     -0.98739179688878     -0.84253396967787
  N   2.01843902392117     -1.63080582874026     -1.71694934287069
  N   -1.16163744272653     -0.42651671674375     -1.08740912559462
  H   -0.70167985319437     -0.87441280939771     -1.86576379037370
  H   -2.07194015941828     -0.01556581736771     -1.23049650845119
  N   -1.21128605783963      0.88049875969849      0.87263004749636
  O   -2.33971415657033      1.20007353970000      0.50125094798620
  O   -0.69094801737787      1.16960198406939      1.94408629355364
