12
Coordinates from ORCA-job run
  C   0.93770784314110     -0.05679404645965      0.04851671083671
  C   -0.43296717386060      0.00817150383216      0.03177136050040
  C   1.83807873949544      1.01374255854229     -0.21033288059540
  N   2.66721342009613      1.82295266216220     -0.42144108809583
  C   1.49275312955157     -1.34157530879905      0.32402752049401
  N   1.86300988456755     -2.43532629438049      0.55757440257929
  N   -1.28222067197861     -0.99479300871887      0.31205894155870
  H   -2.24136245397093     -0.86707734044769      0.02666737676002
  H   -0.92156075138639     -1.93573020234578      0.36314990881051
  N   -1.12836455105747      1.28216728551330     -0.26778605219958
  O   -2.31631088135333      1.18666572567368     -0.57362722194875
  O   -0.47797653324446      2.31759646542790     -0.18757897870008
