12
Coordinates from ORCA-job run
  C   0.92184695351699     -0.02804174821498      0.18070528324427
  C   -0.43479245038485     -0.00071908574037     -0.02317770930012
  C   1.82925775104393      1.04816916460062     -0.02508902733401
  N   2.66509845018667      1.86380444194159     -0.17680584622419
  C   1.46143640109699     -1.27938886277522      0.60218155714935
  N   1.82409218297666     -2.34810465039968      0.94031357664628
  N   -1.29665002555975     -1.00613132856102      0.20536737596058
  H   -2.20809397393763     -0.92403752923153     -0.21902035548256
  H   -0.92888411932380     -1.93167587585543      0.36702596680551
  N   -1.10487816652627      1.23282554108640     -0.49826822201461
  O   -2.23572619503760      1.08516323698119     -0.96002623243893
  O   -0.49270680805135      2.28913669616842     -0.39420636701159
