18

C	-0.517559	0.013603	-1.428501
C	0.0	0.0	0.0
Cl	-2.266008	0.111371	-1.526134
H	1.090282	0.0	0.0
N	0.05278	1.183239	-2.244343
O	0.77361	1.985211	-1.671954
O	-0.276228	1.19096	-3.423209
N	-0.017274	-1.221054	-2.214229
O	-0.795408	-2.144616	-2.37947
O	1.146672	-1.136085	-2.569792
N	-0.407588	-1.327353	0.592268
O	-1.327793	-1.343225	1.410638
O	0.225982	-2.311079	0.217502
C	-0.506055	1.129818	0.872204
H	-0.148746	2.076393	0.473745
H	-1.590589	1.132805	0.959284
H	-0.074328	0.999608	1.865096
Br	3.4006	0.0	0.0
