18

C	-0.269138	-0.088263	-1.517666
C	0.0	0.0	0.0
Cl	-2.035643	-0.394875	-1.847764
H	1.093924	0.0	0.0
C	0.120476	1.177053	-2.264195
H	0.026976	0.99865	-3.338842
H	1.161258	1.406581	-2.020389
H	-0.503924	2.029832	-1.998329
N	0.458142	-1.266811	-1.938459
H	1.428251	-1.148768	-1.63837
H	0.446473	-1.319023	-2.950858
N	-0.478395	-1.071272	0.809343
H	-1.371291	-1.408281	0.472072
H	0.19919	-1.820542	0.768474
N	-0.529768	1.296404	0.527471
O	-1.665381	1.286115	1.00098
O	0.179342	2.295419	0.417605
Cl	3.32429	0.0	0.0
