18

C	-0.527969	-0.104437	-1.436063
C	0.0	0.0	0.0
Cl	-0.102241	1.480063	-2.287719
H	1.09074	0.0	0.0
C	0.240762	-1.197371	-2.151629
H	-0.057281	-1.236077	-3.203338
H	0.014858	-2.146465	-1.665465
H	1.311646	-1.000622	-2.080565
N	-1.93276	-0.347625	-1.466653
H	-2.241933	-0.446629	-2.425348
H	-2.43249	0.417351	-1.029453
N	-0.438649	-1.132285	0.74838
H	0.087942	-1.203712	1.608814
H	-1.434018	-1.10141	0.920144
N	-0.488425	1.302563	0.623533
O	-1.709361	1.384265	0.82702
O	0.323102	2.169606	0.915794
Cl	3.393926	0.0	0.0
