18

C	-0.603558	-0.038509	-1.416529
C	0.0	0.0	0.0
Cl	-0.068215	-1.625617	-2.132981
H	1.097019	0.0	0.0
C	-2.128642	-0.08481	-1.391544
H	-2.485789	-0.891989	-0.753297
H	-2.49996	-0.231881	-2.409162
H	-2.507015	0.867876	-1.013756
N	-0.028911	0.97641	-2.259831
H	-0.421759	0.902174	-3.189617
H	-0.247261	1.882768	-1.868677
N	-0.517071	-1.09687	0.817242
H	-0.144659	-1.943084	0.402734
H	-0.060182	-1.007833	1.71893
N	-0.388503	1.258631	0.739211
O	-0.748918	2.258271	0.113938
O	-0.268142	1.226179	1.959302
Cl	3.31953	0.0	0.0
