18

C	-0.350679	0.02259	-1.494229
C	0.0	0.0	0.0
Cl	-2.18772	-0.162204	-1.668138
H	1.093413	0.0	0.0
C	0.010104	1.323954	-2.19101
H	-0.166854	1.200735	-3.262984
H	1.070069	1.520782	-2.011022
H	-0.577572	2.170389	-1.84246
N	0.288689	-1.115241	-2.081542
H	1.12519	-1.355142	-1.555876
H	0.553454	-0.904753	-3.035345
N	-0.456631	-1.171454	0.650009
H	-1.456536	-1.140143	0.797281
H	0.019347	-1.274761	1.536494
N	-0.481676	1.278343	0.672344
O	0.148256	2.311814	0.458124
O	-1.471566	1.199182	1.402251
Cl	3.306589	0.0	0.0
