14

C	0.0	0.0	0.0
C	-0.481007	-0.079634	-1.443351
F	1.38459	0.0	0.0
H	0.00876	-0.963333	-1.867199
H	-1.560871	-0.246107	-1.407352
C	-0.408661	1.244012	0.681681
N	-0.54319	2.283142	1.212053
C	-0.409194	-1.186454	0.776018
N	-0.54526	-2.189812	1.370742
C	-0.144155	1.177861	-2.231961
H	-0.400285	1.031545	-3.283887
H	0.91797	1.426582	-2.169766
H	-0.727631	2.024297	-1.864289
Br	-3.599231	0.0	0.0
