14

C	0.0	0.0	0.0
C	-0.487854	0.145085	-1.434724
F	1.384353	0.0	0.0
H	0.018578	1.033086	-1.828862
H	-1.563319	0.332207	-1.384719
C	-0.404813	1.146876	0.837802
N	-0.533504	2.110067	1.497191
C	-0.41145	-1.271348	0.626779
N	-0.557349	-2.328485	1.117222
C	-0.186704	-1.091153	-2.270441
H	0.867529	-1.37435	-2.215478
H	-0.435066	-0.898084	-3.316515
H	-0.797815	-1.931071	-1.934511
Br	-3.603448	0.0	0.0
