14

C	0.0	0.0	0.0
C	-0.487801	0.079883	-1.439763
F	1.384677	0.0	0.0
H	-0.054791	0.998878	-1.848458
H	-1.574461	0.189697	-1.394021
C	-0.412212	1.183435	0.779951
N	-0.55359	2.185744	1.375909
C	-0.410682	-1.244377	0.680953
N	-0.569754	-2.279765	1.212067
C	-0.079913	-1.138628	-2.254389
H	-0.579948	-2.035711	-1.880934
H	-0.382219	-1.001535	-3.294775
H	1.000302	-1.301113	-2.230218
Br	-3.635995	0.0	0.0
