14

C	0.0	0.0	0.0
C	-0.513619	-0.500427	-1.342973
F	1.383298	0.0	0.0
H	-0.044613	0.133856	-2.102647
H	-0.114508	-1.513201	-1.464258
C	-0.418932	1.391846	0.257874
N	-0.615102	2.538601	0.41652
C	-0.426158	-0.879389	1.106328
N	-0.632118	-1.647696	1.969953
C	-2.034105	-0.471096	-1.433779
H	-2.5261	-1.033659	-0.640119
H	-2.441161	0.537555	-1.365926
H	-2.359727	-0.899341	-2.384016
Br	-5.22834	0.0	0.0
