14

C	0.0	0.0	0.0
C	-0.483799	0.11946	-1.436841
F	1.384599	0.0	0.0
H	-1.56436	0.285489	-1.3981
H	0.00922	1.010542	-1.838778
C	-0.403508	1.157076	0.825893
N	-0.652152	2.075657	1.51217
C	-0.420622	-1.27051	0.627854
N	-0.720898	-2.298324	1.110347
C	-0.139778	-1.125245	-2.245383
H	-0.774967	-1.959137	-1.943066
H	0.906481	-1.415577	-2.119894
H	-0.313886	-0.938706	-3.306923
Br	-3.639967	0.0	0.0
