12

C	0.0	0.0	0.0
C	-0.488048	0.313349	-1.406789
F	1.348503	0.0	0.0
H	-1.56792	0.498575	-1.32603
H	-0.371554	0.754508	0.714336
H	-0.338642	-0.558035	-2.044599
N	-0.593334	-1.252667	0.464911
O	-1.753404	-1.438087	-0.108905
O	-0.328876	-1.551418	1.656662
C	0.202699	1.46987	-1.965106
N	0.739824	2.405528	-2.428219
H	-2.812078	0.0	0.0
