12

C	0.0	0.0	0.0
C	-0.486798	0.275517	-1.414644
F	1.34839	0.0	0.0
H	-1.569831	0.449523	-1.343361
H	-0.373626	0.772543	0.69217
H	-0.320394	-0.607257	-2.034549
N	-0.591327	-1.239812	0.497676
O	-0.3338	-1.500908	1.698701
O	-1.750816	-1.43978	-0.074363
C	0.186124	1.433748	-1.99492
N	0.6974	2.371184	-2.484351
H	-2.801968	0.0	0.0
