12

C	0.0	0.0	0.0
C	-0.646371	-0.023317	-1.34428
F	1.352852	0.0	0.0
H	-1.772014	-0.136692	-1.004784
H	-0.383194	0.828266	0.59352
H	-0.574241	0.97677	-1.782701
N	-0.351555	-1.235935	0.810561
O	-0.596665	-2.277649	0.214787
O	-0.25692	-1.108067	2.029561
C	-0.11704	-0.999611	-2.269491
N	0.324244	-1.766157	-3.04498
H	-2.906065	0.0	0.0
