12

C	0.0	0.0	0.0
C	-0.487133	0.261476	-1.417435
F	1.348338	0.0	0.0
H	-1.572085	0.430038	-1.346779
H	-0.375209	0.77712	0.686027
H	-0.31563	-0.628721	-2.025998
N	-0.587665	-1.237845	0.505115
O	-1.745514	-1.446825	-0.067902
O	-0.333141	-1.490317	1.709393
C	0.184982	1.413046	-2.009717
N	0.704136	2.341733	-2.506877
H	-2.802138	0.0	0.0
