12

C	0.0	0.0	0.0
C	-0.480787	0.486142	-1.361146
F	1.348395	0.0	0.0
H	-1.565952	0.650375	-1.268329
H	-0.374872	0.665442	0.795829
H	-0.317975	-0.298165	-2.102841
N	-0.598729	-1.297814	0.298569
O	-1.747556	-1.406407	-0.313153
O	-0.356165	-1.745461	1.444773
C	0.20166	1.711828	-1.766159
N	0.72628	2.706979	-2.105563
H	-2.803408	0.0	0.0
