12

C	0.0	0.0	0.0
C	-0.485694	0.238962	-1.421607
F	1.348673	0.0	0.0
H	-0.260931	-0.640821	-2.028777
H	-0.378986	0.784727	0.674823
H	-1.578337	0.357368	-1.359207
N	-0.577096	-1.236263	0.522074
O	-0.308673	-1.477344	1.725895
O	-1.735295	-1.462278	-0.041058
C	0.126382	1.426017	-2.010096
N	0.585519	2.383907	-2.513025
H	-2.800858	0.0	0.0
