17
Coordinates from ORCA-job run
  C   0.72277481569382      0.14822915402527      0.15353469421201
  C   -0.57753003665730     -0.13385724652258     -0.04579730281821
  N   1.41469300303144     -0.49958648975400      1.27962530835146
  O   0.89152631813151     -0.46028595011149      2.39316920345587
  O   2.50072776292418     -1.02391518618864      1.02704885231251
  C   1.65767528125628      0.99636195167201     -0.64998530689032
  H   2.39605763085089      0.37086848545882     -1.15476572000236
  H   1.12729416744179      1.58533830893039     -1.39456792386707
  H   2.20330845872421      1.68020480977871      0.00584065911083
  C   -1.37655314496353     -1.07530004625976      0.81700577752071
  H   -0.77153585951328     -1.83219859961153      1.31342426914433
  H   -1.90222923566081     -0.51630837779380      1.59680604920252
  H   -2.12854569229857     -1.57790822284200      0.20336421766902
  C   -1.36713414561134      0.47638544968444     -1.17078747486862
  H   -0.84860059876973      1.27631707561013     -1.69549245164438
  H   -2.30608247877820      0.87916184697197     -0.77844489322209
  H   -1.63484624580136     -0.29450696304794     -1.90097795766622
