17
Coordinates from ORCA-job run
  C   0.74808049847420      0.03416975609520      0.08553989994275
  C   -0.59245558251232     -0.05084815204220      0.00766161101503
  N   1.44892390771369     -0.82242853635267      1.05553440601604
  O   2.42186715211947     -1.44798134045128      0.63092428740490
  O   1.04691855593682     -0.84664538567403      2.21872890871829
  C   1.70985365687516      0.83670808792082     -0.73329963609425
  H   2.42003167884484      1.35213932139141     -0.08119699883002
  H   2.28668999249723      0.18243220666784     -1.38941826275370
  H   1.19840337647264      1.58123190508884     -1.33886822753894
  C   -1.39350751921818      0.77992070880455     -0.95648531637464
  H   -2.21954234691426      1.26018637453854     -0.42277798294995
  H   -0.81913615658785      1.55482025197806     -1.46010760784191
  H   -1.84285739186851      0.13660156570645     -1.72023764007814
  C   -1.42923455931157     -0.96915125975902      0.85964580038064
  H   -0.89419241039683     -1.85260285564713      1.20407307892340
  H   -2.30547593240847     -1.29107745578318      0.29128037724714
  H   -1.78436691971606     -0.43847519248220      1.74800330281335
