17
Coordinates from ORCA-job run
  C   0.72413166518415      0.16738715934685      0.12183968730755
  C   -0.58523952036868     -0.10213524894920     -0.02789008429154
  N   1.11284559140255      1.26649663104787      1.02071777441989
  O   1.91331026912418      2.08739245351967      0.56947569890669
  O   0.64440137951065      1.28885717832135      2.15878488828396
  C   1.91593519645644     -0.43965015438435     -0.54848191237827
  H   2.37805665175650      0.28413753791963     -1.22210431594274
  H   1.64981162873454     -1.32819520533894     -1.11622858278689
  H   2.66615146330180     -0.71784971015470      0.19682143912920
  C   -1.68474837673150      0.65457337817237      0.67027113315357
  H   -1.97222722321274      0.13694879358203      1.59026843845041
  H   -2.56402152858234      0.69429011172616      0.02216428706262
  H   -1.40930993849205      1.67182876341054      0.94364541935310
  C   -1.08006027160120     -1.20449479165793     -0.92305658137667
  H   -0.29647073335260     -1.86523078386192     -1.28873420046330
  H   -1.81075358199248     -1.81188728630956     -0.38006294797084
  H   -1.60181267113724     -0.78046882638986     -1.78743014085671
