17
Coordinates from ORCA-job run
  C   0.72659651281368      0.07099744706454      0.18777779627884
  C   -0.58843235904216     -0.03514710516780     -0.07573918320304
  N   1.15358796267487      0.98931459775912      1.25570810367974
  O   2.06516039792666      1.76964640372043      0.97597123883206
  O   0.60312775980427      0.91114787380343      2.35393849680174
  C   1.89915791391182     -0.56012860023924     -0.49450745660240
  H   1.59001626201390     -1.34034977148625     -1.18610041362375
  H   2.57161710966262     -1.00273421421192      0.24540126319616
  H   2.46811381063449      0.19305859554551     -1.04243125271518
  C   -1.12091283706680     -0.94354180915026     -1.14931426264481
  H   -1.93247282703715     -1.55318605181679     -0.74004686156052
  H   -1.55166439601423     -0.34904003881758     -1.96181010299355
  H   -0.37626629575430     -1.61267717150502     -1.57574553996547
  C   -1.65827171106618      0.72854294240506      0.66009819091207
  H   -2.48341745040599      0.94429689666462     -0.02340595641642
  H   -2.05536257651834      0.12380592917151      1.48084653750846
  H   -1.30857727653717      1.66599407626067      1.08935940251606
