17
Coordinates from ORCA-job run
  C   0.71419049266106      0.08814510889101      0.22433359344901
  C   -0.57253370293455      0.00688377961076     -0.16019466931136
  N   1.08566783483125      1.11142254583556      1.21480964172777
  O   1.76840934291954      0.73018689585713      2.16707404860287
  O   0.72189537813550      2.27236686846047      1.02680008050462
  C   1.88437692463547     -0.76902464248296     -0.14361839311444
  H   2.73672115393246     -0.14306521781288     -0.42120430800489
  H   2.19121423957897     -1.37671733619099      0.70954415542909
  H   1.65491817295971     -1.42578626633041     -0.97946486539736
  C   -1.04711508721680     -1.00886777163297     -1.16247062100830
  H   -0.24537512878734     -1.54991192080077     -1.66101358912445
  H   -1.70078598988614     -1.73927343103970     -0.67429717166557
  H   -1.64864701685005     -0.50951703188778     -1.92839164468107
  C   -1.66515449727188      0.90428858199523      0.35917562906402
  H   -1.81058912796568      1.75077095803973     -0.31859801970869
  H   -1.46161948215760      1.31280980162954      1.34755346698701
  H   -2.60357350658392      0.34528907785906      0.39896266625173
