13
Coordinates from ORCA-job run
  C   0.62190826040277     -0.04214613005891     -0.52942583257960
  C   -0.61892137709815     -0.81539358409863     -0.13298952028876
  F   1.49121062915562     -0.83397969712498     -1.22525717987980
  H   -0.28854593299652     -1.74046778104590      0.34635827141912
  H   -1.13969070548954     -1.07621944194513     -1.05760247787693
  N   1.38435090464143      0.38019944752306      0.72929567792958
  O   2.06821985001759      1.39240496379937      0.64957188950324
  O   1.30421885608266     -0.38197329041266      1.68621284623332
  C   0.30623265320374      1.15769533686694     -1.30720837109854
  N   0.01539154892952      2.06284221583616     -1.99593569689512
  N   -1.42028564789562      0.05212225401593      0.70802155125531
  H   -2.39424578851269      0.04113965500522      0.44758850243700
  H   -1.33084325044081     -0.19622394836048      1.68237033984118
