13
Coordinates from ORCA-job run
  C   0.63271197832777     -0.08950798565691     -0.53079977107789
  C   -0.62006378691675     -0.80373496786598     -0.05554375693386
  F   1.41774082401286     -0.93806221983086     -1.25130965313997
  H   -1.14852019698051     -1.16553098554636     -0.94612592677966
  H   -0.27563870869547     -1.66849150946175      0.51410898637250
  N   1.44119753733000      0.31950079438713      0.70026466011690
  O   1.79337809978066     -0.61631089300586      1.40533666482244
  O   1.66657250472084      1.50871245218884      0.87366628009483
  C   0.32328319219561      1.10388048134820     -1.32215184962477
  N   -0.00068418647058      1.99714007030460     -2.01222469051269
  N   -1.36077640470206      0.10874560324749      0.79125489775047
  H   -1.80396352365538     -0.37239456379900      1.55921962155254
  H   -2.06523732894698      0.61605372369047      0.27430453735915
