13
Coordinates from ORCA-job run
  C   0.49788935144482      0.16000465596554     -0.34310916168788
  C   -0.59658531760349     -0.54430319409134      0.43529675880468
  F   0.59360196836810     -0.39011225463170     -1.59270437205667
  H   -0.32626384145360     -1.60314970628847      0.49178562530301
  H   -0.60248770198124     -0.14346923162365      1.45169740456026
  N   1.87341663264893     -0.06320156186804      0.29176753218436
  O   2.01339219187595     -1.10008501955001      0.93232857858566
  O   2.73386701823376      0.77499693731081      0.05231077022687
  C   0.26722395443943      1.60191464362111     -0.45215846953843
  N   0.06172125253046      2.75648224734908     -0.50182689360870
  N   -1.85455595609105     -0.25434427519926     -0.22851920003207
  H   -2.62320746573610     -0.27075648498762      0.42531247816381
  H   -2.03801208667597     -0.92397675600645     -0.96218105090491
