13
Coordinates from ORCA-job run
  C   0.51454812948406      0.02530378937799     -0.39737365640802
  C   -0.62582921413413     -0.34083971700012      0.53956134398160
  F   0.57505907002932     -0.86754156398559     -1.41547890407827
  H   -0.38789879120442     -1.33369871196529      0.94839831438323
  H   -0.62849403329537      0.37776984641186      1.36009973643442
  N   1.82335328042669     -0.07392117537981      0.39172470553758
  O   2.58477730380619     -0.98404373459346      0.10829216501684
  O   1.94544622579001      0.76314541899418      1.27734345628214
  C   0.41154928273037      1.38548484283973     -0.92835334007344
  N   0.33299790660450      2.47790222850068     -1.35118860397153
  N   -1.86042386888242     -0.25635046104096     -0.21060255908484
  H   -2.64395854299209     -0.05923317627716      0.39417638419357
  H   -2.04212674836271     -1.11197758588204     -0.71559904221329
