11
Coordinates from ORCA-job run
  C   -0.68144993746635      0.45243317061080     -0.04030711979358
  C   0.32613245513518     -0.41203914094059      0.07629654309781
  H   -0.61016322988734      1.48657971756729     -0.35225663136476
  H   0.09209414235219     -1.42196238093789      0.40319608415309
  N   -2.05761852869213      0.05919902624841      0.26089884005722
  O   -2.28381980333998     -1.09048408817150      0.62532280957108
  O   -2.90342242927187      0.94342055706357      0.11956850468559
  C   1.74828959279928     -0.06260603247986     -0.21769796650324
  H   2.14497854485753     -0.71006008360700     -1.00442714371783
  H   1.85590009644444      0.97522232710476     -0.53646193927617
  H   2.37007909706905     -0.21970307245800      0.66786801909079
