11
Coordinates from ORCA-job run
  C   -0.70315530061378      0.31644065746740     -0.27607599893219
  C   0.34395041152617     -0.30349237819770      0.26742554498449
  H   -0.67113842846160      1.12562741764530     -0.99444047118515
  H   0.14718978284284     -1.10247389650007      0.97770791914188
  N   -2.07291410572950     -0.06293425373115      0.06894614661524
  O   -2.25614544045178     -0.96844051524685      0.87655770509685
  O   -2.95831478678568      0.57853965231173     -0.49832323057015
  C   1.76159209632003      0.04370002891517     -0.05007568874102
  H   1.83016069503092      0.85838375605030     -0.77247822401259
  H   2.28474280623469     -0.82583640477578     -0.45719904187523
  H   2.29403227008769      0.33948593606165      0.85795533947788
