11
Coordinates from ORCA-job run
  C   -0.67325920991233      0.38393903720266      0.26483712254081
  C   0.31657754220299     -0.36348721359903     -0.22240167088884
  H   -0.57286451845437      1.33715064209338      0.76800492453775
  H   0.05315977211877     -1.30198150935044     -0.70344015790985
  N   -2.06869378262090     -0.04073186585303      0.15699043675684
  O   -2.89601681359548      0.73290347810514      0.64085558332085
  O   -2.32702179795462     -1.10750451783725     -0.39171789287511
  C   1.75696697962020      0.02311820667303     -0.13952258652483
  H   2.19237800496449      0.08877508463823     -1.14030204378932
  H   2.32436044319507     -0.73606521666296      0.40569018722033
  H   1.89341338043618      0.98288387459027      0.36100609761137
