11
Coordinates from ORCA-job run
  C   -0.76491209081460     -0.05776463222187      0.82185159906605
  C   0.53898921978856      0.21058636471412      0.68825361535502
  H   -1.30378221296041     -0.00743708803382      1.75861900382045
  H   1.04050532895951      0.44647184146591      1.62460700086608
  N   -1.64843286464800     -0.38508418094457     -0.28945420569263
  O   -1.15454026161159     -0.72868176362852     -1.36309094957692
  O   -2.85452690258074     -0.29509085636817     -0.05777815509961
  C   1.37523198218397      0.21295956314452     -0.55442185713228
  H   2.32168560798610      0.72120428874403     -0.36964656187733
  H   1.58808372227621     -0.81036524082299     -0.87339413772286
  H   0.86269847142100      0.69420170395135     -1.38654535200598
