11
Coordinates from ORCA-job run
  C   -0.77165601773584      0.41815685626957      0.69972086460071
  C   0.55925145876837      0.29226482483524      0.64250781937208
  H   -1.30171623012263      0.90784713049027      1.50579386214007
  H   1.07985245083967      0.70650034789496      1.50333806028517
  N   -1.68457382230847     -0.04397422664619     -0.33709923003945
  O   -2.84907555276409      0.34342274904039     -0.23454249889072
  O   -1.25549444466475     -0.77651694093979     -1.22804488534718
  C   1.39771178911544     -0.33420108680438     -0.42990280795318
  H   1.11672574592412      0.02672852540565     -1.41934703415033
  H   2.45264752015807     -0.12332240265810     -0.25559134414576
  H   1.25532710279011     -1.41690577688762     -0.44783280587141
