11
Coordinates from ORCA-job run
  C   -0.71017754122795      0.22826767977572     -0.33887530799604
  C   0.35113930264892     -0.21023790907729      0.33762898153999
  H   -0.69910875861187      0.76510388798940     -1.27884579043649
  H   0.17399753744135     -0.73461201218869      1.27319402643873
  N   -2.06863372932709      0.01420282774083      0.15925934987246
  O   -2.22892238609961     -0.58347826942429      1.21894831785737
  O   -2.96915840581400      0.46670709330565     -0.54901419792296
  C   1.75871076804112     -0.01895777398850     -0.12411264666729
  H   2.33151711645496      0.53908691753657      0.62156237598014
  H   1.80784491207551      0.51889903592432     -1.07203112565908
  H   2.25379118441866     -0.98598147759373     -0.24771398300683
