11
Coordinates from ORCA-job run
  C   -0.86620294552485     -0.61436724063326      0.36431600248764
  C   0.46858203393667     -0.69820784912288      0.32188093703034
  H   -1.50781867462392     -1.36068440948455      0.81344224410215
  H   0.86668155512823     -1.61113564539142      0.75982406752779
  N   -1.63322501617388      0.51471373424331     -0.14446124076455
  O   -1.06637687115589      1.35820923027099     -0.83841830416663
  O   -2.82477686200317      0.53401344601955      0.16646386815722
  C   1.45341062725486      0.27854039481365     -0.24489233504017
  H   1.26195272195639      1.29078894461928      0.11154031190944
  H   1.37560605199061      0.31788168212187     -1.33349226649199
  H   2.46916737921495     -0.01075228745653      0.02379671524876
