11
Coordinates from ORCA-job run
  C   -0.67903537959648      0.36897175942717      0.27085210191228
  C   0.32279969531128     -0.35552727191535     -0.22665186939360
  H   -0.59507456355034      1.31884583156264      0.78322652348386
  H   0.07519826806313     -1.29387959796691     -0.71628679663059
  N   -2.06685179411039     -0.08005228121624      0.16238735015083
  O   -2.90650409077771      0.67310486534516      0.65730873452085
  O   -2.30765581764469     -1.14526922954639     -0.39718319632569
  C   1.75616983275160      0.05652176303674     -0.14442771577552
  H   1.87709357858878      1.01265848295198      0.36688464305617
  H   2.33987511855088     -0.69859254110816      0.38903901940751
  H   2.18598515241394      0.14221821942936     -1.14614879440611
