11
Coordinates from ORCA-job run
  C   -0.70839734385030      0.40683047915763      0.06244197215318
  C   0.34976152663636     -0.39717110221201     -0.03829982093479
  H   -0.69392743467080      1.48842021068593      0.10486250526107
  H   0.17020323022649     -1.46875688754210     -0.07091920779562
  N   -2.06678846598538     -0.13159958364812      0.12752659034797
  O   -2.22947977187354     -1.34730470346092      0.09061054194301
  O   -2.96452838299242      0.70705843559459      0.21679863017375
  C   1.75691503204812      0.09878063198546     -0.10878806976532
  H   1.80829433208767      1.18781771173360     -0.06845703339708
  H   2.23313614419130     -0.23693564072521     -1.03399486188407
  H   2.34581113418250     -0.30713955156884      0.71821875389789
