11
Coordinates from ORCA-job run
  C   -0.68371687692668      0.45125184388986     -0.00891739967452
  C   0.32608029208446     -0.41775121662065      0.02536984189010
  H   -0.60668571011336      1.52452524586773     -0.12716117772241
  H   0.08444449764394     -1.47002878051501      0.15148470531426
  N   -2.07134765554870      0.00723612776450      0.12082892252799
  O   -2.91838505947711      0.90063014377486      0.08110818606958
  O   -2.30496294392776     -1.18964234219897      0.25720996788494
  C   1.75989675789328     -0.01880203090887     -0.10122181352867
  H   1.87389185012142      1.05903141004271     -0.22597884615811
  H   2.32068317968572     -0.32652436366892      0.78555997445502
  H   2.22010166856480     -0.51792603742724     -0.95828236105818
