11
Coordinates from ORCA-job run
  C   -0.65108672192208      0.49639031840154     -0.02027152424611
  C   0.30764136677501     -0.42195209820109      0.09628271838837
  H   -0.56103759269307      1.46614029596913     -0.49284184197718
  H   0.05891638715478     -1.35224338305335      0.60055210837502
  N   -1.99428147952534      0.26265500586281      0.50971722565787
  O   -2.23703073115174     -0.79950139282002      1.07408189666825
  O   -2.79690461179976      1.18141814126309      0.33994473553662
  C   1.69383277610243     -0.23522551868291     -0.42782975869202
  H   1.82027221841936      0.73525005041438     -0.90995989548714
  H   1.93544969989882     -1.01691745096062     -1.15315612421474
  H   2.42222868874159     -0.31701396819297      0.38348045999105
