11
Coordinates from ORCA-job run
  C   -0.68610408735314      0.42088527779777      0.15166160617112
  C   0.32797173990827     -0.39672500483764     -0.13001055203337
  H   -0.61276469552481      1.45791873473520      0.45337398914834
  H   0.09045755744184     -1.41695090805335     -0.42035654365657
  N   -2.07324157046470     -0.03616594631679      0.07395168042415
  O   -2.92488933835030      0.80679383740818      0.35921438138576
  O   -2.30224662009473     -1.19468132074208     -0.25953813890572
  C   1.76147334530510      0.01819855980230     -0.06649810822643
  H   2.30769647536583     -0.60608525601372      0.64585871653703
  H   2.24044869353101     -0.11584688551646     -1.04020527447283
  H   1.87119850023563      1.06165891173660      0.23254824362853
