13

C	0.0	0.0	0.0
C	-0.464787	-0.078479	-1.485687
Cl	1.778247	0.0	0.0
H	0.434682	-0.125533	-2.108621
H	-0.34597	0.947278	0.39973
C	-0.455068	-1.09797	0.849778
N	-0.591598	-2.039962	1.538974
N	-1.185389	1.142316	-1.809423
H	-2.023484	1.009756	-1.208471
H	-1.458945	1.095412	-2.78574
C	-1.207474	-1.322226	-1.785537
N	-1.682645	-2.292386	-2.250653
F	-2.487628	0.0	0.0
