13

C	0.0	0.0	0.0
C	-0.610881	0.229064	-1.388545
Cl	1.773229	0.0	0.0
H	-1.664045	0.492657	-1.061968
H	-0.333272	0.809167	0.648391
C	-0.458731	-1.263084	0.579194
N	-0.660704	-2.293923	1.103647
N	-0.619379	-1.03045	-2.147708
H	-0.656492	-0.826686	-3.13918
H	-1.506144	-1.458923	-1.896189
C	0.057536	1.30016	-2.105442
N	0.533571	2.186096	-2.715785
F	-2.682739	0.0	0.0
