13

C	0.0	0.0	0.0
C	-0.614882	0.20787	-1.389326
Cl	1.772964	0.0	0.0
H	-1.674573	0.455364	-1.061881
H	-0.335976	0.816091	0.638225
C	-0.453871	-1.256436	0.598353
N	-0.67611	-2.272535	1.143059
N	-0.589398	-1.056444	-2.142265
H	-0.685426	-0.852299	-3.130677
H	-1.445799	-1.52558	-1.856066
C	0.034917	1.287561	-2.109201
N	0.490137	2.181416	-2.723808
F	-2.692533	0.0	0.0
