13

C	0.0	0.0	0.0
C	-0.443752	-0.057721	-1.471281
Cl	1.785944	0.0	0.0
H	-0.084975	-1.022208	-1.86613
H	-0.343499	0.926375	0.448205
C	-0.42886	-1.159497	0.778745
N	-0.587683	-2.133533	1.415625
N	0.142753	1.086056	-2.186464
H	1.068848	0.845078	-2.517406
H	-0.452139	1.243504	-2.991427
C	-1.920892	-0.001497	-1.705745
N	-2.666924	0.067723	-2.632099
F	-2.452688	0.0	0.0
