13

C	0.0	0.0	0.0
C	-0.555407	0.236025	-1.421057
Cl	1.780838	0.0	0.0
H	-1.643729	0.384584	-1.126177
H	-0.349193	0.799193	0.65024
C	-0.458742	-1.285386	0.525717
N	-0.628743	-2.370667	0.942121
N	-0.461968	-0.896893	-2.322093
H	-1.167978	-1.561324	-2.026955
H	0.447861	-1.341195	-2.253522
C	0.036764	1.431128	-2.00975
N	0.47726	2.413041	-2.483421
F	-2.612021	0.0	0.0
