13

C	0.0	0.0	0.0
C	-0.443776	0.1499	-1.511029
Cl	1.783838	0.0	0.0
H	0.47876	0.257749	-2.093339
H	-0.351215	0.869843	0.545547
C	-0.448584	-1.205329	0.689675
N	-0.628983	-2.188283	1.307397
N	-1.30063	1.278396	-1.80624
H	-2.073039	1.098988	-1.132382
H	-0.803527	2.125266	-1.548558
C	-1.065944	-1.08761	-2.000098
N	-1.447923	-2.084072	-2.489449
F	-2.464018	0.0	0.0
