13

C	0.0	0.0	0.0
C	-0.526517	0.183422	-1.439949
Cl	1.780731	0.0	0.0
H	-1.629979	0.263189	-1.17974
H	-0.355259	0.823134	0.614928
C	-0.471384	-1.26471	0.562024
N	-0.648184	-2.335773	1.013416
N	-0.282962	-0.92939	-2.337515
H	-0.893342	-1.688235	-2.05727
H	0.678828	-1.246862	-2.261476
C	-0.010272	1.426135	-2.00313
N	0.382938	2.437976	-2.454176
F	-2.589911	0.0	0.0
