13

C	0.0	0.0	0.0
C	-0.443462	0.158035	-1.510469
Cl	1.784208	0.0	0.0
H	0.479884	0.26762	-2.091709
H	-0.347185	0.869199	0.548433
C	-0.453412	-1.207063	0.680879
N	-0.621955	-2.208882	1.270905
N	-1.299871	1.286122	-1.802791
H	-2.067444	1.117635	-1.121897
H	-0.795094	2.134052	-1.562767
C	-1.056886	-1.080456	-2.007855
N	-1.416869	-2.082943	-2.500709
F	-2.455086	0.0	0.0
