15

C	-0.519245	-0.035146	-1.433141
C	0.0	0.0	0.0
F	-0.39549	1.240136	-1.998315
H	1.104229	0.0	0.0
H	-1.59315	-0.267842	-1.436194
C	0.26648	-1.017916	-2.266954
H	-0.071884	-0.987577	-3.306406
H	1.3269	-0.766437	-2.2032
H	0.124386	-2.022624	-1.867649
N	-0.365458	-1.259461	0.668331
H	0.451673	-1.553582	1.195624
H	-1.130015	-1.120623	1.316882
C	-0.498589	1.172556	0.714245
N	-0.929639	2.074475	1.334305
H	2.795135	0.0	0.0
