15

C	-0.542864	0.023055	-1.42454
C	0.0	0.0	0.0
F	-0.420328	1.316417	-1.946365
H	1.103388	0.0	0.0
H	-1.61681	-0.202968	-1.414466
C	0.218058	-0.932886	-2.306756
H	-0.171057	-0.899112	-3.328832
H	0.118154	-1.943101	-1.916352
H	1.271013	-0.658645	-2.290948
N	-0.356748	-1.292727	0.614849
H	0.505755	-1.671627	1.00335
H	-1.016805	-1.168313	1.373207
C	-0.492696	1.139658	0.764504
N	-0.907221	2.033834	1.406385
H	2.77974	0.0	0.0
