15

C	-0.382935	-0.028519	-1.465219
C	0.0	0.0	0.0
F	-1.773146	0.006038	-1.643501
H	1.103028	0.0	0.0
H	-0.046803	-0.994696	-1.85844
C	0.253257	1.107941	-2.228826
H	1.33027	1.086816	-2.047127
H	0.047916	1.013097	-3.298057
H	-0.14951	2.061257	-1.881667
N	-0.471054	-1.227035	0.684403
H	0.303896	-1.880887	0.577934
H	-0.499739	-1.03047	1.681291
C	-0.50286	1.196732	0.652255
N	-0.895292	2.167512	1.186808
H	2.784935	0.0	0.0
