15

C	-0.515866	-0.047174	-1.433316
C	0.0	0.0	0.0
F	0.005022	-1.182673	-2.049362
H	1.097464	0.0	0.0
H	-0.116279	0.817451	-1.975768
C	-2.023255	-0.125654	-1.540423
H	-2.491495	0.774867	-1.134286
H	-2.363153	-0.997174	-0.978701
H	-2.322062	-0.238615	-2.585357
N	-0.415936	-1.188611	0.758174
H	-1.027282	-0.94062	1.524727
H	0.435719	-1.585658	1.144257
C	-0.447203	1.241022	0.624556
N	-0.820013	2.231493	1.139407
H	2.76431	0.0	0.0
