16
Coordinates from ORCA-job run
  C   0.86566183859717     -0.38933363837206     -0.01353698639019
  C   -0.51050666765956      0.28997843768591      0.15489681014754
  Cl  0.68845210392698     -2.11012054632129     -0.45492232628941
  H   -0.26709138693272      1.36304847714836      0.25945891318030
  C   1.56633020814738     -0.34725362832000      1.28496595703757
  N   2.12127523438223     -0.20995394569625      2.31242065230883
  N   1.60103678298856      0.26325870946375     -1.07538067583173
  H   2.48644138516539     -0.20708726107947     -1.22590525753143
  H   1.79181939344053      1.22455893406925     -0.81085618164935
  N   -1.17254255593412     -0.25857265966923      1.32424965795407
  H   -2.16799092489086     -0.08621000080118      1.27509159779573
  H   -0.82158973692734      0.15564767688633      2.17902570282229
  C   -1.37996869277342      0.11065061152043     -1.07783551592473
  H   -0.81070354189813      0.30709936653525     -1.98530111651215
  H   -1.76673566362255     -0.90877825896001     -1.11173957969856
  H   -2.22488777600954      0.80306772591021     -1.03363165141877
