16
Coordinates from ORCA-job run
  C   0.89974730943975     -0.28231851704397     -0.09377633637554
  C   -0.50062760458398      0.20627740128184      0.31641112453552
  Cl  0.78865820022537     -1.91815514497528     -0.83180125771122
  H   -0.32328978866787      1.18715959816821      0.77943866974161
  C   1.73893874927129     -0.41993934535229      1.11196204356339
  N   2.48320108283776     -0.42555306442298      2.02160786108093
  N   1.47211932974148      0.59949838169262     -1.08540221657833
  H   1.59550894611504      1.52032337135186     -0.67485827504680
  H   2.38416477276663      0.25751654466964     -1.36793273276305
  N   -0.99260821960302     -0.66983994780339      1.36698566783663
  H   -1.38393973646521     -1.51201614704055      0.96122360676056
  H   -1.72310425537150     -0.20947845549379      1.89417785858863
  C   -1.42839464565372      0.38669873370198     -0.88034829120330
  H   -1.64694804787805     -0.57889190675866     -1.34115199847050
  H   -2.37062850421764      0.82161148282733     -0.53729702456687
  H   -0.99179758795632      1.03610701519743     -1.63923869939165
