16
Coordinates from ORCA-job run
  C   0.89195246138190     -0.29402213556815     -0.13077102613393
  C   -0.52744849600244      0.18895708216047      0.23552178424729
  Cl  0.83865126227361     -1.82387399289048     -1.05033184411660
  H   -0.36678644529407      1.20279263236696      0.64523901012566
  C   1.62686433103114     -0.56963016893997      1.11977995903899
  N   2.21321492545696     -0.68511546859778      2.13240940716288
  N   1.54162371297942      0.69606649995211     -0.96218584452601
  H   2.45690407140148      0.36545711433143     -1.24649900377027
  H   1.66301571317289      1.55306245806294     -0.43182130183772
  N   -1.10749873080012     -0.72699641914581      1.20068434198173
  H   -2.11496218552779     -0.63826764919263      1.20596611416014
  H   -0.76845611901057     -0.54445218326263      2.13713503258342
  C   -1.41751775179034      0.29957949011523     -0.99042705891214
  H   -0.89507706054373      0.79865555528045     -1.80531161117922
  H   -2.31398170679636      0.87357353672100     -0.74115993567199
  H   -1.72149798193197     -0.69578635139315     -1.31722802315222
