16
Coordinates from ORCA-job run
  C   0.95956335491382     -0.11023858131969      0.30680802723519
  C   -0.56475909011699      0.09876003463905      0.42702369867530
  Cl  1.48362110992304     -0.99289440988910      1.87265860241419
  H   -0.73772913706866      0.59039411674042      1.39312941162985
  C   1.67802258387661      1.16449616148801      0.35190266535471
  N   2.22610143478206      2.20319207976431      0.37572541608082
  N   1.26058597757910     -0.82208335886227     -0.86403458711938
  H   0.65575567602231     -1.63435312557443     -0.92146521356737
  H   2.23797567942235     -1.06594741479894     -0.94565980205281
  N   -1.18173309314356     -1.21994815976534      0.33244134876702
  H   -2.15232499059148     -1.12943036354448      0.06118530483191
  H   -1.14460116730110     -1.69457768274994      1.22601168355598
  C   -1.07816665654549      0.98726278301679     -0.69655322569997
  H   -0.56800391638200      1.95130865154749     -0.70778495492236
  H   -2.14566612171818      1.17622129120900     -0.55313392122825
  H   -0.92864164365183      0.49983797809912     -1.66025445395483
