18

C	-0.498092	-0.001565	-1.440761
C	0.0	0.0	0.0
Br	-2.411078	0.196385	-1.592662
H	1.098209	0.0	0.0
N	0.109129	1.116235	-2.287802
O	0.701985	2.00674	-1.696844
O	-0.072561	1.030392	-3.495586
N	-0.039027	-1.285339	-2.12871
O	-0.826969	-2.218757	-2.213002
O	1.13899	-1.275457	-2.46565
C	-0.447528	-1.261416	0.725541
H	-1.536871	-1.324985	0.792957
H	-0.060985	-2.163866	0.252169
H	-0.025007	-1.226866	1.733109
N	-0.515706	1.190078	0.678618
H	0.185779	1.91607	0.594146
H	-0.608344	0.97464	1.663523
Br	3.520317	0.0	0.0
