18

C	-0.472614	0.016747	-1.450904
C	0.0	0.0	0.0
Br	-2.381931	0.221003	-1.629035
H	1.095163	0.0	0.0
N	0.162247	1.146316	-2.262002
O	-0.069684	1.127664	-3.465209
O	0.838065	1.963147	-1.655774
N	-0.01178	-1.257225	-2.154496
O	-0.791148	-2.198898	-2.222708
O	1.157009	-1.237232	-2.518162
C	-0.453408	-1.26508	0.714825
H	-0.055318	-1.226158	1.731376
H	-1.544215	-1.338455	0.755467
H	-0.055431	-2.165955	0.247691
N	-0.493634	1.210067	0.65105
H	-0.944055	0.971834	1.524793
H	0.299078	1.808274	0.845983
Br	3.514686	0.0	0.0
