18

C	-0.443538	0.011977	-1.465157
C	0.0	0.0	0.0
Br	0.20247	-1.50666	-2.441808
H	1.098114	0.0	0.0
N	-1.965148	0.090486	-1.551208
O	-2.454664	1.204508	-1.685692
O	-2.57677	-0.957808	-1.386252
N	0.048915	1.252597	-2.219066
O	0.723807	2.061401	-1.596563
O	-0.284635	1.330581	-3.393586
C	-0.465232	-1.242487	0.74699
H	-1.547995	-1.231535	0.901383
H	-0.186008	-2.16234	0.237447
H	0.037706	-1.237933	1.71828
N	-0.561496	1.187084	0.649332
H	-0.716269	0.974876	1.626969
H	0.123649	1.928979	0.598803
Br	3.520827	0.0	0.0
