18

C	-0.444386	0.002647	-1.461224
C	0.0	0.0	0.0
Br	0.408293	1.421183	-2.436119
H	1.097107	0.0	0.0
N	-0.128582	-1.275437	-2.227924
O	0.716177	-2.020231	-1.754042
O	-0.728359	-1.424145	-3.287013
N	-1.964322	0.126884	-1.547289
O	-2.552239	-0.890582	-1.187434
O	-2.476561	1.174458	-1.899064
C	-0.499645	-1.172137	0.832797
H	-0.298825	-2.13154	0.363342
H	0.056233	-1.146905	1.774281
H	-1.567749	-1.084084	1.040988
N	-0.529891	1.248313	0.574906
H	-0.549194	1.130995	1.581473
H	0.140452	1.987759	0.39112
Br	3.532293	0.0	0.0
