18

C	-0.390243	-0.004476	-1.479741
C	0.0	0.0	0.0
Br	0.417017	1.479041	-2.384907
H	1.099712	0.0	0.0
N	0.072711	-1.315969	-2.121316
O	1.230692	-1.389379	-2.493922
O	-0.76355	-2.217764	-2.117767
N	-1.893607	0.027991	-1.76769
O	-2.653761	-0.167633	-0.82842
O	-2.222899	0.197063	-2.935702
C	-0.423988	-1.236175	0.781443
H	-0.053037	-2.150654	0.318113
H	0.051147	-1.167098	1.763598
H	-1.505135	-1.305717	0.898058
N	-0.507971	1.245323	0.579391
H	0.271427	1.89133	0.654737
H	-0.839505	1.058056	1.518113
Br	3.496914	0.0	0.0
