18

C	-0.340387	0.005821	-1.472518
C	0.0	0.0	0.0
Br	0.556218	-1.389015	-2.458691
H	1.094188	0.0	0.0
N	-1.837125	-0.07457	-1.798976
O	-2.588831	0.2176	-0.872807
O	-2.180551	-0.399426	-2.927443
N	0.092287	1.362755	-2.059137
O	-0.787812	2.09776	-2.485707
O	1.284646	1.595194	-2.009041
C	-0.494813	-1.238847	0.731424
H	-0.149661	-2.164215	0.2636
H	-0.09305	-1.215827	1.749417
H	-1.58672	-1.260341	0.79784
N	-0.419556	1.273647	0.550955
H	-1.375842	1.236841	0.881296
H	0.194862	1.538122	1.312812
Br	2.755424	0.0	0.0
