18

C	-0.41154	0.011423	-1.484887
C	0.0	0.0	0.0
Br	-2.30148	0.351989	-1.762128
H	1.094498	0.0	0.0
N	0.310554	1.07064	-2.319887
O	0.792403	2.020571	-1.719377
O	0.298113	0.898236	-3.531897
N	-0.026655	-1.317579	-2.124745
O	-0.893804	-2.163789	-2.294795
O	1.17481	-1.433835	-2.326528
C	-0.476498	-1.28244	0.668413
H	-0.179269	-1.212143	1.714739
H	-1.563948	-1.396966	0.614674
H	-0.003676	-2.167384	0.241037
N	-0.438503	1.149016	0.759685
H	0.058772	1.970922	0.445917
H	-1.435284	1.298863	0.658385
Br	3.523959	0.0	0.0
