18

C	-0.358682	0.000155	-1.489711
C	0.0	0.0	0.0
Br	-2.24344	0.128663	-1.875177
H	1.091795	0.0	0.0
N	0.337013	1.153218	-2.247229
O	0.052873	1.294673	-3.433803
O	1.173643	1.800116	-1.630115
N	0.231588	-1.256494	-2.152346
O	-0.502236	-2.185485	-2.46295
O	1.455794	-1.244822	-2.217395
C	-0.530361	-1.254914	0.665866
H	-0.262469	-2.173559	0.139229
H	-1.622783	-1.218785	0.750394
H	-0.115423	-1.305277	1.6747
N	-0.448102	1.157652	0.7194
H	-1.453859	1.278444	0.685235
H	0.025403	1.9964	0.415472
Br	2.749163	0.0	0.0
