13

C	0.0	0.0	0.0
C	-0.264969	0.032127	-1.529335
Br	1.939373	0.0	0.0
H	0.454251	0.747839	-1.93162
H	0.042343	-0.955722	-1.890579
N	-0.388468	1.296132	0.694002
O	-0.485892	1.254139	1.910747
O	-0.441829	2.286832	-0.020283
C	-0.453198	-1.169758	0.733187
N	-0.542005	-2.207638	1.282008
C	-1.526267	0.382471	-2.1913
N	-2.148426	0.6954	-3.144091
Br	-3.157743	0.0	0.0
