14

C	-0.448937	-0.044624	-1.435111
C	0.0	0.0	0.0
Cl	-2.260377	0.009243	-1.596494
H	1.093714	0.0	0.0
H	-0.077685	0.83213	-1.962312
C	0.02709	-1.260614	-2.08259
N	0.41729	-2.226472	-2.623503
N	-0.463859	-1.09821	0.769883
H	0.209681	-1.283409	1.501381
H	-1.364384	-0.914617	1.192206
N	-0.388835	1.339051	0.555328
O	-0.779534	1.390325	1.723488
O	-0.243926	2.325858	-0.167599
F	2.500579	0.0	0.0
