14

C	-0.562514	0.112404	-1.423492
C	0.0	0.0	0.0
Cl	-0.391777	-1.459085	-2.268222
H	1.097578	0.0	0.0
H	-1.633522	0.330753	-1.404467
C	0.109256	1.117871	-2.245053
N	0.59818	1.915527	-2.953731
N	-0.457291	-1.20225	0.668056
H	0.375548	-1.758175	0.829433
H	-0.811573	-0.9386	1.578597
N	-0.445571	1.194127	0.747549
O	-0.518963	1.12428	1.977605
O	-0.69415	2.221908	0.107654
F	2.503394	0.0	0.0
