14

C	-0.557516	0.162183	-1.407631
C	0.0	0.0	0.0
Cl	0.208028	1.422611	-2.417141
H	1.098901	0.0	0.0
H	-0.323748	-0.784596	-1.89334
C	-2.013053	0.328032	-1.420978
N	-3.183106	0.431181	-1.443972
N	-0.372249	-1.303641	0.493888
H	0.438233	-1.663438	0.979659
H	-1.134126	-1.243137	1.155889
N	-0.459711	1.095325	0.891439
O	-0.56082	0.852385	2.098277
O	-0.675077	2.198967	0.38476
F	2.510617	0.0	0.0
