18

C	0.0	0.0	0.0
C	-0.471547	0.042991	-1.499904
Br	1.945704	0.0	0.0
H	0.322838	0.562693	-2.040645
N	-0.323824	1.363282	0.613641
O	-0.0243	2.351503	-0.051491
O	-0.834416	1.390412	1.727275
C	-0.587919	-1.098761	0.839792
H	-0.262026	-1.015917	1.875282
H	-1.680546	-1.012897	0.80601
H	-0.267432	-2.054928	0.42827
N	-1.697811	0.734134	-1.784098
H	-1.592776	1.727395	-1.624691
H	-2.49753	0.410218	-1.228782
N	-0.499746	-1.343771	-1.956447
H	-0.638239	-1.2912	-2.960873
H	-1.361981	-1.747306	-1.596818
Cl	-4.239008	0.0	0.0
