18

C	0.0	0.0	0.0
C	-0.544503	-0.028865	-1.443772
Br	1.948303	0.0	0.0
H	-1.631691	0.047909	-1.3011
N	-0.363051	1.311985	0.715657
O	-0.897388	2.208235	0.071334
O	-0.080971	1.378318	1.907351
C	-0.533683	-1.130932	0.844657
H	-1.627125	-1.038462	0.834329
H	-0.247535	-2.074191	0.386533
H	-0.155932	-1.058659	1.863538
N	-0.246054	-1.349709	-1.98294
H	-0.898057	-1.500379	-2.744571
H	0.681718	-1.318957	-2.39533
N	-0.116718	1.02772	-2.346723
H	0.888217	1.149882	-2.27208
H	-0.5522	1.892838	-2.057031
Cl	-3.823682	0.0	0.0
