14

C	-0.482832	-0.075501	-1.458636
C	0.0	0.0	0.0
Cl	-0.035754	1.424377	-2.339219
H	1.094487	0.0	0.0
C	0.131769	-1.226241	-2.133117
N	0.563181	-2.157105	-2.705465
C	-1.941065	-0.224404	-1.511404
N	-3.112187	-0.331514	-1.509366
N	-0.348025	-1.250755	0.649269
H	-1.111729	-1.156296	1.304742
H	0.487217	-1.582753	1.127053
C	-0.518863	1.184391	0.660379
N	-0.892293	2.120076	1.270065
H	2.559403	0.0	0.0
