14

C	-0.482992	-0.015304	-1.465786
C	0.0	0.0	0.0
Cl	0.29455	-1.378447	-2.335181
H	1.094472	0.0	0.0
C	-1.933937	-0.214989	-1.524116
N	-3.098332	-0.379122	-1.528449
C	-0.139244	1.231962	-2.156936
N	0.089015	2.221223	-2.747168
N	-0.384008	-1.22639	0.665063
H	0.432831	-1.557017	1.173666
H	-1.160773	-1.096166	1.300353
C	-0.488588	1.206937	0.650292
N	-0.894485	2.161455	1.208499
H	2.57679	0.0	0.0
