14

C	-0.438671	-0.017092	-1.457645
C	0.0	0.0	0.0
Cl	-2.255726	-0.10985	-1.618934
H	1.097387	0.0	0.0
C	-0.005337	1.19381	-2.16125
N	0.320404	2.169394	-2.730166
C	0.105595	-1.203	-2.125741
N	0.514718	-2.142483	-2.700913
N	-0.339833	-1.253765	0.640566
H	-1.119561	-1.164044	1.277382
H	0.489265	-1.559747	1.145646
C	-0.483538	1.191069	0.672895
N	-0.83356	2.150404	1.258985
H	2.537181	0.0	0.0
