14

C	-0.494455	0.013899	-1.462689
C	0.0	0.0	0.0
Cl	0.267463	-1.337873	-2.360653
H	1.097951	0.0	0.0
C	-1.94857	-0.170664	-1.515837
N	-3.117526	-0.292688	-1.538654
C	-0.145159	1.270174	-2.133908
N	0.104047	2.267141	-2.702014
N	-0.379142	-1.240808	0.641504
H	0.458996	-1.612266	1.084097
H	-1.103074	-1.116052	1.333092
C	-0.485291	1.191354	0.678121
N	-0.892217	2.136887	1.250496
H	2.567043	0.0	0.0
