13
Coordinates from ORCA-job run
  C   -0.65372157850757      0.93177822953064     -0.08968745343884
  C   0.03999665662628     -0.34424174256896      0.33641281708586
  H   -0.70884553039506      0.96397578384926     -1.17870589442583
  H   0.22361632880056     -0.42803769419237      1.40550131827129
  H   -1.67157000143980      0.92865352283410      0.31298551094745
  C   0.06613042209359      2.09582617542314      0.41840406958344
  N   0.64398276244218      3.01957129533324      0.85321600259561
  N   1.36961130384396     -0.52639782031051     -0.35275533243090
  O   2.06064183213700     -1.43095286698655      0.10361993133443
  O   1.63052855102295      0.20406709863932     -1.30084716728790
  N   -0.79399507249505     -1.52539033620517     -0.06875808882669
  O   -1.01084569986859     -1.63568220772687     -1.27144115769475
  O   -1.19552997426044     -2.25316943761928      0.83205544428685
