13
Coordinates from ORCA-job run
  C   -0.49594863379630      1.04552153136282     -0.38167506301092
  C   -0.06913927552408     -0.40290603846440     -0.52686096487560
  H   -1.57806434153354      1.11418697477634     -0.51443730686204
  H   -0.19998715421982     -0.77415322652296     -1.54269717012104
  H   -0.01508487037013      1.61499115185986     -1.18186202698588
  C   -0.12047925051944      1.62003564320706      0.90866827773800
  N   0.21247825474881      2.11009649727184      1.92122868189427
  N   -0.81789466661164     -1.34016999689315      0.37235899846207
  O   -1.54426125819967     -0.85476010191212      1.23284739629645
  O   -0.62750141864001     -2.52929688118257      0.14344505917319
  N   1.40042563003090     -0.52676707898218     -0.21286036658769
  O   1.72250338131979     -0.99858234562065      0.86786906909839
  O   2.13295360331513     -0.07719612889990     -1.08602458421921
