13
Coordinates from ORCA-job run
  C   0.16429864106506      1.07537398778176      0.32780630980168
  C   0.03803825957696     -0.23496047923800     -0.42152693187306
  H   0.95559110818536      1.66911843645750     -0.14078684232485
  H   -0.32847021014735     -0.13894314880691     -1.44162205241135
  H   0.44253603554789      0.87241244668245      1.36336391432521
  C   -1.09196631211966      1.81714404315438      0.27672577499596
  N   -2.10087655580549      2.41149070989882      0.20537703328491
  N   -0.86693130209269     -1.21181891581303      0.28235414699376
  O   -1.24007829859701     -0.93847290589771      1.41662951934052
  O   -1.12660533238725     -2.22051660413513     -0.36473522967931
  N   1.38801187750275     -0.88929540304778     -0.48930988597490
  O   1.82997213214001     -1.31705351017210      0.57155684444121
  O   1.93747995713141     -0.89447865686426     -1.58483260091978
