13
Coordinates from ORCA-job run
  C   -0.64517564224017      0.82923334371482      0.43205623931675
  C   -0.01516671966401     -0.26523578152696     -0.40442046325492
  H   -0.44658084727696      0.63444139025726      1.48737799362488
  H   -0.07686527752990     -0.10599183420404     -1.47910310639278
  H   -1.72729412447651      0.81362756431981      0.26761531994829
  C   -0.11564959919629      2.13468850425044      0.04964527874072
  N   0.30091028794390      3.17797041789812     -0.28851511583347
  N   -0.70323272802493     -1.56520960135825     -0.10216776832861
  O   -1.43600126271690     -2.01118479329611     -0.97766536164414
  O   -0.49959212520863     -2.03219484124213      1.01306384487270
  N   1.43941406439223     -0.47348126005709     -0.07302614962798
  O   2.02862950895952     -1.23617994503108     -0.83112767727009
  O   1.89560446503864      0.10051683627521      0.90826696584865
