17

C	0.0	0.0	0.0
C	-0.434711	-0.523705	-1.37292
Cl	1.851951	0.0	0.0
H	0.223357	-0.051241	-2.11496
H	-0.269618	-0.705613	0.787285
N	-0.521215	1.270075	0.312821
H	-0.180669	1.993127	-0.30676
H	-0.360851	1.529898	1.275618
C	-1.883051	-0.150479	-1.689048
H	-1.979429	0.911591	-1.917413
H	-2.226623	-0.715353	-2.560532
H	-2.584662	-0.345327	-0.876856
C	-0.228403	-2.036248	-1.438152
H	0.786817	-2.32764	-1.15711
H	-0.937798	-2.534471	-0.768872
H	-0.420296	-2.400313	-2.452275
Cl	-5.155319	0.0	0.0
