17

C	0.0	0.0	0.0
C	-0.483507	0.062086	-1.445729
Cl	1.854613	0.0	0.0
H	0.176262	-0.594134	-2.024145
H	-0.23377	-0.976514	0.424273
N	-0.55738	1.001191	0.813102
H	-0.288019	1.933319	0.534731
H	-0.378196	0.860955	1.795958
C	-0.384332	1.472374	-2.019155
H	-0.595095	1.451286	-3.091132
H	0.612723	1.902091	-1.881745
H	-1.130262	2.124699	-1.558185
C	-1.911776	-0.475019	-1.525576
H	-2.276488	-0.41794	-2.555165
H	-1.953231	-1.524768	-1.221383
H	-2.618179	0.06707	-0.894043
Cl	-5.253077	0.0	0.0
