17

C	0.0	0.0	0.0
C	-0.474099	0.022343	-1.462361
Cl	1.798659	0.0	0.0
H	-1.566057	0.000786	-1.372768
H	-0.295033	-0.955605	0.438641
N	-0.502488	1.038158	0.857037
H	-0.321584	1.940935	0.432086
H	-1.517515	0.899171	0.868432
C	-0.034665	-1.222806	-2.225702
H	-0.553743	-1.276279	-3.18747
H	-0.283717	-2.129377	-1.665883
H	1.042291	-1.222573	-2.41641
C	-0.080765	1.291483	-2.209969
H	-0.501926	1.267767	-3.219176
H	1.004963	1.391589	-2.296334
H	-0.476455	2.186064	-1.722876
Cl	-3.677529	0.0	0.0
