17

C	0.0	0.0	0.0
C	-0.406118	0.332939	-1.459072
Cl	1.805559	0.0	0.0
H	0.393669	-0.046139	-2.103599
H	-0.267138	-1.038639	0.205478
N	-0.538898	0.793922	1.061518
H	-0.484319	1.778623	0.834587
H	-1.521299	0.550744	1.175229
C	-0.514214	1.837067	-1.682279
H	0.382522	2.366307	-1.34156
H	-1.391214	2.241171	-1.170908
H	-0.63797	2.045891	-2.748547
C	-1.69234	-0.385401	-1.845606
H	-2.549854	-0.108861	-1.228241
H	-1.564156	-1.470417	-1.764279
H	-1.943278	-0.158537	-2.887553
Cl	-4.611784	0.0	0.0
