17

C	-0.415237	-0.082787	-1.487369
C	0.0	0.0	0.0
Br	0.224646	1.572949	-2.360076
H	1.097767	0.0	0.0
C	0.31819	-1.251543	-2.126198
H	1.385672	-1.165547	-1.904852
H	-0.056341	-2.189159	-1.702766
H	0.152711	-1.262093	-3.2063
C	-1.919528	-0.139716	-1.689485
H	-2.159398	-0.16478	-2.756096
H	-2.408738	0.727447	-1.241125
H	-2.310545	-1.0478	-1.218657
C	-0.43435	-1.202194	0.694267
N	-0.752206	-2.199374	1.233451
C	-0.514218	1.17296	0.684546
N	-0.89782	2.1279	1.255872
H	2.547398	0.0	0.0
