17

C	-0.4904	0.037175	-1.45961
C	0.0	0.0	0.0
Br	0.211968	-1.583669	-2.351228
H	1.10548	0.0	0.0
C	-2.005616	-0.020538	-1.573871
H	-2.435573	0.856854	-1.078686
H	-2.399162	-0.919653	-1.094909
H	-2.313111	-0.019875	-2.623415
C	0.113997	1.247299	-2.154529
H	-0.303248	2.161604	-1.720578
H	-0.118288	1.22762	-3.222213
H	1.196903	1.245638	-2.0049
C	-0.460558	-1.169007	0.731534
N	-0.777344	-2.122089	1.344072
C	-0.420092	1.205375	0.696005
N	-0.711271	2.206743	1.243331
H	2.520696	0.0	0.0
