17

C	-0.276156	-0.000438	-1.505087
C	0.0	0.0	0.0
Br	-2.247942	9.3e-05	-1.888236
H	1.100026	0.0	0.0
C	0.328586	1.252321	-2.109018
H	0.235268	1.235821	-3.197354
H	1.388295	1.259278	-1.820412
H	-0.152625	2.154369	-1.726688
C	0.328238	-1.25358	-2.108737
H	0.234922	-1.237386	-3.197132
H	1.388043	-1.26081	-1.820197
H	-0.153322	-2.155281	-1.726193
C	-0.463813	-1.196787	0.677517
N	-0.792126	-2.190792	1.214216
C	-0.463313	1.197199	0.677255
N	-0.78831	2.188611	1.220823
H	2.546846	0.0	0.0
