17

C	-0.273778	-0.114221	-1.500668
C	0.0	0.0	0.0
Br	-2.244744	-0.141975	-1.889243
H	1.108169	0.0	0.0
C	0.331452	1.088668	-2.19807
H	1.391539	1.117326	-1.910631
H	-0.149436	2.017029	-1.884621
H	0.237936	0.990498	-3.28253
C	0.330068	-1.410396	-2.006109
H	-0.152774	-2.279417	-1.555941
H	1.389208	-1.396921	-1.717009
H	0.237643	-1.477198	-3.092703
C	-0.463597	-1.141551	0.766188
N	-0.791135	-2.086561	1.386278
C	-0.463973	1.243585	0.58466
N	-0.794295	2.271442	1.051763
H	2.535335	0.0	0.0
