14
Coordinates from ORCA-job run
  C   0.96463659115177     -0.07193996473045     -0.20450112932522
  C   -0.50179285240337     -0.32470728576019      0.07137847149177
  Cl  1.65537786168462     -1.67952627435150     -0.72090897231859
  H   -0.67976828302625     -1.09617802996737      0.81708632922290
  H   1.05351640250624      0.58047594224163     -1.07073314013551
  N   1.56346694436375      0.51234126232690      0.93199666121704
  H   1.61421984737516     -0.12286399646410      1.71822699404811
  H   2.48353283804162      0.87764237935657      0.73063121974102
  N   -1.25607164545863     -0.72280928536434     -1.16226781470498
  O   -0.88459187703725     -0.25204401483899     -2.23060942900952
  O   -2.21647632350271     -1.46490242965794     -0.97283706114251
  N   -1.12448318697623      0.94703390505972      0.57344338542759
  O   -1.52636469011223      0.93039016041931      1.73054513841247
  O   -1.14520162660650      1.88708763173076     -0.21145065292458
