14
Coordinates from ORCA-job run
  C   0.96437593721331      0.25492977888223      0.09571152210091
  C   -0.55641576147959      0.12715899100746      0.19774139421081
  Cl  1.50542382382674      0.13375414565833     -1.59968568446388
  H   -0.82624794140257      0.00903870778815      1.24650534505580
  H   1.21368438628238      1.26940966897869      0.41176747096003
  N   1.56411509763433     -0.74422537048519      0.94318635409015
  H   2.19716586020892     -0.32042697000277      1.60656406714351
  H   2.06292770332012     -1.44259713605800      0.41213629945053
  N   -1.08899120610548     -1.07781868102046     -0.51405644892001
  O   -1.38878604839981     -0.93941086972320     -1.69407620591316
  O   -1.13746813250053     -2.10784864887048      0.14968279135999
  N   -1.31075413250085      1.32055880601169     -0.31151847119712
  O   -0.66764241991272      2.28526867431856     -0.71194632086389
  O   -2.53038716618426      1.23220890351499     -0.23101211301367
