14
Coordinates from ORCA-job run
  C   1.09736432221079      0.06277342708954     -0.30672830306373
  C   -0.40487414251934      0.20354495797001     -0.58380178674281
  Cl  1.69504261920325     -1.09220632118293     -1.55586711432423
  H   -0.59913279567667      0.62219820443177     -1.57014620610014
  H   1.53912929196148      1.02619622732146     -0.55809697993907
  N   1.49350208436979     -0.30196877344963      0.99667826837787
  H   0.92987340594388     -1.02712403283683      1.41181513658980
  H   1.64302698866893      0.48642970826090      1.60616650198897
  N   -0.98492855590381      1.15695162927000      0.42713645520880
  O   -0.45034317380030      2.26046224761768      0.43155982394497
  O   -1.89848032195322      0.77523968795932      1.14523466102235
  N   -1.16070603346805     -1.07939393255507     -0.50257322980460
  O   -2.02996556298204     -1.24726996463975     -1.35165804634671
  O   -0.86750812605469     -1.84783306525646      0.40828081918853
