18

C	-0.386383	-0.003262	-1.460172
C	0.0	0.0	0.0
F	0.450041	-0.693702	-2.243379
H	1.093871	0.0	0.0
N	-1.792932	-0.531139	-1.706906
O	-2.654031	-0.002674	-1.011929
O	-1.931073	-1.445161	-2.505326
N	-0.369738	1.401617	-2.067581
O	0.597513	2.080398	-1.749963
O	-1.243916	1.68558	-2.879797
N	-0.411199	-1.33756	0.53866
O	-0.840999	-1.391353	1.69395
O	-0.130064	-2.318703	-0.157452
C	-0.547833	1.108238	0.866875
H	-0.236454	2.076018	0.47475
H	-0.125754	1.001814	1.866598
H	-1.63437	1.068674	0.942469
Br	2.743174	0.0	0.0
