18

C	-0.41989	-0.0004	-1.444331
C	0.0	0.0	0.0
F	-0.104044	1.181106	-1.995787
H	1.092014	0.0	0.0
N	0.284671	-1.079171	-2.259279
O	0.640945	-2.072819	-1.641926
O	0.417164	-0.84991	-3.454357
N	-1.904654	-0.204916	-1.747596
O	-2.616286	0.743605	-1.438813
O	-2.258442	-1.306943	-2.14858
N	-0.41727	-1.237139	0.724618
O	0.426832	-1.772488	1.433167
O	-1.584985	-1.611853	0.589782
C	-0.557538	1.175744	0.778786
H	-0.286393	2.114357	0.294977
H	-0.116404	1.163827	1.778986
H	-1.64528	1.121126	0.863978
Br	2.753619	0.0	0.0
