18

C	-0.410322	-0.005169	-1.450117
C	0.0	0.0	0.0
F	-0.452774	-1.233133	-1.984582
H	1.091821	0.0	0.0
N	-1.786548	0.590714	-1.771628
O	-2.67969	0.257681	-1.003743
O	-1.884347	1.307362	-2.764056
N	0.568623	0.829328	-2.274531
O	0.740283	1.964508	-1.853662
O	1.094757	0.296362	-3.238377
N	-0.366174	-1.349056	0.561957
O	-1.451729	-1.481985	1.131061
O	0.504988	-2.213379	0.488143
C	-0.548907	1.120186	0.854498
H	-1.606284	0.974782	1.071618
H	-0.401464	2.07873	0.355236
H	0.012775	1.145366	1.792385
Br	2.754647	0.0	0.0
