18

C	-0.489892	0.025804	-1.428721
C	0.0	0.0	0.0
F	0.048866	1.071368	-2.065143
H	1.094078	0.0	0.0
N	-0.168326	-1.201798	-2.290287
O	1.006496	-1.310729	-2.589913
O	-1.106764	-1.909124	-2.632899
N	-2.006143	0.178022	-1.509122
O	-2.647853	-0.432637	-0.663341
O	-2.447589	0.880111	-2.409166
N	-0.398371	-1.255631	0.701021
O	-0.247257	-2.305648	0.080625
O	-0.782461	-1.166969	1.862931
C	-0.448551	1.237218	0.753755
H	0.089294	1.275065	1.699473
H	-0.170443	2.120607	0.176858
H	-1.520555	1.236485	0.953996
Br	3.349214	0.0	0.0
