14

C	-0.516268	0.105239	-1.420042
C	0.0	0.0	0.0
F	-1.862089	0.331699	-1.428474
H	1.092685	0.0	0.0
H	-5.8e-05	0.905016	-1.947867
N	-0.267922	-1.162302	-2.194841
O	-1.162356	-2.002674	-2.204367
O	0.828505	-1.245949	-2.73665
C	-0.508515	-1.201449	0.67616
N	-0.942507	-2.111144	1.280608
N	-0.376173	1.242078	0.674494
H	0.335528	1.450175	1.365075
H	-1.274522	1.154438	1.1317
Br	3.403448	0.0	0.0
