14

C	-0.43186	-0.004732	-1.455128
C	0.0	0.0	0.0
F	0.063697	-1.094149	-2.105887
H	1.09381	0.0	0.0
H	-1.512192	0.03348	-1.610974
N	0.093579	1.215783	-2.184149
O	1.297742	1.375004	-2.214389
O	-0.769342	2.08671	-2.450382
C	-0.485458	-1.223331	0.640091
N	-0.90986	-2.175132	1.182436
N	-0.468964	1.233851	0.610543
H	0.127041	1.453384	1.400661
H	-1.428641	1.153937	0.929053
Br	3.100077	0.0	0.0
