14

C	-0.467958	0.002655	-1.435519
C	0.0	0.0	0.0
F	0.10781	-0.999623	-2.162659
H	1.09564	0.0	0.0
H	-1.551651	-0.042037	-1.554875
N	-0.066024	1.309087	-2.093278
O	-0.798203	1.704753	-3.003786
O	0.991337	1.823938	-1.750674
C	-0.466019	-1.21917	0.633392
N	-0.859239	-2.195282	1.158977
N	-0.580419	1.197752	0.624379
H	-0.930217	0.98171	1.547843
H	0.169365	1.876575	0.727924
Br	2.914902	0.0	0.0
