11

C	-0.233902	-0.030345	-1.490155
C	0.0	0.0	0.0
Br	-2.140765	-0.167289	-2.061793
H	1.095027	0.0	0.0
H	0.244648	-0.913993	-1.914055
H	-0.375525	0.921078	0.44969
C	0.312931	1.160217	-2.132625
N	0.712026	2.12392	-2.672505
C	-0.538007	-1.162796	0.667819
N	-0.95384	-2.114579	1.21936
F	2.505455	0.0	0.0
