11

C	-0.23899	-0.039284	-1.488771
C	0.0	0.0	0.0
Br	-2.151165	-0.153931	-2.049743
H	1.09504	0.0	0.0
H	0.223269	-0.934173	-1.907936
H	-0.373329	0.925229	0.443591
C	0.322993	1.137102	-2.144272
N	0.736909	2.088096	-2.696101
C	-0.541287	-1.155945	0.676455
N	-0.961876	-2.100736	1.236368
F	2.505321	0.0	0.0
