11

C	-0.241603	-0.039978	-1.487987
C	0.0	0.0	0.0
Br	-2.153764	-0.145251	-2.045187
H	1.095051	0.0	0.0
H	0.21481	-0.937189	-1.90673
H	-0.372595	0.925683	0.443918
C	0.323402	1.133644	-2.146395
N	0.730722	2.082272	-2.706494
C	-0.541943	-1.154956	0.677628
N	-0.95996	-2.100889	1.237294
F	2.505019	0.0	0.0
