14

C	0.0	0.0	0.0
C	-0.20036	0.244884	-1.5311
Br	2.031328	0.0	0.0
H	0.524683	-0.421504	-2.024894
H	-0.318804	0.882123	0.55184
N	-0.503359	-1.181828	0.573522
H	-1.507149	-1.011646	0.731093
H	-0.412981	-1.964938	-0.067581
N	0.053286	1.659493	-1.829108
H	1.055388	1.811154	-1.837794
H	-0.315001	1.88324	-2.74489
C	-1.458195	-0.156988	-2.188483
N	-2.158237	-0.488763	-3.075028
Br	-3.606257	0.0	0.0
