14

C	0.0	0.0	0.0
C	-0.505759	0.140036	-1.450739
Br	1.945616	0.0	0.0
H	-1.600297	0.215115	-1.350083
H	-0.268999	0.903418	0.559715
N	-0.50731	-1.23286	0.538605
H	-1.530379	-1.135438	0.50805
H	-0.239272	-1.312264	1.513782
N	-0.202407	-0.979293	-2.329721
H	-0.641483	-1.796446	-1.917174
H	0.80054	-1.143007	-2.304886
C	-0.028066	1.390722	-2.048004
N	0.34293	2.396109	-2.527816
Br	-3.697651	0.0	0.0
