14

C	0.0	0.0	0.0
C	-0.5024	-0.067181	-1.456613
Br	1.945622	0.0	0.0
H	-1.596185	0.024228	-1.366714
H	-0.268366	0.973724	0.42492
N	-0.506532	-1.142943	0.709246
H	-1.529432	-1.064233	0.649135
H	-0.26004	-1.062305	1.689302
N	-0.202872	-1.299111	-2.168564
H	0.789486	-1.493445	-2.074555
H	-0.694409	-2.041976	-1.684119
C	-0.02328	1.088636	-2.222396
N	0.350498	2.020468	-2.831299
Br	-3.696519	0.0	0.0
