17

C	0.0	0.0	0.0
C	-0.497389	0.536571	-1.344367
F	1.376653	0.0	0.0
H	-1.586936	0.58857	-1.242877
C	-0.346783	0.957089	1.095271
N	-0.554091	1.720591	1.963276
N	-0.49956	-1.322182	0.215627
H	-0.263609	-1.625642	1.154414
H	-1.522753	-1.247117	0.160479
N	-0.067953	-0.403424	-2.39416
H	-0.74793	-0.337568	-3.143656
H	-0.153943	-1.340915	-2.014072
C	0.062623	1.918245	-1.640882
H	1.153644	1.889446	-1.645295
H	-0.287813	2.657264	-0.915787
H	-0.274069	2.23438	-2.632046
Cl	-3.626062	0.0	0.0
