17

C	0.0	0.0	0.0
C	-0.383455	0.118321	-1.507932
F	1.387022	0.0	0.0
H	0.417704	0.761115	-1.893244
C	-0.330098	1.285341	0.686324
N	-0.52874	2.308429	1.22885
N	-0.53046	-1.150141	0.642513
H	-0.424919	-1.071552	1.647953
H	-1.533935	-1.179033	0.450791
N	-1.63785	0.742915	-1.844813
H	-1.683406	1.680479	-1.46315
H	-2.441016	0.255033	-1.445508
C	-0.270107	-1.245495	-2.176556
H	-0.32898	-1.105326	-3.257873
H	0.671053	-1.735626	-1.918069
H	-1.092747	-1.894986	-1.871631
Cl	-4.120072	0.0	0.0
