17

C	0.0	0.0	0.0
C	-0.524107	-0.07436	-1.430439
F	1.422216	0.0	0.0
H	-1.616293	-0.061733	-1.315704
C	-0.321969	1.29704	0.64064
N	-0.449684	2.350359	1.141062
N	-0.497764	-1.064989	0.750961
H	-0.432228	-1.925976	0.229607
H	-0.11989	-1.113803	1.684407
N	-0.124367	-1.382156	-1.958493
H	-0.782908	-1.665357	-2.671885
H	0.793042	-1.310158	-2.383239
C	-0.057188	1.105864	-2.273672
H	1.036065	1.153253	-2.297808
H	-0.439208	2.049894	-1.880613
H	-0.427149	0.993416	-3.295805
Cl	-3.955128	0.0	0.0
