17

C	0.0	0.0	0.0
C	-0.453612	-0.111019	-1.469679
F	1.386194	0.0	0.0
H	-1.545483	-0.114697	-1.449872
C	-0.339147	1.327762	0.585786
N	-0.515812	2.392457	1.050327
N	-0.492144	-1.108137	0.753703
H	-1.515594	-1.066286	0.663533
H	-0.273537	-0.970551	1.735171
N	0.012028	-1.362127	-2.064014
H	-0.400922	-2.124821	-1.538194
H	1.013924	-1.425112	-1.905395
C	0.044154	1.063379	-2.29598
H	-0.362424	2.008629	-1.932522
H	-0.274376	0.917547	-3.329061
H	1.136409	1.12213	-2.275514
Cl	-3.562231	0.0	0.0
