17

C	0.0	0.0	0.0
C	-0.127678	-0.190064	-1.579169
F	1.410548	0.0	0.0
H	0.741757	0.380821	-1.942016
C	-0.471277	1.294038	0.478491
N	-0.618363	2.334465	1.010506
N	-0.427359	-1.078066	0.807972
H	-0.726274	-0.80683	1.736691
H	0.333182	-1.744955	0.853304
N	-1.260218	0.430889	-2.229913
H	-2.100695	-0.133546	-2.12804
H	-1.032726	0.512466	-3.220359
C	0.151129	-1.676864	-1.896482
H	-0.560165	-2.326821	-1.382108
H	1.168099	-1.975407	-1.604558
H	0.079034	-1.830362	-2.980202
Cl	-3.349076	0.0	0.0
