17

C	0.0	0.0	0.0
C	-0.370338	0.171477	-1.514883
F	1.41799	0.0	0.0
H	0.541882	0.633036	-1.910254
C	-0.301086	1.265752	0.728657
N	-0.487823	2.26498	1.318026
N	-0.522624	-1.163678	0.614471
H	-0.399621	-1.110499	1.619628
H	-1.530566	-1.175342	0.433802
N	-1.471393	1.044004	-1.857264
H	-1.304288	1.975814	-1.493441
H	-2.335705	0.713851	-1.423462
C	-0.557845	-1.185134	-2.179978
H	0.253371	-1.87056	-1.927317
H	-0.591827	-1.032698	-3.26062
H	-1.504959	-1.632099	-1.87072
Cl	-3.839997	0.0	0.0
