17

C	0.0	0.0	0.0
C	-0.415583	0.212972	-1.45982
F	1.417935	0.0	0.0
H	-0.281281	-0.778015	-1.924653
C	-0.315803	1.192402	0.829151
N	-0.526967	2.096717	1.547253
N	-0.50126	-1.221273	0.515473
H	-1.448631	-1.362118	0.184079
H	-0.529318	-1.213109	1.52454
N	0.466185	1.231656	-2.027438
H	1.402186	0.861017	-2.129607
H	0.115029	1.476185	-2.946276
C	-1.850029	0.676963	-1.613514
H	-2.607572	0.085941	-1.086954
H	-2.117099	0.670932	-2.678406
H	-1.939171	1.703451	-1.242778
Cl	-4.793064	0.0	0.0
