17

C	0.0	0.0	0.0
C	-0.323733	-0.060114	-1.533654
F	1.382523	0.0	0.0
H	0.442466	0.590712	-1.972803
C	-0.381381	1.340185	0.510455
N	-0.557297	2.451123	0.845731
N	-0.53305	-1.001794	0.86153
H	-0.47349	-1.905208	0.406867
H	-1.522456	-0.796415	1.011226
N	-1.607965	0.421016	-1.975095
H	-2.381776	-0.016172	-1.471734
H	-1.700491	1.410189	-1.77438
C	-0.099303	-1.478465	-2.045627
H	-0.086583	-1.457046	-3.135975
H	0.845944	-1.896474	-1.686879
H	-0.925005	-2.129442	-1.743938
Cl	-4.057841	0.0	0.0
