13
Coordinates from ORCA-job run
  C   0.41785236433757      0.12251056813721     -0.64752335992495
  C   -0.87820288034228      0.23141246173215      0.18255472138868
  Cl  0.39762036449059     -1.39731928333971     -1.57481456610772
  H   -0.84017439003628      1.18971199425773      0.71813777209976
  H   0.40119544206598      0.93281918435287     -1.38021088734937
  C   1.65472149096089      0.20120431706083      0.22561032150661
  H   2.55050092684687      0.16462592615818     -0.39481153522675
  H   1.66126785537772      1.14033382062230      0.78627960686423
  H   1.68870543683264     -0.63357910007846      0.92761554871856
  C   -0.96532127670513     -0.83480939798589      1.18561611707694
  N   -1.00095891086273     -1.67282027955834      2.00666228283960
  C   -2.07100362170834      0.24915343552317     -0.66983392677452
  N   -3.01420280125749      0.30475635311796     -1.36628209511109
