13
Coordinates from ORCA-job run
  C   0.40184660864933     -0.29982597157774     -0.58006018628667
  C   -0.69932085611781     -0.34226001996086      0.50312321895379
  Cl  1.06498844660352     -1.94953477149703     -0.73060981793723
  H   -0.24647137625060     -0.71839437666762      1.42898195806107
  H   -0.06110841778672     -0.06238202283718     -1.54003455527036
  C   1.50320983308798      0.68464560987036     -0.24043308796446
  H   1.10866462050199      1.70229291149713     -0.20371062150187
  H   1.95337323257746      0.44120707865313      0.72460367464317
  H   2.28296824021479      0.64368775427739     -1.00144472490119
  C   -1.79546896865271     -1.24273717323207      0.12924872320408
  N   -2.67365663321272     -1.95734582126842     -0.18031270434214
  C   -1.22540355066703      1.00458415546046      0.75308792989604
  N   -1.61462117894749      2.09706264728246      0.93656019344576
