13
Coordinates from ORCA-job run
  C   0.41351772911995     -0.20230516130807     -0.77156135890522
  C   -0.99261687682308     -0.33173552230227     -0.14396352344605
  Cl  0.97246624373751     -1.84503393850040     -1.18652419952976
  H   -1.62397495339058     -0.91068028196727     -0.82771117577107
  H   0.29739787859784      0.33116318982650     -1.71754081607111
  C   1.40869346366884      0.49474857465277      0.13197798026135
  H   2.37291915026779      0.57555590426929     -0.37084220960803
  H   1.05829203316022      1.50198063999408      0.37184430857010
  H   1.54874979944808     -0.06537251623190      1.05811711926440
  C   -1.58623473935386      0.99983982190667      0.02229601219198
  N   -2.02944931975934      2.08270560013474      0.11954379386678
  C   -0.94591169098433     -1.03521138680579      1.14222023690186
  N   -0.89284871768905     -1.59565492366835      2.17214383227477
