13
Coordinates from ORCA-job run
  C   0.37430246315965      0.01721698853379     -0.68656504694168
  C   -0.87309276058104      0.24039931132501      0.19330716883457
  Cl  0.35246223698378     -1.64263251031752     -1.33030109194119
  H   -0.83983221222623      1.28056464790380      0.54468250015546
  H   0.28657143703325      0.68418107691314     -1.54746527599706
  C   1.65681568167805      0.27800041072819      0.07887492138363
  H   1.66092711257069      1.29860103283491      0.47270095868525
  H   1.76306117582146     -0.42396044414256      0.90780280494140
  H   2.51544212405894      0.16059940838340     -0.58301714691894
  C   -0.85992347459165     -0.62849267139697      1.37465939887218
  N   -0.81827636864040     -1.30480849760360      2.33303121610661
  C   -2.11575389621908      0.07068604928097     -0.56612119181381
  N   -3.10370351904741     -0.03135480244259     -1.19158921536642
