13
Coordinates from ORCA-job run
  C   0.40239856804970     -0.29415722626006     -0.58339561098906
  C   -0.69868713673672     -0.34532610393498      0.49934093566343
  Cl  1.06333035737522     -1.94323740674114     -0.75011609125980
  H   -0.24511197983709     -0.72765258511105      1.42227119625032
  H   -0.05999488257222     -0.04639785437687     -1.54101901485986
  C   1.50535759093926      0.68487253325942     -0.23315324808149
  H   2.28379625538769      0.65290533243206     -0.99586180021735
  H   1.11236255653640      1.70246586581660     -0.18234191925203
  H   1.95685789641966      0.42794826174253      0.72767548435423
  C   -1.79499683833417     -1.24356407913326      0.12077578824195
  N   -2.67502959605386     -1.95569406520173     -0.18929151807042
  C   -1.22670423626940      0.99917805269557      0.75790862952482
  N   -1.62157855490446      2.08865927481292      0.94620716869525
