14

C	0.0	0.0	0.0
C	-0.575446	0.033294	-1.384795
F	1.393767	0.0	0.0
H	-0.325027	-0.847771	-1.974903
H	-0.316283	0.90803	0.516366
H	-1.683648	0.122573	-1.208093
C	-0.491061	-1.221197	0.732394
H	-0.157118	-2.129804	0.221707
H	-1.587609	-1.167607	0.742698
H	-0.102647	-1.227287	1.753927
N	-0.098989	1.2019	-2.153055
O	-0.127841	2.305452	-1.603217
O	0.273283	1.016628	-3.317736
H	-3.184023	0.0	0.0
