17

C	0.0	0.0	0.0
C	-0.529311	-0.034148	-1.43368
F	1.360812	0.0	0.0
H	0.361724	-0.254603	-2.035419
H	-0.374643	0.832552	0.594275
N	-0.347508	-1.235713	0.802933
O	-1.053466	-1.089002	1.793927
O	0.159603	-2.28961	0.423106
C	-1.067087	1.357684	-1.779678
H	-2.004535	1.507428	-1.234241
H	-0.3519	2.148649	-1.528226
H	-1.279894	1.422468	-2.850385
C	-1.612854	-1.077298	-1.70365
H	-2.494191	-0.867422	-1.071169
H	-1.250132	-2.09438	-1.547061
H	-1.929264	-0.983529	-2.747667
H	-3.909485	0.0	0.0
