17

C	0.0	0.0	0.0
C	-0.307962	0.011238	-1.515346
F	1.363702	0.0	0.0
H	0.587804	-0.475739	-1.922133
H	-0.393555	0.824274	0.580875
N	-0.360515	-1.246656	0.742791
O	-0.459868	-1.154794	1.968734
O	-0.286478	-2.314426	0.125811
C	-0.292002	1.479256	-1.945747
H	-1.180505	1.964987	-1.535386
H	-0.320327	1.55937	-3.036883
H	0.602404	1.998649	-1.588426
C	-1.492142	-0.706677	-2.15814
H	-1.240147	-0.855159	-3.222432
H	-2.404325	-0.130539	-2.049675
H	-1.66915	-1.67525	-1.698223
H	-2.561536	0.0	0.0
