19

C	-0.50141	-0.025174	-1.45092
C	0.0	0.0	0.0
Cl	-0.000405	1.545234	-2.181297
H	1.088083	0.0	0.0
C	0.268404	-1.11051	-2.198919
H	0.066648	-1.009992	-3.267665
H	1.339624	-1.006738	-2.014272
H	-0.050657	-2.101761	-1.872017
C	-2.003907	-0.184969	-1.618195
H	-2.546094	0.621243	-1.130099
H	-2.327717	-1.139968	-1.195038
H	-2.241417	-0.1845	-2.684485
N	-0.480998	-1.232705	0.710347
O	0.177288	-2.254424	0.550261
O	-1.521536	-1.144826	1.364215
N	-0.469143	1.132611	0.861615
O	-1.386094	1.856256	0.481446
O	0.113537	1.222397	1.937728
Cl	3.239795	0.0	0.0
