19

C	-0.509376	-0.079389	-1.449943
C	0.0	0.0	0.0
Cl	-0.125713	1.545311	-2.153357
H	1.088264	0.0	0.0
C	0.332726	-1.093642	-2.215474
H	1.394295	-0.904821	-2.039922
H	0.113842	-1.00594	-3.282258
H	0.087769	-2.101946	-1.884592
C	-2.005847	-0.297713	-1.634453
H	-2.584875	0.490024	-1.152315
H	-2.296467	-1.264162	-1.219674
H	-2.228247	-0.292006	-2.703818
N	-0.388623	-1.167399	0.864888
O	-0.755707	-2.211328	0.327463
O	-0.23232	-1.008776	2.070606
N	-0.531405	1.196652	0.726071
O	-1.737888	1.181175	0.986108
O	0.24946	2.09775	0.995879
Cl	3.23106	0.0	0.0
