19

C	-0.508404	0.056634	-1.449486
C	0.0	0.0	0.0
Cl	-0.086521	-1.565323	-2.135987
H	1.088241	0.0	0.0
C	-2.006112	0.241194	-1.640493
H	-2.568552	-0.560762	-1.164139
H	-2.220763	0.232909	-2.71175
H	-2.323135	1.197313	-1.223348
C	0.314816	1.084945	-2.215579
H	0.108275	0.986459	-3.283876
H	1.378615	0.92314	-2.031951
H	0.041968	2.088575	-1.891277
N	-0.529902	-1.183141	0.746524
O	-1.737124	-1.16432	1.001241
O	0.251573	-2.077546	1.037546
N	-0.395878	1.175693	0.851702
O	-0.195692	1.042123	2.053074
O	-0.836099	2.190512	0.313937
Cl	3.233261	0.0	0.0
