19

C	-0.490449	0.000474	-1.44442
C	0.0	0.0	0.0
Cl	-2.268472	0.324858	-1.537018
H	1.090015	0.0	0.0
C	0.220862	1.099293	-2.225188
H	-0.080989	1.029366	-3.273052
H	1.301123	0.957433	-2.131273
H	-0.032412	2.088647	-1.851175
C	-0.19486	-1.350835	-2.084179
H	0.869575	-1.570913	-1.957462
H	-0.423788	-1.294138	-3.150451
H	-0.792081	-2.143138	-1.639828
N	-0.43279	-1.166613	0.8377
O	-1.431824	-1.809945	0.519464
O	0.260259	-1.369861	1.830961
N	-0.447774	1.212851	0.760281
O	0.107961	2.26542	0.465475
O	-1.333911	1.07803	1.600535
Cl	3.196632	0.0	0.0
