19

C	-0.510989	0.05598	-1.449761
C	0.0	0.0	0.0
Cl	-0.100007	-1.568742	-2.135813
H	1.088247	0.0	0.0
C	-2.008955	0.245625	-1.628628
H	-2.317481	1.204545	-1.211084
H	-2.570681	-0.552344	-1.146217
H	-2.232746	0.235392	-2.697864
C	0.311842	1.075823	-2.229323
H	0.04489	2.083786	-1.912593
H	1.376742	0.910959	-2.051103
H	0.097745	0.96639	-3.295061
N	-0.529352	-1.18506	0.743962
O	-1.734264	-1.165369	1.006641
O	0.251345	-2.083818	1.02407
N	-0.3928	1.178718	0.848228
O	-0.777013	2.209878	0.300489
O	-0.231013	1.036402	2.054904
Cl	3.231595	0.0	0.0
