19

C	-0.521201	0.015974	-1.442115
C	0.0	0.0	0.0
Cl	0.016869	-1.53591	-2.18462
H	1.088007	0.0	0.0
C	-2.030608	0.129635	-1.589384
H	-2.38173	1.064076	-1.143225
H	-2.539671	-0.703558	-1.111538
H	-2.280196	0.141208	-2.652813
C	0.202095	1.128986	-2.19547
H	1.27847	1.061634	-2.024826
H	-0.009748	1.024456	-3.261867
H	-0.147971	2.107596	-1.862149
N	-0.449541	-1.136809	0.869665
O	-1.346053	-1.887869	0.490996
O	0.133303	-1.205347	1.947144
N	-0.480109	1.231848	0.713365
O	-1.519341	1.14419	1.367277
O	0.178116	2.252376	0.556333
Cl	3.233849	0.0	0.0
