17

C	0.0	0.0	0.0
C	-0.770175	0.097627	-1.311342
Cl	1.864238	0.0	0.0
H	-1.777208	0.408656	-0.909
C	-0.247134	1.234159	0.77835
N	-0.404669	2.210927	1.411565
N	-0.459295	-1.117445	0.70625
H	-0.516434	-1.910305	0.079315
H	0.050027	-1.299975	1.556652
N	-0.976349	-1.234152	-1.86721
H	-0.728671	-1.257432	-2.847288
H	-1.975961	-1.420554	-1.762342
C	-0.194228	1.10519	-2.281255
H	0.752625	0.752875	-2.706998
H	-0.908158	1.2752	-3.092168
H	-0.007745	2.06465	-1.789947
H	-3.385425	0.0	0.0
