17

C	0.0	0.0	0.0
C	-0.389599	-0.068056	-1.537389
Cl	1.796637	0.0	0.0
H	0.442461	0.427598	-2.048382
C	-0.310863	1.366774	0.487613
N	-0.499396	2.460838	0.875705
N	-0.607418	-1.036772	0.766418
H	-0.444109	-0.860976	1.754535
H	-1.63124	-0.89451	0.602349
N	-1.602751	0.6115	-1.927038
H	-1.482494	1.609517	-1.781168
H	-2.371615	0.328538	-1.278967
C	-0.442074	-1.524464	-1.979241
H	-1.32235	-2.009745	-1.55641
H	0.445972	-2.078821	-1.666112
H	-0.52473	-1.543546	-3.06829
H	-3.244785	0.0	0.0
