17

C	0.0	0.0	0.0
C	-0.30935	-0.149927	-1.554845
Cl	1.796544	0.0	0.0
H	0.487566	0.431285	-2.042382
C	-0.340874	1.380553	0.395095
N	-0.571162	2.497316	0.681854
N	-0.592366	-1.034508	0.777328
H	-1.617859	-0.905381	0.611926
H	-0.410294	-0.867904	1.762681
N	-1.561892	0.385042	-2.042029
H	-2.337076	0.132398	-1.391863
H	-1.528856	1.400156	-1.980592
C	-0.174118	-1.621249	-1.945179
H	0.031878	-1.695916	-3.018202
H	-1.114038	-2.130504	-1.733218
H	0.627408	-2.122698	-1.393634
H	-3.2431	0.0	0.0
