17

C	0.0	0.0	0.0
C	-0.771481	0.145913	-1.302535
Cl	1.864201	0.0	0.0
H	-1.800702	0.369134	-0.877892
C	-0.253733	1.198297	0.829646
N	-0.417959	2.151238	1.496938
N	-0.454377	-1.151018	0.658407
H	-0.523695	-1.90813	-0.010293
H	0.078586	-1.384018	1.481671
N	-0.904828	-1.151469	-1.953643
H	-0.538166	-1.128112	-2.896804
H	-1.90368	-1.357072	-1.977923
C	-0.263622	1.257903	-2.194759
H	-0.970002	1.410086	-3.016387
H	0.722822	1.019751	-2.611963
H	-0.182239	2.199902	-1.643933
H	-3.373851	0.0	0.0
