17

C	0.0	0.0	0.0
C	-0.397196	0.11085	-1.505111
Cl	1.847269	0.0	0.0
H	0.465599	0.562907	-2.003504
C	-0.241238	1.281679	0.700333
N	-0.31825	2.255533	1.353179
N	-0.566533	-1.133352	0.649468
H	-1.594932	-0.991729	0.546553
H	-0.354337	-1.083164	1.642719
N	-1.503949	1.042103	-1.649094
H	-1.78846	1.04493	-2.62525
H	-2.306051	0.686147	-1.081744
C	-0.616238	-1.282222	-2.099945
H	-1.535591	-1.713693	-1.705423
H	0.219466	-1.956164	-1.889673
H	-0.718686	-1.180983	-3.186162
H	-3.242886	0.0	0.0
