17

C	0.0	0.0	0.0
C	-0.751432	0.047563	-1.318989
Cl	1.863613	0.0	0.0
H	-1.797013	0.241322	-0.920212
C	-0.266441	1.24719	0.747561
N	-0.406602	2.26672	1.313946
N	-0.450776	-1.110958	0.727786
H	0.073061	-1.277873	1.573396
H	-0.496112	-1.91259	0.110964
N	-0.798401	-1.282818	-1.908914
H	-1.780156	-1.519644	-2.02779
H	-0.330969	-1.303151	-2.805911
C	-0.290836	1.14365	-2.255299
H	0.715847	0.946293	-2.642077
H	-0.279855	2.113472	-1.751528
H	-0.986946	1.212328	-3.096274
H	-3.363396	0.0	0.0
