15

C	0.0	0.0	0.0
C	-0.400515	0.265458	-1.465856
Cl	1.761237	0.0	0.0
H	0.168736	1.161134	-1.736915
H	-1.466129	0.484356	-1.391672
C	-0.47069	1.096013	0.847552
N	-0.601285	2.080011	1.477736
N	-0.446125	-1.310205	0.62018
O	-0.575585	-1.314443	1.835414
O	-0.493046	-2.292314	-0.10597
C	-0.127139	-0.837324	-2.480837
H	-0.227913	-0.411858	-3.484503
H	-0.852266	-1.63937	-2.371685
H	0.873926	-1.264938	-2.395303
F	-2.423348	0.0	0.0
