15

C	0.0	0.0	0.0
C	-0.409266	0.253594	-1.465293
Cl	1.761011	0.0	0.0
H	0.116318	1.179044	-1.725456
H	-1.48514	0.425463	-1.385246
C	-0.472069	1.09657	0.846348
N	-0.614597	2.069196	1.49158
N	-0.453529	-1.310436	0.618325
O	-0.531085	-2.28317	-0.116664
O	-0.575708	-1.319747	1.834727
C	-0.081298	-0.825298	-2.490398
H	-0.164493	-0.384722	-3.489623
H	0.928204	-1.230283	-2.386055
H	-0.790018	-1.646994	-2.416665
F	-2.444835	0.0	0.0
