15

C	0.0	0.0	0.0
C	-0.406185	0.112012	-1.484514
Cl	1.761248	0.0	0.0
H	0.154835	0.981392	-1.845614
H	-1.473677	0.329751	-1.43167
C	-0.468604	1.179192	0.729237
N	-0.60855	2.221505	1.254712
N	-0.447981	-1.238211	0.753095
O	-0.586781	-1.114107	1.961586
O	-0.489013	-2.292245	0.133982
C	-0.126814	-1.082424	-2.387556
H	-0.837349	-1.880968	-2.188527
H	-0.250338	-0.760385	-3.427097
H	0.884345	-1.482222	-2.27618
F	-2.431544	0.0	0.0
