17
Coordinates from ORCA-job run
  C   0.84876678411545     -0.18514390314331      0.42302615150797
  C   -0.16202732821587      0.75709029413226     -0.24318256240328
  Cl  2.26079069927414      0.69896500010562      1.03643754498295
  H   0.39771403454457      1.47633229848754     -0.83840805897020
  N   1.41724412808289     -1.03952801179914     -0.77205796076265
  O   1.86391209253524     -0.42376691965345     -1.73002389601372
  O   1.33537663390942     -2.25609453870514     -0.65381360708046
  N   0.29747100736243     -0.95444991485836      1.44518200040177
  H   -0.57908126125642     -1.38671120622541      1.19032046493880
  H   0.94670823712441     -1.64170937740060      1.80287328538136
  N   -0.82875801828427      1.55416672339314      0.84164905687741
  O   -0.33158840647851      2.64363130208517      1.11269946250428
  O   -1.81856768516526      1.05661812098202      1.37221603417716
  C   -1.21053454883947      0.04650169285101     -1.08102377829386
  H   -0.74290556738259     -0.41557021229619     -1.95065307922637
  H   -1.93748916895961      0.77693293371145     -1.43968706959287
  H   -1.75703163236654     -0.70726428166661     -0.51555398842831
