17
Coordinates from ORCA-job run
  C   0.44226965338660     -0.61809917905930      0.39191172005324
  C   -0.38739675088872      0.42814143665779     -0.36698239562498
  Cl  -0.02310832951148     -0.76462946355199      2.07669481745879
  H   0.01842560399152      0.46162125140464     -1.38145596113492
  N   1.92985851270585     -0.10559603867700      0.33416213779526
  O   2.41670775282564      0.46207779185766      1.29693341652851
  O   2.46415844124521     -0.30688194833443     -0.75242951682987
  N   0.30871677209990     -1.86987318467416     -0.25942905338100
  H   0.70983008242531     -2.61289351544581      0.30002967494005
  H   0.77529622911408     -1.83542445695833     -1.15913070805649
  N   -0.10290293231595      1.79768065158337      0.18786538580645
  O   -0.81902090025397      2.20695928594026      1.09632953634922
  O   0.84122507681721      2.40228804563602     -0.31945914522282
  C   -1.87108849852724      0.13981437775567     -0.35859799952047
  H   -2.39176238755258      0.88881846176797     -0.95806110445930
  H   -2.04618807937309     -0.84719599079671     -0.78412825906691
  H   -2.26502024618830      0.17319247489432      0.65474745436523
