17
Coordinates from ORCA-job run
  C   0.40834065419941     -0.65624353457598      0.37726225049346
  C   -0.35690305487574      0.44299189163196     -0.36047351543274
  Cl  -0.23206441954977     -1.00897574379374      1.97050242444263
  H   0.02039483616159      0.46991369144306     -1.38386280978406
  N   1.89445661163066     -0.19995634877409      0.51701161697760
  O   2.50908546760139     -0.40886221491105      1.54645919390423
  O   2.34704327023576      0.25495355647314     -0.53214552303441
  N   0.35120589254762     -1.83777644735376     -0.41925714447652
  H   0.72470787960552     -2.63448564139206      0.08301873415259
  H   0.86166871282696     -1.70229456016404     -1.28511713241199
  N   -0.05514058037252      1.81387202108803      0.17316559544097
  O   0.48725025889357      1.91294134413626      1.27010245674944
  O   -0.41933665690915      2.74310741106488     -0.53969226428608
  C   -1.86157100727262      0.24010438594704     -0.35249438739620
  H   -2.08636900281402     -0.78132730739869     -0.65774759506509
  H   -2.27009459733430      0.41163034050462      0.64355541286234
  H   -2.32167426457437      0.93940715607442     -1.05028731313617
