17
Coordinates from ORCA-job run
  C   0.88642191619741     -0.23372501547090      0.11123074062820
  C   -0.29929826934767      0.72474754588880     -0.04947804329631
  Cl  2.19179838584560      0.34045564759844     -1.02914025680561
  H   0.06878621527879      1.70361750161182      0.26723543779374
  N   0.58568859210063     -1.66513462220535     -0.36078027303013
  O   0.90281940554006     -2.57243286653495      0.39621158867853
  O   0.09616885587964     -1.78028352082157     -1.47279457607588
  N   1.26257393318351     -0.29265375125478      1.45484194033130
  H   1.94063053128226     -1.01774210133512      1.64473037800946
  H   1.56549803452131      0.60463283000078      1.80833040738564
  N   -1.30344635478384      0.33602329444327      0.99805129935427
  O   -1.56069787696541      1.16488635348383      1.86570344933603
  O   -1.79489136156848     -0.78287064150356      0.88894550101596
  C   -1.00409680853455      0.83726466156468     -1.38766406623869
  H   -1.71410693466216      1.66550556446787     -1.32963618964235
  H   -1.53689031718988     -0.07870583726800     -1.62677710523296
  H   -0.28695794677721      1.04641495733474     -2.18001023221123
