17
Coordinates from ORCA-job run
  C   0.84040985233337     -0.19658054356397      0.43649110277349
  C   -0.15051781128555      0.76097498154180     -0.23783051788307
  Cl  2.24887089953173      0.66785984215207      1.08310683342062
  H   0.42475542802288      1.48343839347263     -0.81407262568272
  N   1.41944378644059     -1.04419232990521     -0.75847728656313
  O   1.31068470817645     -2.26051350045689     -0.66105080616607
  O   1.89691107455894     -0.42322811907657     -1.69798636397574
  N   0.26418290649331     -0.97095983011380      1.44124400672558
  H   -0.60617233407445     -1.40081065931009      1.16186188789924
  H   0.90354877529754     -1.66217755368782      1.80903426234861
  N   -0.83087315531811      1.55095644889000      0.84412930977741
  O   -1.83588426309472      1.05763146965383      1.34910196151660
  O   -0.32736122886747      2.63132033579040      1.13908967754835
  C   -1.18945177247626      0.06890027829906     -1.10249748149627
  H   -0.71063947795339     -0.38889217719668     -1.96832083827375
  H   -1.75362772759655     -0.68510236654573     -0.55497498818659
  H   -1.90227966018832      0.81037533005699     -1.46684813378256
