9
Coordinates from ORCA-job run
  C   0.28373040484531     -0.21528561210475     -0.39058112755643
  C   -0.71320477993587      0.31632390666280      0.32780815407499
  H   0.22667655704270     -0.55709459975139     -1.41596932713796
  H   -0.53866382492654      0.62493486892297      1.35409005432128
  N   1.60802378652456     -0.38113634881428      0.20764386407138
  O   2.45680429646964     -0.88124225262326     -0.53069667485700
  O   1.77599426726075     -0.02356951701591      1.36900005896614
  C   -2.01197655379522      0.48573287635264     -0.23469231522994
  N   -3.08838415348532      0.63233667837118     -0.68660268665245
