9
Coordinates from ORCA-job run
  C   0.31930541655328      0.14232179404749      0.39663546626278
  C   -0.74714100391477     -0.01789283542818     -0.39683431335052
  H   0.34854783955398      0.68356025911013      1.33351934987446
  H   -0.65790359361692     -0.58474506682079     -1.31866079559870
  N   1.60431832418659     -0.44694305347011      0.02169754923132
  O   1.67512615714679     -1.08211945744458     -1.02536277767831
  O   2.52313784976925     -0.24778228378783      0.81649202424906
  C   -2.00946109877628      0.54628671703701     -0.05032201174410
  N   -3.05692989090193      1.00731392675686      0.22283550875400
