9
Coordinates from ORCA-job run
  C   0.30089534047696     -0.53719789910181      0.54929681299062
  C   -0.93247767624788     -0.01701796809856      0.46897109205276
  H   0.59931780815119     -1.24087245879635      1.31515843178544
  H   -1.64996740943406     -0.33306890307812      1.22120001261421
  N   1.38582892575478     -0.22389708734986     -0.37567023219196
  O   1.17084596786623      0.56431499324084     -1.29093744494537
  O   2.44945344452680     -0.79960852827316     -0.14174935040517
  C   -1.40926710982230      0.91242571670223     -0.50234665439969
  N   -1.91362929127171      1.67392213475478     -1.24392266750086
