9
Coordinates from ORCA-job run
  C   0.29214821549185      0.08588308460092      0.43362282614786
  C   -0.72473384572701      0.01942651577271     -0.43471999051299
  H   0.25141400958837      0.46903038894259      1.44509522931509
  H   -0.56390638968795     -0.38632689273077     -1.42889029790932
  N   1.61926682904232     -0.38735377195557      0.04135674333714
  O   1.76906953395474     -0.84488850060667     -1.08690272827548
  O   2.48983116808588     -0.27929955795420      0.90491754558811
  C   -2.02685625566153      0.47457972225349     -0.07610558282794
  N   -3.10723326508668      0.84794901167748      0.20262625513753
