9
Coordinates from ORCA-job run
  C   0.34255675784266      0.24422438540015      0.31995064449278
  C   -0.77095876679502     -0.12087466992385     -0.32765564033156
  H   0.42883640506599      1.02784534348412      1.06175552863013
  H   -0.73642344780150     -0.92669739865000     -1.05453136624256
  N   1.60492835190998     -0.44266376302549      0.04741056479085
  O   1.61341250520830     -1.34846805327304     -0.77984249886077
  O   2.57148813854936     -0.03641287478132      0.69276964970896
  C   -2.01176496908472      0.53478810917765     -0.07777578432227
  N   -3.04207497489505      1.06825892159178      0.11791890213444
