9
Coordinates from ORCA-job run
  C   0.31119156609523     -0.58112724799828      0.49608886639715
  C   -0.96022597557378     -0.39418775040083      0.11306284317408
  H   0.62081486498823     -1.38057632473687      1.15622145852793
  H   -1.69801131028307     -1.09303233227434      0.49753732833150
  N   1.42733628147078      0.26086767409388      0.07625510477663
  O   1.20384160744435      1.20407870166888     -0.67582470693274
  O   2.52395644550651     -0.06648677132794      0.53190289749174
  C   -1.45379771125896      0.62865170885699     -0.75001198850229
  N   -1.97510576838930      1.42181234211852     -1.44523180326400
