9
Coordinates from ORCA-job run
  C   0.30110498215899     -0.56245742526219      0.52283255249617
  C   -0.96571088893246     -0.37709419233912      0.12400097384484
  H   0.59683666505065     -1.33660843122441      1.21855638126031
  H   -1.71405239601298     -1.04999650335093      0.53377659797300
  N   1.42988073772490      0.24707890726932      0.07412603312906
  O   1.22172624309950      1.16140667623709     -0.71699865198985
  O   2.52018757446413     -0.07509940528820      0.54825524547204
  C   -1.44181277324100      0.61315650804688     -0.78558517489366
  N   -1.94916014431173      1.38061386591156     -1.51896395729191
