9
Coordinates from ORCA-job run
  C   0.29372736849079     -0.56400089863686      0.52608215314917
  C   -0.96583813926554     -0.38273686238428      0.10310534798337
  H   0.57936931710574     -1.33980176952369      1.22408071900460
  H   -1.71908593470555     -1.06065564474822      0.49494582830308
  N   1.42715086478287      0.25281510099389      0.10305613615691
  O   2.50927823583767     -0.06538396611278      0.59823714115116
  O   1.23051069646848      1.16863231330347     -0.68927133421630
  C   -1.42865857452333      0.60977971975733     -0.81093385169243
  N   -1.92545383419113      1.37935200735116     -1.54930213983955
