9
Coordinates from ORCA-job run
  C   0.29535101864850     -0.73192575503704      0.24015327527600
  C   -0.98089575873650     -0.34013095673074      0.11325385442850
  H   0.58206236761483     -1.72332738248200      0.56522024542061
  H   -1.74620238876976     -1.07236945875568      0.35552867936465
  N   1.44734360759243      0.11919949302778     -0.04126374659268
  O   1.25166309607956      1.27053101218614     -0.41725153413360
  O   2.54290259992360     -0.41694004663912      0.13144987374305
  C   -1.44631116796649      0.94071832878839     -0.30782034823964
  N   -1.94691337438616      1.95224476564228     -0.64027029926689
