9
Coordinates from ORCA-job run
  C   0.22782232761456     -0.18428196164569      0.44043900847302
  C   -0.66793772054700      0.24980077013007     -0.45509867716638
  H   0.02080427930717     -0.50950145206609      1.45189191775278
  H   -0.34224822175537      0.55179988020469     -1.44585185363902
  N   1.64432733832404     -0.25250776066447      0.08245501863711
  O   2.38869728718199     -0.66977206997832      0.96991487966413
  O   1.98288685155214      0.09956765845959     -1.04283041609883
  C   -2.05350644801054      0.32451884364893     -0.12889976645862
  N   -3.19984569366699      0.39037609191128      0.12797988883581
