9
Coordinates from ORCA-job run
  C   0.29482538381939      0.05415779999424      0.43545348097793
  C   -0.73036226377144      0.03941046235887     -0.42562102060063
  H   0.25527505079070      0.34141984642750      1.47823670026000
  H   -0.57120549216874     -0.26963678338607     -1.45423336031588
  N   1.62919872767937     -0.34573825760787     -0.01000896925935
  O   2.50527015789116     -0.29830151889951      0.85376865258776
  O   1.77945692539787     -0.68912010175652     -1.17814267699441
  C   -2.03912499562522      0.42544042148901     -0.01320184295187
  N   -3.12433349401310      0.74136813138035      0.31374903629646
