9
Coordinates from ORCA-job run
  C   0.30009130562637     -0.73894039603635      0.21155649090082
  C   -0.97830601297973     -0.35468637360218      0.08370104536063
  H   0.59259329194087     -1.74110720393350      0.49579347627303
  H   -1.73946732498685     -1.10455795191187      0.28083616858801
  N   1.44675116469995      0.13555166824466     -0.01488704393459
  O   1.24398822142265      1.30125554055556     -0.33924018450492
  O   2.54547785796758     -0.39760577826875      0.14625431503406
  C   -1.45164355158877      0.93934243977698     -0.28529703984570
  N   -1.95848495210207      1.95974805517544     -0.57871722787134
