9
Coordinates from ORCA-job run
  C   0.24257213680022     -0.33748599612646      0.32800713724453
  C   -0.67726574574219      0.41991912810047     -0.28257170343271
  H   0.07931615490951     -0.98712766101493      1.17827210850799
  H   -0.39659160840309      1.03510513921062     -1.13208518693892
  N   1.62524039452952     -0.33321243733950     -0.14810671087625
  O   1.91200721770992      0.37025167100353     -1.11131320069042
  O   2.39744462071463     -1.05750151354458      0.48039435390690
  C   -2.03071045365053      0.43323911187948      0.16432251876490
  N   -3.15101271686799      0.45681255783136      0.52308068351397
