9
Coordinates from ORCA-job run
  C   0.29728169276192     -0.75407144532144      0.15434409631303
  C   -0.97985835512623     -0.35370667777229      0.07136411952214
  H   0.58666398842161     -1.77511250299057      0.36515684106994
  H   -1.74388209356152     -1.11050111976508      0.22661400035951
  N   1.44706526615508      0.12714239507492     -0.02568332255262
  O   1.24830257492072      1.31224632960635     -0.27305143199316
  O   2.54399832005096     -0.42066681869427      0.09275217824155
  C   -1.44855943582205      0.96593432149797     -0.19969616546451
  N   -1.95201195780050      2.00773551836443     -0.41280031549587
