9
Coordinates from ORCA-job run
  C   0.23832146466072     -0.46710185135232      0.06733311996168
  C   -0.68266277768342      0.49658052846541     -0.05800297333460
  H   0.04961946152452     -1.51783678689331      0.24580200295119
  H   -0.37432172079334      1.52210563114164     -0.23697127169184
  N   1.65964542365949     -0.13791289117110     -0.03582200098062
  O   2.42823642999655     -1.09057406698834      0.09575225157437
  O   1.97815060324597      1.02907630056560     -0.23951017487939
  C   -2.07308121787962      0.19864480107045      0.04069587407368
  N   -3.22390766673087     -0.03298166483800      0.12072317232552
