17

C	-0.457044	0.065908	-1.42803
C	0.0	0.0	0.0
F	-1.808867	0.329616	-1.54735
H	1.095025	0.0	0.0
H	0.094153	0.815179	-1.998437
N	-0.228005	-1.232486	-2.162351
O	0.813782	-1.32311	-2.804907
O	-1.088283	-2.105409	-2.053733
C	-0.501495	-1.223157	0.753908
H	-0.190246	-1.137277	1.798776
H	-0.058214	-2.140928	0.362262
H	-1.591357	-1.32035	0.717768
C	-0.414405	1.299018	0.688841
H	-1.497998	1.373434	0.825403
H	0.073672	1.344734	1.66612
H	-0.071435	2.1692	0.119864
H	2.915769	0.0	0.0
