17

C	-0.346941	0.006227	-1.464182
C	0.0	0.0	0.0
F	0.200838	1.072949	-2.111193
H	1.097546	0.0	0.0
H	-0.046213	-0.913157	-1.97184
N	-1.842096	0.109636	-1.675104
O	-2.471065	-0.949068	-1.615015
O	-2.337628	1.223084	-1.831981
C	-0.478276	-1.26133	0.700968
H	-1.569871	-1.318799	0.77015
H	-0.118974	-2.159587	0.190406
H	-0.063422	-1.274824	1.712747
C	-0.479469	1.266381	0.695416
H	-1.570061	1.296243	0.810242
H	-0.166583	2.155117	0.14445
H	-0.025715	1.316086	1.688983
H	2.86476	0.0	0.0
