15

C	0.0	0.0	0.0
C	-0.474242	-0.011585	-1.4599
Br	1.948396	0.0	0.0
H	-0.103125	0.842192	-2.014687
H	-1.574399	-0.043155	-1.43717
N	-0.377993	1.395543	0.556591
O	-0.696441	1.458346	1.73131
O	-0.277619	2.337705	-0.221587
N	-0.50055	-0.970267	0.886654
H	-0.387694	-1.87826	0.449884
H	-1.509255	-0.793616	0.984533
N	0.012932	-1.218743	-2.180382
O	0.534547	-1.037921	-3.280251
O	-0.153899	-2.32305	-1.660901
Br	-3.683315	0.0	0.0
