19

C	-0.281478	-0.029442	-1.509962
C	0.0	0.0	0.0
Cl	-2.048058	-0.342276	-1.847867
H	1.093182	0.0	0.0
C	0.074464	1.27729	-2.203778
H	1.113701	1.517092	-1.965739
H	-0.564359	2.104287	-1.893721
H	-0.035162	1.141999	-3.283147
N	0.46354	-1.167914	-2.00182
H	0.458823	-1.153854	-3.015549
H	1.43016	-1.067431	-1.68317
C	-0.525017	-1.188292	0.771997
H	-0.130926	-1.157469	1.79047
H	-1.613315	-1.195438	0.807425
H	-0.166643	-2.094174	0.283526
N	-0.477625	1.276123	0.602581
O	0.245003	2.266026	0.49451
O	-1.579237	1.277247	1.159982
Cl	3.343005	0.0	0.0
