19

C	-0.481671	-0.028949	-1.452574
C	0.0	0.0	0.0
Cl	0.053967	1.586406	-2.200496
H	1.090207	0.0	0.0
C	0.281117	-1.100198	-2.213282
H	1.354364	-0.982412	-2.051823
H	-0.043592	-2.083911	-1.866772
H	0.061092	-1.020332	-3.280996
N	-1.887713	-0.218986	-1.578702
H	-2.377771	0.505661	-1.067475
H	-2.149989	-0.180648	-2.556094
C	-0.509315	-1.17353	0.825625
H	-0.111503	-1.085061	1.839384
H	-0.133665	-2.107537	0.407155
H	-1.598762	-1.200708	0.850094
N	-0.458636	1.243859	0.697978
O	0.365904	1.895246	1.326243
O	-1.667811	1.510791	0.648148
Cl	3.406194	0.0	0.0
