19

C	-0.478321	-0.060282	-1.470022
C	0.0	0.0	0.0
Cl	-0.149627	1.564716	-2.197285
H	1.090668	0.0	0.0
C	0.385997	-1.062992	-2.216546
H	0.138754	-1.020362	-3.278102
H	1.442021	-0.837098	-2.058801
H	0.188219	-2.076356	-1.852407
N	-1.877035	-0.342935	-1.694905
H	-2.047202	-1.320914	-1.490095
H	-2.433028	0.220107	-1.060532
C	-0.469686	-1.190485	0.823837
H	-0.078037	-1.092338	1.838957
H	-0.056215	-2.111242	0.409673
H	-1.557956	-1.255038	0.868164
N	-0.516218	1.228002	0.667639
O	-1.748296	1.33959	0.73831
O	0.278506	2.042255	1.118455
Cl	3.417276	0.0	0.0
