19

C	-0.506838	0.013736	-1.450357
C	0.0	0.0	0.0
Cl	0.468919	1.247399	-2.398162
H	1.089443	0.0	0.0
C	-0.198347	-1.328012	-2.102483
H	-0.422946	-1.274983	-3.170734
H	0.858835	-1.573515	-1.977202
H	-0.82119	-2.106224	-1.652257
N	-1.887261	0.384249	-1.530437
H	-2.362096	0.392919	-0.639232
H	-2.395935	-0.117694	-2.250323
C	-0.511201	-1.179201	0.815048
H	-1.587873	-1.326251	0.714476
H	0.016772	-2.082739	0.508227
H	-0.288778	-1.010316	1.8696
N	-0.45464	1.284799	0.630747
O	0.312726	2.240408	0.653351
O	-1.613443	1.321014	1.052508
Cl	3.256634	0.0	0.0
