19

C	-0.3939	0.043832	-1.503284
C	0.0	0.0	0.0
Cl	-0.671616	-1.771496	-2.033819
H	1.092386	0.0	0.0
C	-1.739203	0.691192	-1.788666
H	-1.972945	0.576177	-2.848706
H	-1.694792	1.756137	-1.545965
H	-2.533584	0.224326	-1.206499
N	0.63099	0.607212	-2.246648
H	0.402775	1.374054	-2.851999
H	1.5543	0.620927	-1.828086
C	-0.566534	-1.091633	0.874039
H	-0.069734	-2.027061	0.625363
H	-1.643446	-1.210128	0.751126
H	-0.357336	-0.857205	1.918934
N	-0.405929	1.345519	0.531165
O	-1.414527	1.410348	1.241729
O	0.251862	2.321809	0.177388
Cl	3.360316	0.0	0.0
