11

C	0.0	0.0	0.0
C	-0.535205	0.030827	-1.40177
Br	1.939825	0.0	0.0
H	-0.217416	-0.81206	-2.012598
H	-0.34789	0.871306	0.548434
H	-0.363765	-0.899495	0.492945
H	-1.65822	0.043388	-1.196825
N	-0.154013	1.243075	-2.134412
O	-0.12382	2.309906	-1.512603
O	0.054978	1.143573	-3.351255
H	-2.841787	0.0	0.0
