17

C	0.0	0.0	0.0
C	-0.321789	-0.068739	-1.518256
Br	1.975469	0.0	0.0
H	0.091089	-1.012452	-1.89614
H	0.243546	0.732678	-2.006455
C	-0.511103	1.28383	0.623524
H	-0.171619	1.381681	1.657516
H	-1.605541	1.245159	0.6172
H	-0.172379	2.1576	0.060303
C	-0.510081	-1.215374	0.749823
H	-0.144641	-2.139817	0.29576
H	-0.196251	-1.191824	1.796637
H	-1.605059	-1.19914	0.718681
N	-1.699842	0.039184	-1.929892
H	-2.092487	0.933817	-1.667424
H	-2.308432	-0.62645	-1.467057
Cl	-4.271324	0.0	0.0
