17

C	0.0	0.0	0.0
C	-0.464933	0.133186	-1.456094
Br	1.980132	0.0	0.0
H	-0.05097	-0.70606	-2.025558
H	-1.554179	0.018561	-1.422566
C	-0.474089	1.152881	0.862004
H	-0.103711	2.110612	0.490684
H	-1.569478	1.143038	0.837459
H	-0.133682	1.031302	1.893371
C	-0.463702	-1.330929	0.563124
H	-0.113686	-2.161153	-0.056346
H	-1.558706	-1.316137	0.569746
H	-0.095347	-1.47713	1.581774
N	-0.154245	1.372594	-2.155211
H	-0.731034	2.116826	-1.784017
H	0.816944	1.617944	-1.997762
Cl	-3.863312	0.0	0.0
