14

C	0.0	0.0	0.0
C	-0.456452	0.074429	-1.496473
Cl	1.756741	0.0	0.0
H	0.462886	0.354234	-2.030115
H	-0.381547	0.812306	0.60942
N	-0.354712	-1.258988	0.761311
O	-0.670159	-1.103199	1.934542
O	-0.158284	-2.332169	0.205771
C	-1.331542	1.231125	-1.747475
N	-1.726948	2.243027	-2.201418
N	-0.999974	-1.159036	-2.030394
H	-0.242474	-1.760528	-2.325323
H	-1.627783	-0.961049	-2.796271
Cl	-3.088077	0.0	0.0
