14

C	0.0	0.0	0.0
C	-0.599402	-0.253953	-1.387408
Cl	1.754414	0.0	0.0
H	-1.609631	-0.632957	-1.179557
H	-0.382597	0.92849	0.415189
N	-0.39251	-1.079664	0.986178
O	-0.394679	-0.753052	2.16732
O	-0.609215	-2.197518	0.535563
C	0.153762	-1.250804	-2.152967
N	0.753209	-2.05131	-2.767588
N	-0.767503	0.964431	-2.160947
H	0.044612	1.565256	-2.078145
H	-1.586218	1.433353	-1.784526
Cl	-3.39683	0.0	0.0
