14

C	0.0	0.0	0.0
C	-0.624614	-0.323406	-1.361813
Cl	1.74776	0.0	0.0
H	-1.542165	-0.881047	-1.143224
H	-0.378462	0.947447	0.371888
N	-0.382253	-1.041158	1.024661
O	-0.498237	-0.652127	2.179539
O	-0.465567	-2.199379	0.631134
C	0.231551	-1.148822	-2.213449
N	0.862094	-1.806722	-2.955261
N	-0.923542	0.961744	-2.003058
H	-1.821238	1.222623	-1.590452
H	-1.100366	0.795748	-2.988273
Cl	-3.40138	0.0	0.0
