16
Coordinates from ORCA-job run
  C   0.59511639609439     -0.57592660791186     -0.30704044108196
  C   -0.43127931933419      0.36640847189832      0.35550580313658
  F   0.56116885983975     -0.42826376734081     -1.65549762960482
  H   -0.35167833245231      0.19317541446370      1.43266134050041
  N   1.97989006550297     -0.14358992992798      0.16921560768472
  O   2.18855522222282     -0.33434922308483      1.36106895795847
  O   2.71022047128069      0.40353997995435     -0.64108567486274
  C   0.42008775005264     -1.98373219509689      0.05015428497544
  N   0.22566767985689     -3.10485015701993      0.34312702437667
  C   -1.82990528882989      0.01148507485604     -0.13044748720028
  H   -2.08575744798796     -1.02794789467010      0.08393346061508
  H   -2.54365243687716      0.66309964867249      0.37280156523574
  H   -1.91506469624699      0.17551134523842     -1.20670157804405
  N   -0.14892225312666      1.75972411033698      0.09725896725921
  H   -0.05953286534057      1.94056467852745     -0.89501950712465
  H   0.68408619534558      2.08415105110464      0.57106530617617
