16
Coordinates from ORCA-job run
  C   0.69620349508143     -0.71095522699701      0.22901323595127
  C   -0.59314848269058      0.09434271047184      0.38865331219605
  F   0.87828279970882     -1.47785618901451      1.33995841327762
  H   -1.38177184706958     -0.66552067654345      0.50543071482861
  N   0.52608781055805     -1.67074179614176     -0.94680810865660
  O   -0.08854882702820     -2.69927010339401     -0.70231991787372
  O   0.95213937793867     -1.29534374664327     -2.03279875383647
  C   1.87698113821764      0.12148160729072      0.00384493856919
  N   2.82029950565637      0.80057370853813     -0.16274180312842
  C   -0.87674898864730      0.96345249281565     -0.82463805985415
  H   -0.07606830893718      1.69260762320697     -0.96453690493779
  H   -1.81274412994236      1.50447127130817     -0.66637584252004
  H   -0.98402209704496      0.37725621084297     -1.73725577145134
  N   -0.39023224691540      0.92158131315285      1.56491074939592
  H   -1.07239913931905      1.66777593967381      1.59348624497588
  H   -0.47431005956637      0.37514486143290      2.41217755306401
