16
Coordinates from ORCA-job run
  C   0.52559191840252     -0.90079756124753      0.17806496973614
  C   -0.49944049718096      0.17648393721418      0.54970236046091
  F   -0.07771076951180     -2.11502241327746      0.14799741320843
  H   -0.97362443379316     -0.23664715751504      1.44764374206446
  N   1.03643851152331     -0.61997430412896     -1.23991844385412
  O   0.69017596147046     -1.38322843312977     -2.12568889957904
  O   1.70577550342849      0.40085408496226     -1.35106038717611
  C   1.68429259196158     -0.94147343929151      1.07165193387049
  N   2.60120844609984     -1.06224511827540      1.79534432957738
  C   -1.54925299107227      0.31825114616824     -0.55183586678911
  H   -1.12213744298392      0.80674621023045     -1.43202139792024
  H   -2.36843351940498      0.94201490660821     -0.18862358251176
  H   -1.95948061666755     -0.64821203503079     -0.85290633216732
  N   0.19397000244969      1.38560818596968      0.94666511335707
  H   -0.42863000859552      1.99086704433481      1.46509955357097
  H   0.54125734387427      1.88877494640861      0.13988549415198
