16
Coordinates from ORCA-job run
  C   0.59387701811524     -0.66490487875898     -0.29672397506237
  C   -0.27104923219145      0.45046261389094      0.28831398281119
  F   0.15693424600206     -0.99178804625338     -1.53979267752256
  H   0.15807646968096      0.67877244845983      1.26759366104281
  N   2.02169367823598     -0.12936197988180     -0.42752625334581
  O   2.54433794063787      0.16152997068082      0.63950781853736
  O   2.48773249620274     -0.03468799471537     -1.54710139063345
  C   0.64544402261878     -1.86388387697499      0.54394164530281
  N   0.64386264204772     -2.81681482273842      1.23079837445772
  C   -1.71515396968442     -0.01981733919052      0.44211046696078
  H   -1.80109627907187     -0.87910655657418      1.11176196727586
  H   -2.13316757859897     -0.29361971839396     -0.52927132764932
  H   -2.31438344391841      0.79381473590605      0.85554611412283
  N   -0.06840049506665      1.60642278732824     -0.56853011559161
  H   -0.64993993005072      1.54690536862861     -1.39540727602940
  H   -0.29876758495884      2.45807728858710     -0.07522101467679
