16
Coordinates from ORCA-job run
  C   0.48217976777720     -0.88051723381647      0.15624387684730
  C   -0.57999735200911      0.18996249436864      0.52489510583662
  F   -0.09247615344231     -2.10721578573498      0.11510815188418
  H   -1.06941601423924     -0.24775098171684      1.40306181219878
  N   1.01953220930094     -0.57507842010397     -1.23699436508480
  O   1.71674128195485      0.43223748104162     -1.30708636094043
  O   0.65733523618248     -1.29525721880225     -2.15239987920841
  C   1.61098977094626     -0.88345260391100      1.08784575948932
  N   2.46757744420947     -0.86224347315036      1.89160009472552
  C   -1.59424640066971      0.31926745419064     -0.60288553270480
  H   -1.95289388119124     -0.65463281194212     -0.93878453351929
  H   -2.43722190369463      0.90871155447851     -0.24321119030325
  H   -1.15878859570538      0.84438034560608     -1.45774461606431
  N   -0.06357265466162      1.48246078412697      0.89601778055047
  H   0.52226395993507      1.43628107160843      1.72038849140129
  H   0.47199328530694      1.89384734375704      0.14194540489183
