16
Coordinates from ORCA-job run
  C   0.60306872215742     -0.50785532639555     -0.39701971419828
  C   -0.43786474169073      0.29545994293481      0.40939826303725
  F   0.58519623249860     -0.12129929801767     -1.69740415058914
  H   -0.36902429498436     -0.06505157793952      1.43984682083159
  N   1.97902201176952     -0.16183799764115      0.16787480058305
  O   2.17338448723901     -0.56097019671598      1.30943431697455
  O   2.71659524517799      0.52300392622660     -0.52234285800661
  C   0.43369379801152     -1.95775331368363     -0.30013734553749
  N   0.24502224441856     -3.11451201223402     -0.21749951392323
  C   -1.82856180148362      0.02384912503369     -0.14803194525982
  H   -2.55152241954894      0.57698965784306      0.45089720819489
  H   -2.08061487695757     -1.03802388654461     -0.11786116934299
  H   -1.90231901005121      0.36947225438328     -1.18135852779801
  N   -0.16400816766991      1.71451436544255      0.40550167679045
  H   0.66250064018874      1.95373502228250      0.93787049947125
  H   -0.06556806907501      2.06827931502567     -0.53816836122747
