16
Coordinates from ORCA-job run
  C   0.50450225606632     -0.89016070641988      0.19169158509452
  C   -0.49997380729169      0.24038279740843      0.46233057630360
  F   -0.13784336095135     -2.08747516489663      0.21301048772319
  H   -0.95332262790879     -0.04954466313409      1.42418239830963
  N   1.12197488095033     -0.72582552170659     -1.19379510132890
  O   2.17131144517178     -0.10127892866926     -1.25763826976157
  O   0.47775846766813     -1.20500360861407     -2.11741589391718
  C   1.58622589467442     -0.89508100004095      1.18075387207587
  N   2.38215830053301     -0.91127969891819      2.04445353652052
  C   -1.59034712831430      0.29041028270916     -0.59676125013572
  H   -2.39504003756330      0.94025430288303     -0.24440879139610
  H   -2.00628363446052     -0.69724239334156     -0.79157291308474
  H   -1.19834143437089      0.69653395316460     -1.53051943161711
  N   0.23143756639240      1.49100143642954      0.49873402901506
  H   -0.38943600204504      2.27088978671810      0.33084975895731
  H   0.69521922144952      1.63441912642831      1.38710540724163
