16
Coordinates from ORCA-job run
  C   0.70743029906561     -0.66656414747228      0.17082161154284
  C   -0.63758836194158      0.02845416360643      0.45132727988069
  F   1.03112053111383     -1.45376770065857      1.23565137823142
  H   -1.32985619790180     -0.79966418206918      0.64465466074478
  N   0.55082597555513     -1.58562018614020     -1.03170607743868
  O   -0.02264460506308     -2.64299187356689     -0.80944787678833
  O   0.93575473737094     -1.15573973817922     -2.11331177015307
  C   1.78848134597077      0.28662163040706     -0.07996958955755
  N   2.61119039435782      1.11496090627317     -0.21062782212494
  C   -1.11212993148516      0.84461945250252     -0.73865297698816
  H   -1.27928379565429      0.23074858912352     -1.62405092219846
  H   -2.05134451904139      1.32652340159870     -0.46626199135288
  H   -0.38806531349595      1.62313867866573     -0.99499736728956
  N   -0.57665953420030      0.85136940491334      1.63734887479490
  H   0.00871536821367      1.66618041889546      1.49401522331680
  H   -0.23494639286423      0.33273118210039      2.43620736538020
