16
Coordinates from ORCA-job run
  C   0.53691628591540     -0.89093717438547      0.20209206973713
  C   -0.48761601894267      0.19424693660769      0.55273951266303
  F   -0.05912447057569     -2.10881138957141      0.23334156233435
  H   -0.93847594147594     -0.18488382226139      1.47729060679177
  N   1.01509952464023     -0.66397290838580     -1.23684014137137
  O   1.67328906190571      0.35650848282581     -1.40361475235631
  O   0.65352576318294     -1.46325696786423     -2.08389985926680
  C   1.71440904745117     -0.88866663426733      1.07141928912683
  N   2.64429165895388     -0.95249175321616      1.78571410909257
  C   -1.56267717179549      0.28291669664558     -0.52995445315392
  H   -1.97180257962273     -0.69791194713361     -0.78198122284818
  H   -1.15906151122281      0.73785687005090     -1.43874967750256
  H   -2.37846828432983      0.91537711867343     -0.17422613157794
  N   0.20416199874288      1.42380588191729      0.88379912392090
  H   -0.41125178324563      2.04447460632098      1.39246082102115
  H   0.52778442041852      1.89674600404376      0.04940914338933
