16
Coordinates from ORCA-job run
  C   0.69376956716138     -0.78337611740133      0.22635583296591
  C   -0.58275514821573      0.04032904512625      0.44384802968088
  F   0.83757590725712     -1.68652825588176      1.22420143823591
  H   -1.35487256766005     -0.71573512740259      0.62299975522640
  N   0.53722192717468     -1.57576770783339     -1.06890326566230
  O   1.08691122959536     -1.13369116775478     -2.07090889236787
  O   -0.19834246633290     -2.55064486175498     -0.99282668826062
  C   1.88583792394824      0.06132919904949      0.13370294553564
  N   2.80149079845545      0.79569427486748      0.09571294209296
  C   -0.93883828009703      0.88325629624122     -0.77490402635625
  H   -0.12559951685087      1.57308776712368     -1.01895989840285
  H   -1.82901816315064      1.47176844211611     -0.54494620360891
  H   -1.15189695336368      0.28135149317537     -1.65976598411436
  N   -0.36478585820907      0.79694789304485      1.66392574840770
  H   -0.11501202323806      1.75653497147855      1.46207943183358
  H   -1.17968637647419      0.78744385580584      2.25938883479415
