16

C	-0.564512	-0.063036	-1.413766
C	0.0	0.0	0.0
Br	0.075301	-1.687865	-2.364906
H	1.088889	0.0	0.0
H	-0.081582	0.742404	-1.97012
N	-1.991796	0.026637	-1.515983
H	-2.432831	-0.230186	-0.641467
H	-2.287152	0.949424	-1.798751
N	-0.519951	-1.136514	0.793688
O	0.127745	-2.17939	0.81794
O	-1.605456	-0.982339	1.385459
C	-0.385777	1.312592	0.661304
H	-1.458914	1.50146	0.692957
H	0.007433	1.320089	1.680192
H	0.123251	2.114215	0.11801
H	2.757283	0.0	0.0
