16

C	-0.425034	0.036333	-1.413706
C	0.0	0.0	0.0
Br	-2.671132	-0.039336	-1.476052
H	1.094709	0.0	0.0
H	-0.278598	-0.90482	-1.928955
N	0.013942	1.122936	-2.127734
H	-0.121492	2.012516	-1.673781
H	-0.293592	1.13609	-3.087242
N	-0.363941	-1.278016	0.603972
O	-0.625571	-1.305108	1.814169
O	-0.269241	-2.292441	-0.098705
C	-0.387809	1.177966	0.858805
H	0.055264	1.053859	1.845879
H	0.045099	2.088714	0.43313
H	-1.470656	1.283631	0.949635
H	2.486778	0.0	0.0
