16

C	-0.473191	0.114584	-1.426891
C	0.0	0.0	0.0
Br	0.238286	-1.436713	-2.532185
H	1.089809	0.0	0.0
H	0.089715	0.939652	-1.866373
N	-1.86867	0.310756	-1.597179
H	-2.094356	0.424194	-2.577431
H	-2.353378	-0.502046	-1.236873
N	-0.517828	-1.171636	0.707419
O	-0.066535	-1.383368	1.836688
O	-1.369266	-1.89849	0.164087
C	-0.354091	1.246016	0.80206
H	0.075047	2.11356	0.294028
H	-1.433251	1.385848	0.902658
H	0.118681	1.16846	1.781962
H	2.64063	0.0	0.0
