16

C	-0.30752	-0.091427	-1.487944
C	0.0	0.0	0.0
Br	-0.419913	1.896761	-2.284439
H	1.092038	0.0	0.0
H	-1.31575	-0.395393	-1.756459
N	0.685903	-0.84883	-2.058585
H	1.622095	-0.636031	-1.685147
H	0.637908	-0.968143	-3.058944
N	-0.44664	-1.289078	0.619795
O	-1.369793	-1.923202	0.095764
O	0.108731	-1.622209	1.664566
C	-0.575532	1.131854	0.819894
H	-1.65476	1.237593	0.672911
H	-0.086593	2.062597	0.539408
H	-0.364953	0.934778	1.873041
H	2.803458	0.0	0.0
