16

C	-0.237894	0.057886	-1.493183
C	0.0	0.0	0.0
Br	-2.158824	0.35315	-1.938069
H	1.096036	0.0	0.0
H	-0.019094	-0.918472	-1.918753
N	0.563843	1.053935	-2.162555
H	0.334486	1.968081	-1.786117
H	1.523836	0.852863	-1.851667
N	-0.433409	-1.278003	0.57158
O	-0.828832	-1.295812	1.744628
O	-0.301204	-2.296463	-0.117616
C	-0.472444	1.171604	0.822165
H	0.001679	1.139793	1.803486
H	-0.1626	2.098916	0.334736
H	-1.556669	1.178643	0.947657
H	2.62822	0.0	0.0
