16

C	-0.261057	0.083745	-1.476576
C	0.0	0.0	0.0
Br	-2.21047	0.521393	-1.898088
H	1.096802	0.0	0.0
H	-0.179663	-0.901946	-1.933359
N	0.581824	1.100328	-2.013847
H	1.501204	0.986765	-1.56305
H	0.683771	0.97927	-3.013317
N	-0.431275	-1.27958	0.565335
O	-0.353735	-2.290461	-0.142181
O	-0.76251	-1.30698	1.756217
C	-0.451053	1.181611	0.822194
H	-1.525119	1.158128	1.014451
H	0.085087	1.192327	1.772078
H	-0.203381	2.087789	0.266586
H	2.608569	0.0	0.0
