16

C	-0.476349	0.049245	-1.43005
C	0.0	0.0	0.0
Br	0.306899	-1.498966	-2.487775
H	1.090241	0.0	0.0
H	0.046559	0.885812	-1.897346
N	-1.880457	0.17418	-1.604978
H	-2.110898	0.234204	-2.589476
H	-2.323763	-0.647464	-1.212569
N	-0.483658	-1.164054	0.743981
O	-0.02108	-1.325737	1.877763
O	-1.30445	-1.939174	0.225228
C	-0.380774	1.263569	0.758565
H	-1.464008	1.39699	0.824814
H	0.056301	2.120823	0.238925
H	0.063654	1.217232	1.753721
H	2.63247	0.0	0.0
