15
Coordinates from ORCA-job run
  C   1.15974203324996     -0.55418296619638     -0.18097993149116
  C   -0.27724543234741     -0.06151275535375     -0.38900859554595
  Cl  1.32630084686699     -2.29740861454273     -0.55972385829503
  H   -0.53851446546332     -0.34000263213728     -1.41675542327164
  H   1.82866614934437     -0.03805373072359     -0.87412148263158
  C   1.62253784043212     -0.30334571677475      1.18221161939209
  N   1.96348765597359     -0.06424613433822      2.28029916081413
  C   -0.30698595585793      1.46104474656006     -0.26358691813550
  H   0.39615270385613      1.93841259934907     -0.95185883917362
  H   -1.30689223254448      1.83466119653019     -0.49583487827436
  H   -0.06006797750726      1.77689363737964      0.75369128484404
  C   -1.25972730420197     -0.71876784733351      0.57271405406150
  H   -2.27385062075162     -0.37290292898106      0.35961981221336
  H   -1.24926940549755     -1.80595405429374      0.48367207253984
  H   -1.02533383555163     -0.45463479914396      1.60766192295389
