15
Coordinates from ORCA-job run
  C   1.00941164258012     -0.74070411784269      0.37966036239730
  C   -0.20610870334080     -0.03315479524315     -0.23577419581051
  Cl  0.94127085837713     -0.78825885844409      2.17106290982982
  H   -0.02819950910534     -0.08135174836724     -1.31882684940890
  H   1.02682216235941     -1.78509253768917      0.05739078131347
  C   2.25922750866647     -0.10701629883026     -0.03449743095175
  N   3.24184372563691      0.41676980564502     -0.40737816944564
  C   -0.29451680628732      1.43253769967930      0.17376208273606
  H   -1.11848369536660      1.91464009226188     -0.35709113034178
  H   0.62255784763764      1.97570915732426     -0.06553754838559
  H   -0.48213423891788      1.52830324575936      1.24501931690721
  C   -1.49326629024923     -0.79241323499152      0.07009830274182
  H   -1.72614992982220     -0.75816347942802      1.13610678901779
  H   -2.32780666921405     -0.34172911708561     -0.47171336779173
  H   -1.42346790295427     -1.84107581274807     -0.23228185280758
