15
Coordinates from ORCA-job run
  C   1.01522277511916     -0.74572807507432      0.31742514123934
  C   -0.21939755356303     -0.01691990247473     -0.23071587159460
  Cl  1.00305084019431     -0.86533179196785      2.10674006959952
  H   -0.07655894862320     -0.02292932607134     -1.32003483757800
  H   1.02374550601501     -1.77615372317574     -0.04746501011406
  C   2.25250820744829     -0.09584937263979     -0.10898082467279
  N   3.23908035785270      0.41665372437242     -0.48724358595321
  C   -0.29462941667326      1.43177004354244      0.23775823622919
  H   -1.13607268319661      1.93294952098205     -0.24595355810145
  H   -0.44611704326427      1.48568120602713      1.31766111645052
  H   0.61386970138750      1.98518531499067     -0.01095834883971
  C   -1.49616414874760     -0.78900268664973      0.08672720632355
  H   -1.43522447841914     -1.82585972415329     -0.25560992315269
  H   -2.34739220115183     -0.32043838676939     -0.41227397019443
  H   -1.69592091437803     -0.79402682093852      1.15992416035882
