15
Coordinates from ORCA-job run
  C   0.91938233487372     -0.71312728367200      0.77351758153985
  C   -0.44017570026440     -0.04145717683821      0.54759538590272
  Cl  1.68215145969942     -0.17161148661454      2.30171868069779
  H   -1.02105817055146     -0.23750595695176      1.45653363489117
  H   0.78398006240273     -1.79251656172826      0.87885526773996
  C   1.83275466836535     -0.46950227804166     -0.34076506484522
  N   2.52727288767135     -0.26888763247265     -1.26634664822636
  C   -1.13547591957746     -0.70579146784695     -0.63978575920059
  H   -1.23439233455348     -1.78579249007961     -0.49891647774132
  H   -2.13890982261831     -0.29211678629186     -0.76338978203446
  H   -0.58456498413027     -0.52924387315370     -1.56765379246020
  C   -0.31494805371799      1.46428262380627      0.34862238300889
  H   0.17778782809190      1.94599762747619      1.19442746142948
  H   -1.30754657656475      1.90745848737443      0.23978003556895
  H   0.25474232087364      1.68981425503433     -0.55719290627067
