15
Coordinates from ORCA-job run
  C   -0.74855647675097     -0.45444875850184      0.19357953051306
  C   0.50344177015238      0.04442006643999     -0.56501767335895
  Cl  -1.22133779352123     -2.06777976005469     -0.50959262899877
  H   0.21750999332047      0.05046772697114     -1.62991860546443
  C   -0.41574791900843     -0.68020748029795      1.60170687595973
  N   -0.15150333162686     -0.86624307059313      2.73040090702455
  N   -1.79844172440862      0.51191072101737      0.09150913356922
  H   -2.12403235027936      0.55697979237853     -0.86835297019232
  H   -2.58272566144956      0.26470919252500      0.68285549047279
  N   1.58327621394884     -0.89280826412842     -0.40345265448505
  H   2.10339482687881     -0.65133873657065      0.43235993892474
  H   2.20619893893493     -0.88427201222917     -1.19813312035595
  N   0.83200518736249      1.34506608967135     -0.00798730916856
  H   0.02228788077338      1.95257496820508     -0.00115622368113
  H   1.57523044567373      1.77196952516739     -0.54680069075893
