15
Coordinates from ORCA-job run
  C   -0.74188234359475     -0.45105426480668      0.23926599375186
  C   0.42934983048214      0.15956599368704     -0.56264234014628
  Cl  -1.02601563603055     -2.13694740316779     -0.51049201904823
  H   0.11296157734921      0.11920727778526     -1.61687826161790
  C   -0.36264372856043     -0.70944692101361      1.63216254546085
  N   -0.10076029942230     -0.86903736603602      2.76573962995553
  N   -1.88328975769468      0.36720536908122      0.20002201723017
  H   -2.02517449068676      0.79287318129637     -0.70494187581537
  H   -2.71598108379270     -0.10100873639643      0.52981006099730
  N   1.63034513021169     -0.61186582978697     -0.28024663366964
  H   1.54575011521510     -1.56276066972783     -0.61999727734623
  H   2.41883963678638     -0.18076815781102     -0.74632017341167
  N   0.56618288882126      1.55211319623194     -0.21445386569845
  H   0.92682654146304      1.63079124275410      0.73085141851244
  H   1.22249161945336      2.00113308791044     -0.84187921915438
