15
Coordinates from ORCA-job run
  C   -0.69336333263228     -0.43298647897339      0.18744430309908
  C   0.64699455607708      0.27017266243162     -0.10002480330124
  Cl  -1.01582414522307     -1.68494089794898     -1.04645962621917
  H   0.77163534935365      0.97583668390712      0.74073242316274
  C   -0.60823186537959     -1.11205421083933      1.49158852016115
  N   -0.62675522040438     -1.56560387688257      2.57550151369862
  N   -1.76955166191565      0.53813721277034      0.12028174988750
  H   -1.69282564515733      1.16895390523305      0.91314434611261
  H   -2.66562101472440      0.06755071079884      0.18250346041132
  N   0.56277133454714      0.90804034104910     -1.39854847082244
  H   1.31141036308903      1.58200944087884     -1.49917995759830
  H   -0.32802516952847      1.38316176590188     -1.49264805487322
  N   1.71488905374769     -0.69225130795734      0.00382650062432
  H   2.59373879556577     -0.23536727230213      0.20733301904592
  H   1.79975860258481     -1.17165867806706     -0.88549492338887
