15
Coordinates from ORCA-job run
  C   -0.73879472546144     -0.46892296314875      0.19629060771264
  C   0.50297130846355      0.05105345015317     -0.56491879931149
  Cl  -1.17519921322556     -2.09803789602141     -0.49530100211840
  H   0.21843122049576      0.04152602240513     -1.63019999733004
  C   -0.40285590318642     -0.67749428012431      1.60621594402672
  N   -0.13648225270566     -0.84970517053512      2.73661793311402
  N   -1.80935130365822      0.47308861064411      0.08543953501771
  H   -2.13481376885228      0.50338236778724     -0.87506141106485
  H   -2.58872696840503      0.21389992691771      0.67818660545644
  N   1.60323602174878     -0.86036561472816     -0.39401589563936
  H   2.22674358603609     -0.84471431030105     -1.18815330367322
  H   2.11656321726734     -0.60071887558740      0.44053577160680
  N   0.80180375673262      1.36328870241787     -0.01850358675810
  H   -0.02013586604402      1.95411995729803     -0.02030950057421
  H   1.53861089079449      1.80060007282292     -0.55782290046465
