15
Coordinates from ORCA-job run
  C   -0.78453752750205     -0.42921932406062      0.31988393542038
  C   0.51108077583342      0.26316451116654     -0.18461393681140
  Cl  -1.32879062294119     -1.60472267092186     -0.93514289941075
  H   0.75581151333965      0.97392929263407      0.62253583087491
  C   -0.47637692538157     -1.18458616130920      1.53804480015349
  N   -0.16115714564005     -1.74113927232732      2.52339311812535
  N   -1.84895217931001      0.49668025098099      0.57598105390741
  H   -1.81245171743839      1.20314613419137     -0.15323877695150
  H   -1.73836127777989      0.92960670951732      1.48492038537227
  N   0.16561210290020      1.05182606579378     -1.34427641123864
  H   0.18716396106006      0.45257266468233     -2.16208579106455
  H   0.82614670015772      1.80632872041747     -1.47615679197825
  N   1.55292796134323     -0.70546306331045     -0.45989555092992
  H   1.74119268017208     -1.29180427798290      0.34625160766680
  H   2.40969170118678     -0.22031957947153     -0.69760057313561
