15
Coordinates from ORCA-job run
  C   -0.75718370549545     -0.57098278639301      0.26642472382700
  C   0.38296174462033      0.09497933528141     -0.54137758904065
  Cl  -0.98676781145295     -2.24567402570171     -0.34083477389545
  H   0.01577434830102      0.13331347115284     -1.57978128367115
  C   -0.36159768792716     -0.63055509353349      1.67978985879214
  N   -0.04167865522157     -0.61085724838539      2.80923444467836
  N   -2.02503450407119      0.10991094377418      0.16259917691477
  H   -2.37393587765500      0.01045026971753     -0.78503627480790
  H   -1.83933047441551      1.09451465935803      0.33437007687660
  N   1.62439903174741     -0.63084206018845     -0.35851113134682
  H   2.36592496839845     -0.17222189351101     -0.87362504958610
  H   1.54898943153547     -1.58387516843608     -0.69228337941699
  N   0.48541147314599      1.45666333450420     -0.05764737218752
  H   1.10511802747081      1.47275200244195      0.74617861373652
  H   0.85894969101934      2.07142425991900     -0.76850004087280
