15
Coordinates from ORCA-job run
  C   -0.72033508063605     -0.40439705749506      0.33413875633125
  C   0.59464038787704      0.33963644278436      0.03878073036959
  Cl  -1.03512191477787     -1.52961516325415     -1.13542730970838
  H   0.76949145933790      0.94813236498800      0.93166065300703
  C   -0.57715290950554     -1.30610432897090      1.47695443097646
  N   -0.46131101010112     -1.99730251148730      2.41896289201549
  N   -1.75023413450659      0.52221132375111      0.55067458481261
  H   -2.65525149681825      0.09262792785569      0.68411618463197
  H   -1.75176264655024      1.20978855850891     -0.19368696529746
  N   0.33158434830767      1.26157908112751     -1.06075796884321
  H   1.03173014823814      1.99214373351762     -1.07707683024681
  H   0.36806215571596      0.76507069105083     -1.94376623037192
  N   1.67805751160690     -0.60754137956252     -0.06241221287797
  H   2.57046470601942     -0.13172095767033     -0.05097287482648
  H   1.60713847579263     -1.15650872514375     -0.91018783997217
