15
Coordinates from ORCA-job run
  C   -0.63169410942758     -0.61984854103741      0.46142484016136
  C   0.71210229512600     -0.06306801677420     -0.07126892023089
  Cl  -0.60257132823139     -2.42580835637808      0.21345441642587
  H   1.52057224444893     -0.55723219386476      0.48450676809594
  C   -0.70050426089579     -0.39375832597902      1.90623621000066
  N   -0.74392303494851     -0.21725617189459      3.06607784046567
  N   -1.78362150056486     -0.07318524484609     -0.18127483931492
  H   -2.05525115950779      0.79908662389141      0.25297197416380
  H   -1.57662587715581      0.06540318816992     -1.16464134880260
  N   0.73076482243548      1.34770246825984      0.23847742590155
  H   0.35299757633242      1.87746593279839     -0.53661249646169
  H   1.66096589135924      1.67706260395268      0.45252916148360
  N   0.74924730556471     -0.28380178743896     -1.51098934274320
  H   1.58715501813792      0.14261616932410     -1.88813716295631
  H   0.77938611732700     -1.27437834818324     -1.72375452618884
