15
Coordinates from ORCA-job run
  C   -0.59043924965680     -0.53793399518850      0.45824831938303
  C   0.76363916494133      0.01679080153009     -0.02791661762227
  Cl  -0.51170930603639     -2.38790898121798      0.23228758552115
  H   1.55212122707979     -0.51235996089239      0.52053650676742
  C   -0.75456556711500     -0.33801904550889      1.89808839910581
  N   -0.90771673876023     -0.20487918458481      3.05447729923083
  N   -1.62967279245973      0.07506358422072     -0.26294269240876
  H   -1.46001794610363     -0.02726570642166     -1.25682113235234
  H   -2.54857773343807     -0.25043413308606      0.00370012898483
  N   0.80962924261434      1.40146530438600      0.35295832675190
  H   1.73655014415031      1.78939436887744      0.23994775725359
  H   0.13633141789761      1.93513724353221     -0.18228606027636
  N   0.81795192061821     -0.19188558308880     -1.47701171655369
  H   1.03821983235237     -1.15849952438383     -1.68983495464503
  H   1.55025638391588      0.39033481182645     -1.86343114914010
