15
Coordinates from ORCA-job run
  C   -0.52560454960342     -0.50835240710147      0.47785127428971
  C   0.78651098815063     -0.02146465064155     -0.19879380330110
  Cl  -0.54408973339615     -2.36229451365215      0.33644018882468
  H   1.61260840901740     -0.57763187754575      0.26183879624654
  C   -0.47976336348135     -0.23044581176204      1.91383519081933
  N   -0.39765674912423      0.02746554561773      3.05689748403019
  N   -1.62515816259217      0.12526151924267     -0.12675467299896
  H   -2.51716147569171     -0.17725427457909      0.23941535339851
  H   -1.56363742441559      0.01445489629547     -1.13301072243464
  N   1.02224596173340      1.38746786557399     -0.00393856994910
  H   1.31134657369822      1.57812887014927      0.94687160283693
  H   0.16878336839005      1.90071832554737     -0.19371851337423
  N   0.63425719952471     -0.24884691484825     -1.62561834971309
  H   0.78865563681729     -1.22290408463743     -1.85324890654789
  H   1.32966332097293      0.31569751234122     -2.09706635212688
