15
Coordinates from ORCA-job run
  C   -0.74495071415427     -0.35093353863971      0.33839556567684
  C   0.58991751620380      0.29045278736623     -0.10956167378952
  Cl  -1.39882249367858     -1.36688438977658     -1.04801758648575
  H   0.89433706974426      0.88709161750356      0.76290807442500
  C   -0.50819502204269     -1.28566106570397      1.44256847410484
  N   -0.26265181065782     -2.01544747977998      2.32976119649276
  N   -1.61912229192708      0.68307962575238      0.74293620149201
  H   -2.54221495001175      0.33619203276849      0.96851232790577
  H   -1.65840080593312      1.37261028370016     -0.00061819735968
  N   0.29443421508445      1.21509823571925     -1.18005491675164
  H   0.29869609958015      0.70569288791512     -2.05690935607736
  H   0.98824157045641      1.94949855130065     -1.22293426661767
  N   1.54355363989170     -0.72785264310511     -0.50427303617203
  H   1.68925423787152     -1.40673601669823      0.23540309283337
  H   2.43492373957299     -0.28720088832226     -0.69711589967694
