15
Coordinates from ORCA-job run
  C   -0.64876844103389     -0.50063928658874      0.41994030958518
  C   0.76044043100813     -0.06669310109405     -0.03071532715983
  Cl  -0.77815557958934     -2.32564394383008      0.05472816766686
  H   1.48332179510306     -0.72172819737270      0.47009123550673
  C   -0.79340770953325     -0.39389154489093      1.87185521703577
  N   -0.93366981824163     -0.33292083227534      3.03584386801613
  N   -1.61036372369094      0.27821558468838     -0.24691102764850
  H   -1.44900383375167      0.23363776609738     -1.24637728812197
  H   -2.56067673305718      0.03731453811522     -0.00140108984621
  N   0.96193637974234      1.27083668920168      0.45334743147605
  H   0.35582830552838      1.91658378067916     -0.03655464056354
  H   1.92730743053513      1.55853684727535      0.36623965692255
  N   0.79418254707742     -0.16928076956791     -1.49207309575980
  H   1.59055532764372      0.35157188260509     -1.83712668986739
  H   0.90147362225971     -1.13589941304250     -1.77888672724202
