15
Coordinates from ORCA-job run
  C   -0.61631239404175     -0.53105649557427      0.43110688581673
  C   0.76395716301224     -0.01634830467797     -0.02417295174844
  Cl  -0.61944611054117     -2.37041584882944      0.12077562112757
  H   1.52522548399512     -0.60548670926908      0.50108161753558
  C   -0.78019057366778     -0.38987399477356      1.87797343452129
  N   -0.93420547384872     -0.30308504934331      3.03863622038005
  N   -1.62307000933117      0.16083107463434     -0.26485220510903
  H   -1.45298525251523      0.09588884869804     -1.26181174525579
  H   -2.55698655938319     -0.13443695521806     -0.01583759298260
  N   0.87009875453246      1.34587012741273      0.42021272647635
  H   0.22373751710901      1.93274305668967     -0.09187260989500
  H   1.81387095335869      1.69672627157894      0.32691561622153
  N   0.81632743652639     -0.16031455378426     -1.48137676370183
  H   0.99293033031823     -1.12531180445032     -1.73780256465905
  H   1.57704873447687      0.40427033690655     -1.83797568872738
