15
Coordinates from ORCA-job run
  C   -0.52247091564084     -0.50916949271239      0.48100465177044
  C   0.78284252179906     -0.02509925920194     -0.21108370466212
  Cl  -0.55674881788258     -2.36108818231228      0.32329462043052
  H   1.61200121706079     -0.59077632862242      0.23239265768796
  C   -0.45192660801165     -0.24396511766806      1.91841172754069
  N   -0.34913492479285      0.00387991498819      3.06199938114634
  N   -1.62631476360079      0.13787372518431     -0.10162886859350
  H   -1.57987317301026      0.03442666539057     -1.10955170724799
  H   -2.51508114721344     -0.16202497621127      0.27470117584692
  N   1.03078799982447      1.38052000091902     -0.00697832513506
  H   1.33719832431728      1.56022904244329      0.94056495179901
  H   0.17727995642202      1.90057543881105     -0.17710003404794
  N   0.60772702175248     -0.23874098445446     -1.63742299112546
  H   0.75415979139809     -1.21142766197901     -1.87630003648715
  H   1.29855351757824      0.32678721542538     -2.11430349892266
