15
Coordinates from ORCA-job run
  C   -0.69517852844525     -0.41897555002608      0.17748953264519
  C   0.53881040901922      0.12527337984884     -0.58594192974978
  Cl  -1.02532096861885     -2.13218530112141     -0.42510136358107
  H   0.22063346815431      0.18740499176856     -1.64156739088044
  C   -0.40291706973607     -0.52220213777563      1.60684263115213
  N   -0.18510064457676     -0.55497952129884      2.76025021039255
  N   -1.80393579602767      0.44647287540195     -0.03007916547749
  H   -2.06933478307225      0.44833030974053     -1.00852582840714
  H   -2.60393844043070      0.17575784911299      0.52828937938394
  N   1.67500765211138     -0.73109626130836     -0.34566240452574
  H   2.49091950367499     -0.28446287459798     -0.74557134452136
  H   1.55428572144938     -1.63834150717198     -0.77485685358963
  N   0.91747377498055      1.44660858503675     -0.15141987871604
  H   1.27271862409924      1.38914115583388      0.79781274801354
  H   0.11587707741850      2.06425400655678     -0.16195834213864
