15
Coordinates from ORCA-job run
  C   -0.72575116537101     -0.47622036024200      0.23925667055236
  C   0.42168087043324      0.17827235773380     -0.56267670051886
  Cl  -0.95814391904807     -2.16534398602600     -0.52255484602079
  H   0.10149826802579      0.13560715739319     -1.61572658944456
  C   -0.33250866584382     -0.73430205777853      1.62821838113967
  N   -0.05935782160696     -0.89604952770804      2.75888964471822
  N   -1.89284656468261      0.30487535180674      0.21059627758443
  H   -2.70889527610769     -0.19214432094703      0.53976827493911
  H   -2.05148424385680      0.73321789964813     -0.69037335642213
  N   1.64853679746716     -0.55501842939673     -0.29120524455845
  H   1.59128274569884     -1.50789258056969     -0.63097620659003
  H   2.41959200834151     -0.09902156072024     -0.76310741060977
  N   0.51454627745544      1.57211478782048     -0.20470935313982
  H   1.15113528246006      2.04701669983643     -0.83363810398521
  H   0.88071540663493      1.65488856914947      0.73823856235582
