15
Coordinates from ORCA-job run
  C   -0.74165237150059     -0.52278710309692      0.27805612725201
  C   0.48531639526564      0.32491404999594     -0.15781574527986
  Cl  -1.02574410754995     -1.79630048949597     -0.96863094342501
  H   0.57342694867245      1.08108667845383      0.64031625003158
  C   -0.42942652124234     -1.19575065597084      1.54229156083613
  N   -0.11994562660912     -1.67727395260911      2.56821152349167
  N   -1.93471211542038      0.25822597706808      0.42135128492060
  H   -1.92980506215515      0.95259471479279     -0.32022717941331
  H   -1.96441664616687      0.71223791097809      1.32595031952370
  N   0.12471953080365      1.03293700323795     -1.36394764137754
  H   0.68659927530156      1.86688263123390     -1.47350606946613
  H   0.28606913641539      0.42380142333485     -2.15852938429902
  N   1.66300723077426     -0.50122522803406     -0.32755654163728
  H   2.46616159926284      0.08828170882664     -0.50995999058091
  H   1.86040233414859     -1.04762466871516      0.50399642942337
