15
Coordinates from ORCA-job run
  C   -0.61317111645545     -0.59984258019214      0.48157715040142
  C   0.72784829004534     -0.05551022476944     -0.06544331697102
  Cl  -0.51076901946756     -2.43746407395203      0.36740441811058
  H   1.53665614128130     -0.53602672969852      0.49989485517704
  C   -0.72255712790536     -0.29165199484437      1.90696533899300
  N   -0.82282108724123     -0.05146882731417      3.05177666465722
  N   -1.73954012568994     -0.12315705671867     -0.23043879384367
  H   -2.25346348923534      0.59990044473069      0.24716098417305
  H   -1.49015644015589      0.11856446211809     -1.18063287286674
  N   0.75789063582763      1.36004462308502      0.21316977052586
  H   0.30365551258390      1.86884872220062     -0.53489006452716
  H   1.70428782243981      1.69883823873725      0.31660244670947
  N   0.75499393601212     -0.32030736789323     -1.49873715780026
  H   1.59328674069058      0.08636302707249     -1.89584437385072
  H   0.77385932727008     -1.31813066256155     -1.67856504888806
