15
Coordinates from ORCA-job run
  C   -0.65903280154509     -0.41616051282291      0.16088329628864
  C   0.64508264970664      0.36767769325277     -0.16076411666330
  Cl  -0.97067356483606     -1.66365113895557     -1.07521206921454
  H   0.72961523737816      1.08987490702121      0.67398199384146
  C   -0.46847835960808     -1.11522408476454      1.44480727997339
  N   -0.30179240540289     -1.59226767918652      2.50643975326522
  N   -1.77638850619198      0.50548678768299      0.16303260582129
  H   -1.67480020307026      1.14931499706496      0.94215516207776
  H   -2.64948381464426      0.00331798952123      0.27975592290788
  N   0.49719261393386      0.96475577729209     -1.46209374061399
  H   -0.36318895906505      1.49378745246643     -1.51584188170552
  H   1.29243003801615      1.56452056351466     -1.63735500621983
  N   1.85644816353850     -0.40468505116777     -0.16852868082709
  H   1.79716651654327     -1.12030958338567     -0.88285278457152
  H   2.04690339524711     -0.82643811753336      0.73159226564015
