15
Coordinates from ORCA-job run
  C   -0.75759031507907     -0.50492908128829      0.22814493843344
  C   0.39130252134233      0.04675763646649     -0.65388688076573
  Cl  -1.22934121185166     -2.13464442803634     -0.47196753516047
  H   0.09230074263971     -0.14111197440839     -1.68963429820073
  C   -0.25954962397106     -0.78448220069475      1.58260820030629
  N   0.17036328254137     -0.94190740954889      2.66438537022910
  N   -1.83338867329668      0.41148386287282      0.31098460330356
  H   -2.00652719088488      0.86919276899145     -0.57335343238845
  H   -2.67289984860260     -0.01502476843894      0.67965896971889
  N   1.57543106010543     -0.74956652738470     -0.40973416301329
  H   2.03457055452768     -0.46604631051018      0.44799827111669
  H   2.23133360982526     -0.66474168519419     -1.17456661160052
  N   0.45521480895217      1.49179101103128     -0.47871317447938
  H   1.27061121658381      1.84703681350829     -0.96447281152358
  H   0.53816906716820      1.73519229263434      0.50254855402418
