15
Coordinates from ORCA-job run
  C   -0.55939494721251     -0.50710176414197      0.44002019691834
  C   0.80463392486387      0.00317329024788     -0.10481742521953
  Cl  -0.49270547180355     -2.36436036951311      0.39462513739262
  H   1.59055736769052     -0.49469780438593      0.47701814075438
  C   -0.69277537588024     -0.15898924623080      1.85508010614302
  N   -0.75490032082888      0.15679780871675      2.98478716106430
  N   -1.60255858221037      0.04950451065004     -0.32065760727834
  H   -2.51960627599695     -0.27524722759298     -0.04682770109175
  H   -1.41688908239844     -0.10628836548738     -1.30549583431632
  N   0.96314005852725      1.42841407546245      0.04218245567683
  H   0.11930525140386      1.89518626268950     -0.27074036839140
  H   1.13286177251260      1.67657738540616      1.00840549570958
  N   0.82972159272048     -0.29865273686105     -1.52578200386063
  H   1.04697647437582     -1.27482047223775     -1.68260412986559
  H   1.55363361423653      0.27250465327817     -1.94319362363553
