15
Coordinates from ORCA-job run
  C   -0.70995977306465     -0.44730894505259      0.20200275963265
  C   0.41474501115612      0.16618742420913     -0.68279684177791
  Cl  -1.05049045541499     -2.12511936952699     -0.51324622681900
  H   0.06262685611532      0.05088650989180     -1.71448798931667
  C   -0.20336963724429     -0.70852875181198      1.55400345524528
  N   0.25608616707798     -0.86277533054495      2.62453344749615
  N   -1.84236182541998      0.38533973390064      0.26062673914890
  H   -2.66086778607392     -0.07516198794108      0.63449584143270
  H   -2.03316246287262      0.83981482729674     -0.62134498626586
  N   1.69234135243146     -0.50485285502758     -0.59968126843713
  H   2.03877398960236     -0.50768179630398      0.35371519971802
  H   1.63465444824402     -1.46034243334076     -0.92991470672710
  N   0.49986185549621      1.58009489457004     -0.38335689077643
  H   0.54613537541993      1.74046617033367      0.61658039895266
  H   1.35498688454707      1.92898190934790     -0.80112893150625
