15
Coordinates from ORCA-job run
  C   -0.67566444614772     -0.38330617456546      0.17440940218887
  C   0.65893313983127      0.33550932032442     -0.17466772011280
  Cl  -1.08147834774132     -1.60310059512069     -1.06171296276549
  H   0.80017293765047      1.04600759228281      0.66235833937192
  C   -0.48906340984081     -1.10166963230469      1.44851982175784
  N   -0.32285712413793     -1.59526406942392      2.50255876766662
  N   -1.74343615614862      0.59436186695599      0.21117443132700
  H   -2.63823396055906      0.13723864420422      0.34633276962879
  H   -1.58944809559148      1.22641812621652      0.99128538224184
  N   0.50997570411158      0.94918349838087     -1.46814232249593
  H   1.33037008344841      1.50923309315326     -1.65857991968061
  H   -0.32310660418280      1.52240351667433     -1.49679801177407
  N   1.82830744836067     -0.49773438624989     -0.21746661097653
  H   1.71512246301954     -1.20361468809078     -0.93501302607985
  H   2.01940636792779     -0.93566611243700      0.67474165970237
