15
Coordinates from ORCA-job run
  C   -0.67628802336368     -0.44226415713815      0.18132979211336
  C   0.52319168242851      0.17340035485282     -0.59197238936834
  Cl  -0.96783660941656     -2.12143799876895     -0.52056077740739
  H   0.19389822874846      0.21124327150670     -1.64562414652180
  C   -0.32567146562100     -0.63880101932742      1.58761187798581
  N   -0.02815650382626     -0.81969911739941      2.70902079047380
  N   -1.81477844130210      0.40030035310208      0.06326585211177
  H   -2.11192564780773      0.45056841751525     -0.90485926860612
  H   -2.58922547514317      0.07599224076060      0.62923817773935
  N   1.75510265809797     -0.56282463020962     -0.54966039119095
  H   1.65375295281667     -1.48897413882722     -0.94156442170493
  H   2.07825329347873     -0.62850458813320      0.40934365422410
  N   0.78195284261761      1.45216254280505      0.02676216135691
  H   -0.03378166862307      2.04775204199008     -0.00651252107376
  H   1.56051217691562      1.89208642727139     -0.44681839013181
