15
Coordinates from ORCA-job run
  C   -0.73281437242439     -0.55126727197048      0.24493482701887
  C   0.36363374553805      0.12966745710586     -0.62980047267187
  Cl  -0.96129607633121     -2.23035575246962     -0.33526554009174
  H   -0.04436823866349      0.12974660184388     -1.64687748275517
  C   -0.22568796932215     -0.60217063202529      1.62435780763683
  N   0.27146734461896     -0.56460453608607      2.68825772915874
  N   -2.01648435849478      0.11006679544677      0.22291895810792
  H   -2.46353601025813     -0.07600699463522     -0.66835354544524
  H   -1.82737106490430      1.10730225475380      0.28296307798189
  N   1.65736825670103     -0.51490228967231     -0.66737117503973
  H   1.59418514892658     -1.44524829380734     -1.06187027222603
  H   2.04447376630465     -0.59258907066375      0.26765470868960
  N   0.43283356475754      1.50463904071726     -0.16894781052313
  H   0.95010358838608      2.04636929654899     -0.85114469228484
  H   0.95849267516555      1.54735339491352      0.69954388244392
