15
Coordinates from ORCA-job run
  C   -0.55024666422460     -0.51657859091615      0.44129104349907
  C   0.80274147729785      0.00957088149974     -0.11603813493535
  Cl  -0.47160633432934     -2.37238034860269      0.37211786124918
  H   1.59974795665950     -0.49049972010909      0.44858061487284
  C   -0.66576498725552     -0.18641470434450      1.86222609598416
  N   -0.71370326530490      0.11493190280142      2.99654499846985
  N   -1.60740870117498      0.04236351531056     -0.29800158526196
  H   -1.43392378661780     -0.09910171272354     -1.28715300870668
  H   -2.51859531917700     -0.29154744905504     -0.01599649763738
  N   0.95428912591873      1.43401633183965      0.04646750059227
  H   1.13498789917256      1.67109251222097      1.01353163312990
  H   0.10306520128977      1.89877329739326     -0.24890699425192
  N   0.81033873952422     -0.27396613899730     -1.54115071187931
  H   1.03187598994257     -1.24659754187285     -1.71336809448489
  H   1.52520266827894      0.30733776555558     -1.96014472063979
