15
Coordinates from ORCA-job run
  C   -0.73479795892206     -0.47598582289525      0.19536059467331
  C   0.49821060967738      0.06135405236297     -0.56833143084948
  Cl  -1.16772860626449     -2.09764275142004     -0.51454590984472
  H   0.20521205854457      0.06528187982669     -1.63132183655415
  C   -0.38636537351264     -0.70120299520572      1.59968972797844
  N   -0.10925112124644     -0.88663336664436      2.72537633077411
  N   -1.81136678926189      0.46173217546071      0.10567516486760
  H   -2.14544406688987      0.50199126881987     -0.85142890258362
  H   -2.58399600303061      0.19065960175460      0.70185203693746
  N   1.60443010874654     -0.84669705772870     -0.41870746867410
  H   2.22200150954617     -0.81602268967595     -1.21708782142845
  H   2.12278199385514     -0.59550192327801      0.41537490609761
  N   0.79427946267201      1.36753187440207     -0.00595658877569
  H   1.52199635692633      1.81780457538155     -0.54701998610915
  H   -0.03196218084014      1.95233117883957      0.00907118349084
