15
Coordinates from ORCA-job run
  C   -0.50107869867097     -0.62907419585147      0.38358610935717
  C   0.81192644518901      0.00220457348550     -0.16759371576093
  Cl  -0.42993532137262     -2.40720065458670      0.17044614682610
  H   1.64825129163208     -0.47381116944622      0.36164113362786
  C   -0.58401662926447     -0.37605310813065      1.83233098307348
  N   -0.63576683103293     -0.09514453662277      2.97318613172285
  N   -1.60204008382338     -0.10561470233776     -0.37430652642910
  H   -1.55248572870995      0.90769489740339     -0.31432913114711
  H   -2.48895560098572     -0.43667092549172     -0.01495968276895
  N   0.68652553879014      1.43461382491611      0.06507714333313
  H   1.34588186398828      1.90012189430445     -0.54620829440632
  H   0.90782359856578      1.67187204024780      1.02503437630715
  N   0.99665248767396     -0.19796333537710     -1.58036273011358
  H   1.28685476632661     -1.14946541532020     -1.76306258023666
  H   0.11036290169418     -0.04550918719267     -2.05047936338508
