15
Coordinates from ORCA-job run
  C   -0.52368991230758     -0.61152497828821      0.37796418901018
  C   0.88824044758170     -0.15843872526353     -0.08035039220744
  Cl  -0.65343309845810     -2.38892941627642      0.31923595404388
  H   1.60960993388745     -0.65300599371043      0.57889847939812
  C   -0.71641711805639     -0.20679481475388      1.78185396161962
  N   -0.86330439443415      0.19136608661021      2.87820878865305
  N   -1.52743593611420     -0.04584217002224     -0.51103796128130
  H   -2.39320717156118     -0.56588968779179     -0.42912361999733
  H   -1.71760921004441      0.91260628829945     -0.23923790789324
  N   1.08767344303935      1.27614055519008      0.05945551668017
  H   1.01043499218317      1.60018028277729      1.01635840671276
  H   0.46116052012437      1.79750084862638     -0.54083359291337
  N   1.08472046255741     -0.61838597720485     -1.42765108180936
  H   1.94423888010260     -0.21790836008514     -1.78144927746992
  H   0.30901816149996     -0.31007393810693     -2.00229146254583
