15
Coordinates from ORCA-job run
  C   -0.71590228698281     -0.53776355433103      0.21458411227418
  C   0.47699807835985      0.04014025786058     -0.59754775532651
  Cl  -0.99457903209851     -2.22919692048649     -0.36115369619439
  H   0.13806312791397      0.02605079254873     -1.64854039589524
  C   -0.36095262059788     -0.57093980894190      1.63616255482863
  N   -0.08440257519130     -0.51067491917469      2.77575230278873
  N   -1.95764973506872      0.17203452347791      0.06449358945285
  H   -1.95338506616781      1.03706458533229      0.58873709574633
  H   -2.15780505457202      0.34586851284096     -0.91349388470189
  N   1.66694338541796     -0.72997348025190     -0.32704312499636
  H   1.58518087916028     -1.67508850134812     -0.67618918974260
  H   2.44982420290815     -0.27461857156145     -0.77935778420732
  N   0.79403138844780      1.40468194024567     -0.25563684084128
  H   1.08632196415787      1.46592765234781      0.71344679375885
  H   0.02731334431318      2.03748749144165     -0.43421377694399
