18

C	-0.19935	-0.08268	-1.508871
C	0.0	0.0	0.0
Cl	-1.91691	-0.639586	-1.97916
H	1.100598	0.0	0.0
C	-0.106767	1.245522	-2.148206
N	0.021735	2.292709	-2.668939
N	0.749008	-1.018651	-2.023765
H	1.6496	-0.841735	-1.541803
H	0.865326	-0.911071	-3.021788
C	-0.441569	-1.280004	0.692722
H	-1.526072	-1.311332	0.841568
H	0.051778	-1.335273	1.667523
H	-0.14077	-2.15282	0.112221
C	-0.574144	1.240488	0.651745
H	-1.660286	1.299744	0.522469
H	-0.123612	2.151693	0.254277
H	-0.361142	1.210211	1.723057
H	2.849653	0.0	0.0
