18

C	-0.198673	-0.070114	-1.509312
C	0.0	0.0	0.0
Cl	-1.926099	-0.606828	-1.972603
H	1.100578	0.0	0.0
C	-0.097292	1.262011	-2.136432
N	0.039063	2.308006	-2.657277
N	0.742516	-1.007342	-2.034724
H	0.868772	-0.887755	-3.032561
H	1.642998	-0.844009	-1.545496
C	-0.443285	-1.284622	0.68381
H	-1.528678	-1.317424	0.82451
H	-0.137589	-2.155139	0.101744
H	0.042421	-1.343365	1.662738
C	-0.574035	1.237968	0.656141
H	-0.365684	1.202787	1.7299
H	-1.660919	1.298829	0.521402
H	-0.120178	2.150973	0.2631
H	2.844299	0.0	0.0
