18

C	-0.494474	-0.02576	-1.441685
C	0.0	0.0	0.0
Cl	0.319452	1.345822	-2.386721
H	1.094644	0.0	0.0
C	-0.082739	-1.248867	-2.146879
N	0.161049	-2.233501	-2.739782
N	-1.922733	0.072084	-1.539463
H	-2.220957	0.926793	-1.084386
H	-2.204595	0.112888	-2.512917
C	-0.437273	-1.265599	0.731438
H	-0.012132	-2.155817	0.26125
H	-0.040573	-1.224913	1.750639
H	-1.52657	-1.370246	0.77385
C	-0.461685	1.247423	0.74252
H	0.109402	1.309836	1.673459
H	-0.247257	2.157395	0.177153
H	-1.52835	1.222634	1.003795
H	2.890925	0.0	0.0
