18

C	-0.505991	0.010576	-1.435645
C	0.0	0.0	0.0
Cl	0.118479	1.452331	-2.339996
H	1.096139	0.0	0.0
C	0.005207	-1.162922	-2.176741
N	0.292781	-2.147809	-2.751067
N	-1.954965	0.076897	-1.504253
H	-2.331022	-0.678402	-0.943107
H	-2.260488	-0.053673	-2.461963
C	-0.405559	-1.289964	0.713786
H	0.167538	-1.346809	1.642948
H	-1.471764	-1.329692	0.974068
H	-0.146348	-2.178724	0.132832
C	-0.466193	1.21937	0.782914
H	-1.550592	1.239086	0.927525
H	0.023978	1.200906	1.760583
H	-0.164551	2.142615	0.286808
H	2.889254	0.0	0.0
