18

C	-0.424	0.014351	-1.436547
C	0.0	0.0	0.0
Cl	-2.426124	0.239447	-1.510737
H	1.097336	0.0	0.0
C	-0.015007	1.221364	-2.156233
N	0.294332	2.193067	-2.738667
N	-0.076266	-1.118552	-2.16325
H	-0.336742	-1.973432	-1.694775
H	-0.40882	-1.100554	-3.116443
C	-0.410972	-1.284278	0.708203
H	-1.48567	-1.482742	0.62909
H	0.158664	-2.140657	0.33408
H	-0.151512	-1.193528	1.765917
C	-0.439405	1.236533	0.766572
H	-1.512021	1.233679	0.98226
H	-0.195393	2.152068	0.22127
H	0.119529	1.266092	1.706193
H	2.772086	0.0	0.0
