18

C	-0.203442	-0.078828	-1.512864
C	0.0	0.0	0.0
Cl	-1.907485	-0.622583	-1.954793
H	1.100078	0.0	0.0
C	-0.067337	1.250451	-2.132172
N	0.030975	2.314759	-2.618264
N	0.736077	-0.964238	-2.173038
H	1.655357	-0.720475	-1.76104
H	0.536264	-1.908673	-1.858217
C	-0.430192	-1.270775	0.716298
H	-0.078964	-2.168474	0.202593
H	0.02596	-1.277732	1.710423
H	-1.517239	-1.336966	0.824572
C	-0.572443	1.237589	0.662636
H	-0.140358	2.151213	0.248044
H	-0.33275	1.217493	1.730411
H	-1.663547	1.285679	0.557776
H	2.861122	0.0	0.0
