15
Coordinates from ORCA-job run
  C   -0.57540536447605     -0.38053843311650      0.39601607067835
  C   0.88157627513389      0.08358323448841      0.30355862879011
  F   -0.70956337564104     -1.43605350903532      1.19918085625177
  H   1.11424839530932      0.54281444892113      1.27582038016057
  N   -1.09782426847413     -0.73861952372947     -0.98505785468181
  O   -0.72386361349783     -1.82709126853804     -1.39395895465755
  O   -1.79555345444475      0.09122852308270     -1.54686792766627
  N   -1.48239297461315      0.71593595150586      0.92616984602774
  O   -1.03444067828277      1.85778117050562      0.92618321409638
  O   -2.58259966552732      0.34548213296839      1.30525945855378
  N   1.03619814693709      0.96028781922303     -0.84198624396558
  H   0.74299745804898      1.89765761923713     -0.60123258534491
  H   1.99554639232866      0.97369904617417     -1.16005997413323
  C   1.74256784598426     -1.09391541136838      0.15444654236503
  N   2.49050888121499     -1.99125180031874      0.04152854352495
