15
Coordinates from ORCA-job run
  C   -0.51265588245050     -0.43026520705999      0.45963862355744
  C   0.87064123456419      0.18944173769672      0.30352255523084
  F   -0.53570357404014     -1.32140856426761      1.45354202719945
  H   1.11557683614234      0.52144228977368      1.31898490824257
  N   -1.03278785102019     -1.10726800758961     -0.79121643096454
  O   -1.94808286018299     -1.89840184143612     -0.62195111658185
  O   -0.50337482193717     -0.78442393926880     -1.84935796603065
  N   -1.48614172930362      0.69233039956328      0.79527488387470
  O   -1.26158535466695      1.23156275356295      1.86736246743555
  O   -2.35597724785540      0.95346463214560     -0.02092138801132
  N   0.79558080832002      1.35651864327945     -0.54485772473284
  H   0.81766503736797      1.09717519583356     -1.52150683507716
  H   1.55586090125407      1.99206671322743     -0.34523141229176
  C   1.83993222482834     -0.85056892132701     -0.08216681959542
  N   2.64105227898004     -1.63966588413354     -0.42111577225501
