15
Coordinates from ORCA-job run
  C   -0.69639782010674      0.37915460515560      0.12519240295687
  C   0.83078309165554      0.39729607895097      0.12298366704733
  F   -1.17543081361163      1.61738771645176      0.05073574681227
  H   1.07785131349811      1.16964072305242      0.85955139348131
  N   -1.20789298512361     -0.24301731184788      1.41715927015736
  O   -0.98238409889631      0.43727924474650      2.40929970990054
  O   -1.75011127400102     -1.33741356949924      1.35261065402671
  N   -1.26880891246980     -0.43067238167159     -1.01608838552019
  O   -2.38770921043434     -0.11553637054428     -1.38924155202760
  O   -0.55955314866050     -1.33808202109339     -1.43544988394814
  N   1.27860020570777      0.82948354234341     -1.18218643356706
  H   1.39952134256128      0.03847834466051     -1.80142164892078
  H   2.15047735593012      1.33539407300314     -1.11243299493950
  C   1.39117800392537     -0.87478755357369      0.60869230776308
  N   1.89887695002576     -1.86360512013425      0.98859574677782
