15
Coordinates from ORCA-job run
  C   -0.61691949791347      0.33362699929375      0.16428016682205
  C   0.91809773805041      0.35403764852033      0.18574269222836
  F   -1.06657364110867      1.59223154620304      0.06069968162812
  H   1.16618278213307      1.08669259225140      0.96099123235308
  N   -1.23290583829065     -0.24923948726442      1.41923117511895
  O   -2.28122473495379     -0.86852939014166      1.29774840165852
  O   -0.63827783085550      0.03760217490980      2.45232450121677
  N   -1.13187160550044     -0.46550498550947     -1.00924754097325
  O   -1.85156204674985      0.10846000798096     -1.81139428981853
  O   -0.72978969006302     -1.62193956932664     -1.03891534347875
  N   1.49871448162287      0.78342585521951     -1.06411810552391
  H   1.14193051905717      1.68556765492798     -1.35087030199384
  H   1.37037667561476      0.10222227249360     -1.80127926991925
  C   1.48062151603090     -0.93332028023046      0.60021855393822
  N   1.97320117292621     -1.94433303932771      0.93558844674345
