15
Coordinates from ORCA-job run
  C   -0.69113693088283      0.28177200857871      0.13597637862611
  C   0.83165733761393      0.37867741904818      0.13572742053764
  F   -1.20469819207535      1.50849481059956     -0.02798166647067
  H   1.07428852318599      1.11046799491784      0.91795782360596
  N   -1.26616164948825     -0.26397930203562      1.42572207275270
  O   -0.56724942428726     -0.11699776070212      2.42316386718513
  O   -2.39951706394111     -0.72081095899850      1.36265864811252
  N   -1.17892702599820     -0.61413522406494     -0.97778232109961
  O   -1.86477143768377     -0.10841736354350     -1.84767172854102
  O   -0.80720302153285     -1.77476186287324     -0.87043331181628
  N   1.20583492752688      0.78161970571437     -1.21334756961439
  H   2.14147042131571      0.47442080180980     -1.43881791075197
  H   1.15509434172496      1.78719679546002     -1.31006913222461
  C   1.48013760972328     -0.88076692806231      0.50021403236069
  N   2.09118158479890     -1.84178013584826      0.78468339733780
