15
Coordinates from ORCA-job run
  C   -0.49347211348851     -0.43003692650632      0.47731058468937
  C   0.87980450110257      0.20034415223504      0.27572129638926
  F   -0.47060160161109     -1.31772624324012      1.47260218489262
  H   1.16366510788402      0.51270065982941      1.28692225789998
  N   -1.04153151807265     -1.11594252527104     -0.75650005021310
  O   -0.58589660281438     -0.74303543779910     -1.83178063863778
  O   -1.89873042416128     -1.96239138825194     -0.55754230401931
  N   -1.47124958456490      0.67903345699441      0.83987685198284
  O   -1.26987443330387      1.16671705255089      1.94176066499352
  O   -2.32164696258628      0.97915861610179      0.01712533180784
  N   0.77968294596172      1.38053125634739     -0.54813680423329
  H   0.71789633118299      1.13532927726126     -1.52707722313527
  H   1.57237712084442      1.98912157923188     -0.39665690471861
  C   1.82917893248041     -0.83960960987457     -0.16149173912480
  N   2.61039830114685     -1.63519391960898     -0.53113350857327
