15
Coordinates from ORCA-job run
  C   -0.48973963755887     -0.36679485110050      0.43455134571695
  C   0.96308591349179      0.14111654165486      0.32858841012444
  F   -0.60137971971137     -1.26900223677684      1.41326411194228
  H   1.21725441830530      0.43539843278137      1.35249836025373
  N   -0.96254092998001     -0.98202456692427     -0.86229325894592
  O   -1.23055258053573     -2.17128115114597     -0.86098341258988
  O   -0.99235053999916     -0.19552111277615     -1.80340451354076
  N   -1.46852673680223      0.74714505322643      0.76024282156553
  O   -2.64256344555088      0.52322806758563      0.49844961114007
  O   -1.00243546025904      1.72652422062797      1.33314887061209
  N   1.24947506241987      1.24401447186482     -0.54602974494329
  H   0.82776017665037      2.09328076690550     -0.19675901323346
  H   0.93549053205851      1.06694794427008     -1.49060746929640
  C   1.78190993637545     -1.02746789130942     -0.02704803824675
  N   2.41611301109601     -1.96656368888350     -0.33361808055863
