15

C	-0.278904	-0.023322	-1.481314
C	0.0	0.0	0.0
Cl	0.101898	1.497025	-2.231276
H	1.099722	0.0	0.0
N	0.52584	-1.168175	-2.123958
O	0.179907	-2.272349	-1.720671
O	1.384846	-0.910211	-2.944629
N	-1.737372	-0.357418	-1.859591
O	-1.925404	-0.734444	-3.00984
O	-2.581092	-0.175345	-0.99341
C	-0.457642	-1.170808	0.722014
N	-0.781674	-2.095698	1.371968
C	-0.474578	1.210544	0.636789
N	-0.815811	2.187455	1.195301
F	2.40212	0.0	0.0
