15

C	-0.4053	0.000884	-1.473968
C	0.0	0.0	0.0
Cl	-0.105086	-1.530074	-2.223399
H	1.099148	0.0	0.0
N	-1.869666	0.354818	-1.7487
O	-2.101753	0.887875	-2.831558
O	-2.659648	0.150744	-0.833218
N	0.389577	1.114033	-2.178837
O	0.096906	2.233404	-1.774129
O	1.137594	0.82024	-3.091957
C	-0.456081	-1.206785	0.676551
N	-0.79241	-2.17515	1.251572
C	-0.456828	1.177222	0.728392
N	-0.78634	2.109871	1.363771
F	2.461617	0.0	0.0
