15

C	-0.495275	0.006118	-1.428595
C	0.0	0.0	0.0
Cl	-2.243087	0.075157	-1.59034
H	1.09088	0.0	0.0
N	0.114069	1.186042	-2.216442
O	1.060423	1.754336	-1.693821
O	-0.376575	1.406811	-3.315865
N	0.037915	-1.221527	-2.211792
O	-0.538384	-1.50023	-3.25499
O	1.031956	-1.753672	-1.738084
C	-0.467062	-1.19633	0.675942
N	-0.826873	-2.173265	1.222294
C	-0.452685	1.200869	0.679324
N	-0.811054	2.175341	1.230876
F	2.42002	0.0	0.0
