15

C	-0.348008	0.005112	-1.470489
C	0.0	0.0	0.0
Cl	0.385644	-1.340175	-2.28621
H	1.097404	0.0	0.0
N	-1.871842	-0.001703	-1.683328
O	-2.406663	1.091168	-1.525178
O	-2.424787	-1.069702	-1.897356
N	0.101589	1.295103	-2.165552
O	-0.198559	1.370521	-3.350652
O	0.702508	2.120677	-1.497894
C	-0.438079	-1.24509	0.606239
N	-0.762289	-2.24678	1.130729
C	-0.520497	1.1325	0.741613
N	-0.906483	2.047127	1.372404
F	2.400127	0.0	0.0
