15

C	0.0	0.0	0.0
C	-0.311217	-0.033472	-1.535201
Br	1.916662	0.0	0.0
H	0.307349	-0.838118	-1.932176
H	-0.352417	-0.953716	0.419008
N	-0.65208	1.033927	0.779508
O	-0.36606	1.082048	2.000729
O	-1.79929	1.350977	0.255379
N	0.302821	1.187388	-2.215251
O	0.190272	2.284468	-1.683633
O	0.831832	0.97803	-3.309215
N	-1.636022	-0.174582	-2.025053
H	-1.809181	-1.145537	-2.249852
H	-2.316267	0.105688	-1.301083
H	-3.054276	0.0	0.0
