14
Coordinates from ORCA-job run
  C   -0.71084859624084     -0.57381826223668      0.35211354152273
  C   0.37569093089658      0.43082437297299     -0.05039480115582
  Br  -0.01424261277855     -1.61910703445227      1.94347930672230
  H   0.53898139672018      1.10753013490107      0.79784400700763
  H   -0.82320301094010     -1.34319264160472     -0.41246077793338
  N   -1.94350939634119      0.05748556135403      0.59307375374292
  H   -2.69091520274660     -0.60008558543163      0.76753084219601
  H   -1.89563818988576      0.72726806979093      1.35017241098270
  C   -0.13657878454399      1.23260269116363     -1.16838371431870
  N   -0.51585495055713      1.89780196581242     -2.05839386513185
  C   1.70673203547228     -0.21277191363718     -0.45027155513841
  H   2.16188944167270     -0.71658149957218      0.40061060188770
  H   1.55083617991763     -0.94051749876219     -1.24995972085305
  H   2.39466075935478      0.55156163970177     -0.81496002953079
