14
Coordinates from ORCA-job run
  C   -0.72292044452653     -0.54329613015814      0.36509108048411
  C   0.39538261602130      0.41836213049634     -0.05493413003490
  Br  -0.01997728514700     -1.66485523674245      1.89850781474154
  H   0.61596086112439      1.07108207480046      0.79923666084951
  H   -0.90355868153118     -1.28343047566260     -0.41514150312758
  N   -1.91272986785502      0.14091967580983      0.67167168022626
  H   -1.80266154225317      0.78034854808753      1.44834472687778
  H   -2.68497779689046     -0.48490108586257      0.85477205882297
  C   -0.11866618025641      1.25964590665205     -1.14286509773731
  N   -0.53059240981670      1.91030261023773     -2.02906960386947
  C   1.68280862585198     -0.27498190693814     -0.51018376244380
  H   1.46781555381225     -0.98360289421385     -1.31335721041666
  H   2.14547414136216     -0.81038839873811      0.31696890840280
  H   2.38964241010440      0.46479518223191     -0.88904162277525
