14
Coordinates from ORCA-job run
  C   -0.65981433269377     -0.52260129185681      0.51148713729558
  C   0.43033949610020      0.42211485561784     -0.01393892834102
  Br  -0.01410900475340     -1.42789516875470      2.12075903917230
  H   0.64541731970072      1.13601226489834      0.78838363323464
  H   -0.81374821244342     -1.33678885797929     -0.20846639388989
  N   -1.83810057444573      0.22641728631468      0.87156619459363
  H   -2.22678686329226      0.66963084194436      0.04504207551999
  H   -2.54081485080486     -0.38938028198023      1.26198681473923
  C   -0.14397908488020      1.16816942903696     -1.13919300206723
  N   -0.62858585568315      1.72851916897920     -2.05081447646804
  C   1.70888853278983     -0.28891939860893     -0.46212589886563
  H   2.41334864137730      0.43119421939788     -0.88105878378811
  H   2.18126148397164     -0.78493342522947      0.38488677952070
  H   1.48568330505711     -1.03453964177982     -1.22851419065614
