14
Coordinates from ORCA-job run
  C   -0.71820802857766     -0.55884084798751      0.36353642741820
  C   0.38151423309184      0.42603019750335     -0.05103152936586
  Br  -0.02243032525745     -1.61831341426083      1.94518565011002
  H   0.56860665925784      1.09643415596356      0.79730661466179
  H   -0.85448350809794     -1.32506405410225     -0.40034810221062
  N   -1.93591453814812      0.09593499544895      0.61975611064893
  H   -2.69379204985992     -0.54772589945873      0.80133934300812
  H   -1.86644551573454      0.76194921892471      1.37855700040924
  C   -0.12970552426668      1.23818707972705     -1.16218076349677
  N   -0.48218568123789      1.87947684027678     -2.08034338716300
  C   1.69475717056552     -0.24048353987130     -0.47109947297692
  H   2.39240241634239      0.51246073163697     -0.84078417346791
  H   2.15046967127161     -0.75744084229873      0.37153797503322
  H   1.51441502065101     -0.96060462150198     -1.27243169260847
