14
Coordinates from ORCA-job run
  C   -0.82003095377549     -0.02334638777825      0.69943031487559
  C   0.56977094098370      0.39186893911949      0.20121102474909
  Br  -2.21966754145465      0.71373376725839     -0.54720475461180
  H   1.25587710318003      0.04466013774509      0.98424292266574
  H   -1.04135852931191      0.48763011985074      1.63621501802925
  N   -0.89598596423696     -1.42340818361415      0.88955556544590
  H   -1.74274107753576     -1.68271874276097      1.37838827472334
  H   -0.86625479576568     -1.92665118120178      0.01235940082483
  C   0.68422222006770      1.84995710575203      0.14135508107761
  N   0.81002701525312      3.01629300094515      0.09521577953752
  C   0.98223130138003     -0.24454065872989     -1.12758450659263
  H   1.02325934113133     -1.33115832709477     -1.03217871069771
  H   0.28392601810355      0.02548213109880     -1.92006733492005
  H   1.97772492198099      0.10019827941012     -1.41093807510668
