14
Coordinates from ORCA-job run
  C   -0.71137668956633     -0.02007672962009      0.80987437554980
  C   0.61594579391031      0.34845564252317      0.13549993864498
  Br  -2.22643770156969      0.86346857466492     -0.17868409617852
  H   1.38403082392484     -0.08056450634857      0.79156121444161
  H   -0.76351779635172      0.44548263501196      1.79387537873714
  N   -0.84550651622742     -1.42304246445727      0.93797288312611
  H   -1.62737143564401     -1.66482556787346      1.53252523323979
  H   -0.97426003483273     -1.87407702727633      0.04143008273024
  C   0.81020620726237      1.79923967728349      0.13285543471122
  N   0.99935992612872      2.95786752587128      0.12403327066507
  C   0.79423157993062     -0.23007071254684     -1.26955950936254
  H   0.78190957664540     -1.32109501579590     -1.23520423049887
  H   1.75814032632117      0.07686418700868     -1.67802037688675
  H   0.00764594006849      0.12237378155498     -1.93715959891929
