15
Coordinates from ORCA-job run
  C   -0.38571007179040     -0.55584786945301     -0.34599181459725
  C   0.77235399477931     -0.05266689129884      0.52756279961885
  Cl  0.12627606058189     -2.02458183133097     -1.25688539945770
  H   0.89510814619559     -0.82617605724077      1.30447590765215
  N   -0.71022970656298      0.50234687396323     -1.40501435254304
  O   0.24037695520559      0.95532669180043     -2.01830567106103
  O   -1.89206689496715      0.78139049452251     -1.56705439954095
  N   -1.52552750087927     -0.73442026579786      0.46820089535067
  H   -1.47544023431514     -1.61640626415139      0.96197815716909
  H   -2.37367374274548     -0.68735562066503     -0.08358604241034
  N   0.37318893124307      1.25210885967657      1.02618456627026
  H   1.14557350505733      1.71515258486891      1.48689443004552
  H   -0.39595083916632      1.13811719314287      1.67377412589445
  C   2.05956648716102      0.04128763635012     -0.16545522967498
  N   3.14515491020292      0.11072446561323     -0.60577797271568
