15
Coordinates from ORCA-job run
  C   -0.41136654223346     -0.49194496208373     -0.40755415470927
  C   0.46337006750472      0.39970006511268      0.49859085007781
  Cl  0.59364511261626     -1.70061099428719     -1.19227526753413
  H   -0.22229741263209      1.14027852777005      0.92212473833639
  N   -0.99855896980083      0.47944336338559     -1.44689529121455
  O   -1.73872028471771      1.31669936726813     -0.93731962141839
  O   -0.72316664033682      0.36349399615709     -2.62533821927818
  N   -1.52905938745884     -1.12767967510708      0.20447864041171
  H   -1.23688473842165     -1.88484146194614      0.80812441729609
  H   -2.08941038078702     -0.45419241419104      0.71240840392104
  N   1.44976965919849      1.10471198562481     -0.28629497784418
  H   1.84372147459121      1.87472942855139      0.23823731284103
  H   2.19936588358200      0.48678935001099     -0.57158754689735
  C   0.97948755186219     -0.42773215157251      1.60486175386416
  N   1.41910460703355     -1.07784442469302      2.47943896214781
