15
Coordinates from ORCA-job run
  C   -0.44241822631319      0.08077501211090     -0.20898084264409
  C   0.92278486813114     -0.56182060271104     -0.09253467729925
  F   -0.63665862147173      0.45052169567873     -1.51396389024945
  H   1.08363891429478     -0.83012117749150      0.95210079235583
  H   0.89066104894243     -1.48717118715651     -0.68718333058982
  N   -0.41232074297316      1.35996741810585      0.61230061150113
  O   -0.60474464928016      2.42285899701331      0.04404535904837
  O   -0.20737189153157      1.19223605119029      1.81053297712743
  C   -1.60624465770709     -0.75837181492817      0.25163090528017
  H   -2.53474683871557     -0.20321890632431      0.10611700429227
  H   -1.49953611320859     -1.01357609145708      1.30487821082406
  H   -1.64889886827633     -1.67077020843210     -0.34532103469052
  N   1.92980215991203      0.40296323107230     -0.49889317526072
  H   1.91258888811716      0.52776982159582     -1.50214259379527
  H   2.85246473007983      0.08995776173350     -0.23158631590014
