15
Coordinates from ORCA-job run
  C   -0.47270132944202      0.03100461613205     -0.14615312997516
  C   0.94836319800618     -0.48709478263522     -0.19849727122200
  F   -0.88078442636104      0.30470051113839     -1.42529322251258
  H   1.27723793463292     -0.67785083974858      0.82362879101348
  H   0.91725080155414     -1.44619944700962     -0.73719130839584
  N   -0.44496964956949      1.35486202475416      0.60072732082803
  O   -0.06126870419226      1.27677683796292      1.76374001723631
  O   -0.80903355135493      2.36244242970869      0.01587783856687
  C   -1.47845305645455     -0.87431802826405      0.51678214757462
  H   -1.51615635665384     -1.82319148285447     -0.02069536841122
  H   -1.20534922582769     -1.05215201784858      1.55585455062472
  H   -2.46625565136106     -0.41158323751905      0.47655970895572
  N   1.79630156722025      0.53217135938214     -0.79120348958587
  H   2.77205300562145      0.31159770269260     -0.64986017653007
  H   1.62376544418195      0.59883435410861     -1.78527640816701
