15

C	-0.501715	0.015522	-1.432326
C	0.0	0.0	0.0
F	-1.851372	0.449888	-1.440255
H	1.088256	0.0	0.0
H	0.066293	0.794273	-1.941779
N	-0.313592	-1.217994	-2.07809
H	-0.423908	-1.129321	-3.076747
H	-0.934613	-1.91956	-1.70275
N	-0.487233	-1.140552	0.822157
O	0.095638	-1.327136	1.883186
O	-1.4401	-1.805753	0.404309
N	-0.456576	1.260283	0.670561
O	-0.074938	2.291308	0.129833
O	-1.170269	1.1861	1.66581
Cl	3.208728	0.0	0.0
