15

C	-0.504397	0.020737	-1.431192
C	0.0	0.0	0.0
F	-1.854133	0.453221	-1.43215
H	1.08827	0.0	0.0
H	0.061147	0.802715	-1.937691
N	-0.317017	-1.208885	-2.083844
H	-0.432203	-1.11502	-3.081476
H	-0.935616	-1.912982	-1.709248
N	-0.48577	-1.143122	0.818814
O	-1.434391	-1.811146	0.397575
O	0.094717	-1.329148	1.880704
N	-0.458292	1.260656	0.669763
O	-1.179071	1.187026	1.658954
O	-0.071147	2.291254	0.133299
Cl	3.20764	0.0	0.0
