15

C	-0.512645	-0.060232	-1.433768
C	0.0	0.0	0.0
F	-0.207539	1.191799	-1.99382
H	1.089016	0.0	0.0
H	0.097781	-0.791659	-1.962517
N	-1.880463	-0.398452	-1.541189
H	-2.449639	0.319762	-1.115232
H	-2.139474	-0.530859	-2.508649
N	-0.435869	-1.230972	0.72342
O	-0.101376	-2.282492	0.19336
O	-1.064664	-1.112812	1.771034
N	-0.524227	1.174607	0.749714
O	-1.66857	1.557182	0.490395
O	0.208878	1.664313	1.599606
Cl	3.217689	0.0	0.0
