15

C	-0.421037	0.057797	-1.459242
C	0.0	0.0	0.0
F	-0.313956	-1.275383	-1.93065
H	1.086453	0.0	0.0
H	-1.466135	0.330549	-1.593861
N	0.449365	0.954238	-2.096657
H	1.424065	0.741908	-1.888847
H	0.289639	1.005482	-3.090922
N	-0.583592	-1.200851	0.659937
O	0.174941	-2.059885	1.092982
O	-1.816473	-1.225133	0.707636
N	-0.501548	1.167151	0.784911
O	-0.051102	1.270199	1.924106
O	-1.334402	1.910894	0.272365
Cl	3.257304	0.0	0.0
