19

C	0.0	0.0	0.0
C	-0.423376	-0.206773	-1.476939
Br	1.955927	0.0	0.0
H	0.29157	0.358886	-2.080356
N	-0.375356	1.459102	0.349562
O	-1.231526	1.626173	1.206925
O	0.163958	2.338392	-0.31016
N	-0.550539	-0.827702	1.001094
H	-1.525816	-0.574906	1.150791
H	-0.482594	-1.797646	0.726321
C	-1.824079	0.328321	-1.754115
H	-2.118322	0.037536	-2.765381
H	-1.853458	1.419588	-1.702551
H	-2.594697	-0.047886	-1.078761
C	-0.330122	-1.685589	-1.843985
H	-1.130336	-2.253563	-1.361857
H	0.638035	-2.121534	-1.580671
H	-0.465407	-1.796076	-2.921914
Cl	-4.736819	0.0	0.0
