19

C	0.0	0.0	0.0
C	-0.585669	-0.113546	-1.400194
Br	2.02466	0.0	0.0
H	-1.59393	0.302135	-1.25858
N	-0.260762	1.393549	0.620466
O	-0.511938	2.322215	-0.132006
O	-0.16441	1.46562	1.839798
N	-0.515521	-0.904423	0.894505
H	-0.539574	-1.862999	0.596791
H	-0.250348	-0.756015	1.854752
C	-0.77778	-1.578784	-1.787789
H	0.14709	-2.157396	-1.677368
H	-1.587905	-2.018058	-1.204506
H	-1.077208	-1.630355	-2.837123
C	0.168432	0.634634	-2.494157
H	1.080572	0.102708	-2.778852
H	-0.479517	0.697364	-3.37271
H	0.431617	1.647989	-2.196658
Cl	-3.815554	0.0	0.0
