13
Coordinates from ORCA-job run
  C   -0.47858204975424     -0.51961647973180      0.18474573698603
  C   0.98281138873196     -0.00677439435201      0.00795609853163
  H   -0.44242877741479     -1.34430138501400      0.90618628971074
  H   1.55130651815630     -0.83871753139039     -0.42232403234125
  N   -0.96997238077289     -0.96415329608604     -1.10898206632692
  H   -1.18415281218771     -1.95104909099151     -1.10049060137098
  H   -1.78477518218201     -0.44999475206813     -1.41216965120564
  C   -1.30528081646158      0.54447006409602      0.76809930022539
  N   -1.98921054903871      1.40506872518947      1.18182708088296
  C   1.57816213937557      0.36864436313272      1.29357325466439
  N   2.02604541264048      0.64284580119910      2.34372899893675
  C   1.00944968875573      1.10829073716635     -0.94159059609858
  N   1.00762742015191      2.00428723885021     -1.69955981259452
