13
Coordinates from ORCA-job run
  C   -0.61523808352010     -0.20874042577572      0.39935690110640
  C   0.78622713348574      0.46095380622112      0.38862314647464
  H   -0.73941901593707     -0.67184611097061      1.38332778758099
  H   0.80103879234976      1.28433262567543      1.11320222212061
  N   -0.65109751350763     -1.24950888211295     -0.60380305154956
  H   -1.41924489212047     -1.88650036596071     -0.43664076339816
  H   -0.75494652784894     -0.85780616439576     -1.53299891333904
  C   -1.64358445051166      0.84222107531062      0.25518605461764
  N   -2.47386580531997      1.65987501832647      0.10374835359997
  C   1.06063516349201      1.00819990099197     -0.94413309130020
  N   1.23156828768357      1.43571941559209     -2.02424326115362
  C   1.80537724804672     -0.52061655268030      0.77191318531223
  N   2.61154966370806     -1.29628334022163      1.12646142992809
