13
Coordinates from ORCA-job run
  C   -0.62390001236020     -0.46597179074276      0.26549926741739
  C   0.89534277170127     -0.11424574088955      0.07750355657427
  H   -0.67200209130466     -1.22598434683142      1.05313218052360
  H   1.40515068176568     -1.03803108965906     -0.22351582339170
  N   -1.27798926515057     -0.97975334678544     -0.91188692272118
  H   -0.86542626300938     -1.85183594367094     -1.21683278511294
  H   -1.26578839388099     -0.30992673515237     -1.67164645060616
  C   -1.32906500139515      0.73007156312007      0.74407659755110
  N   -1.87277200725702      1.70504296954979      1.10736540664958
  C   1.49480830957828      0.36006710849872      1.32656762821264
  N   1.94536417249360      0.70878209299400      2.35338546942332
  C   1.04649216440288      0.86372097883325     -1.00231437819445
  N   1.11878493441626      1.61706428073569     -1.90033374632547
