16

C	-0.394848	-0.035225	-1.464028
C	0.0	0.0	0.0
F	-0.165437	1.29421	-1.974139
H	1.102442	0.0	0.0
H	-0.346511	-0.927274	0.468386
N	0.450107	-0.969353	-2.115548
H	1.415023	-0.809517	-1.819491
H	0.379405	-0.867513	-3.120647
C	-1.862995	-0.289961	-1.731479
H	-2.456966	0.436439	-1.175699
H	-2.12398	-1.299369	-1.409156
H	-2.077059	-0.190087	-2.800499
N	-0.614325	1.148731	0.682425
H	-0.212467	1.970286	0.242743
H	-0.249119	1.147218	1.629631
H	3.117649	0.0	0.0
