16

C	-0.372114	0.110253	-1.463846
C	0.0	0.0	0.0
F	-1.786844	0.131863	-1.568712
H	1.098288	0.0	0.0
H	-0.364895	-0.950515	0.416537
N	0.101428	1.340929	-2.050247
H	-0.096122	2.052856	-1.348948
H	1.117391	1.262734	-2.071004
C	0.134852	-1.078266	-2.246997
H	-0.09771	-0.940586	-3.305208
H	1.215603	-1.167147	-2.10435
H	-0.344693	-1.992478	-1.888746
N	-0.456104	1.181841	0.737073
H	-1.353392	1.009973	1.169945
H	0.221198	1.377709	1.463837
H	3.034589	0.0	0.0
