16

C	-0.361139	0.002514	-1.467628
C	0.0	0.0	0.0
F	-1.759612	0.196852	-1.628844
H	1.098662	0.0	0.0
H	-0.336481	0.957079	0.420247
N	0.29907	1.143535	-2.054615
H	0.361074	1.018167	-3.058521
H	1.252238	1.16432	-1.688353
C	-0.045766	-1.317649	-2.139563
H	-0.31591	-1.26291	-3.200137
H	1.025465	-1.510494	-2.040582
H	-0.599951	-2.123706	-1.659829
N	-0.500219	-1.17137	0.718747
H	0.216243	-1.456031	1.375755
H	-1.328797	-0.932248	1.24385
H	3.017795	0.0	0.0
