16

C	-0.439804	0.123223	-1.451316
C	0.0	0.0	0.0
F	-0.171524	1.443624	-1.842496
H	1.095401	0.0	0.0
H	-0.380928	0.845529	0.588544
N	0.338444	-0.731012	-2.324427
H	0.17168	-1.678359	-1.996183
H	1.316564	-0.542592	-2.091702
C	-1.921761	-0.104793	-1.669491
H	-2.495266	0.633444	-1.100827
H	-2.145985	0.004684	-2.732331
H	-2.199165	-1.106436	-1.336723
N	-0.404555	-1.318621	0.522449
H	-1.168485	-1.226815	1.179719
H	0.390227	-1.693516	1.028483
H	3.045465	0.0	0.0
