16

C	-0.513371	0.042574	-1.433616
C	0.0	0.0	0.0
F	-0.33363	-1.243996	-1.973435
H	1.097304	0.0	0.0
H	-0.383989	-0.917178	0.455095
N	-1.928119	0.316828	-1.43715
H	-2.066234	1.025489	-0.722375
H	-2.201582	0.705405	-2.332974
C	0.317987	0.976718	-2.294147
H	0.196976	2.002956	-1.937599
H	-0.017246	0.919386	-3.336015
H	1.372979	0.704355	-2.220454
N	-0.46681	1.197099	0.741081
H	-0.799125	0.911011	1.651786
H	0.356819	1.764693	0.911434
H	3.092962	0.0	0.0
