16

C	-0.433342	0.015258	-1.458591
C	0.0	0.0	0.0
F	-0.1865	-1.248064	-2.017019
H	1.093793	0.0	0.0
H	-0.32776	0.945017	0.457907
N	-1.879076	0.174631	-1.557982
H	-2.134221	0.260922	-2.537114
H	-2.134729	1.039528	-1.096045
C	0.389828	1.001343	-2.264224
H	0.187377	2.02286	-1.928782
H	1.451911	0.792024	-2.106271
H	0.136545	0.920577	-3.327038
N	-0.518146	-1.13426	0.760489
H	-1.406772	-1.408413	0.355019
H	0.127767	-1.901474	0.614764
H	3.124118	0.0	0.0
