16

C	-0.432043	-0.100764	-1.453605
C	0.0	0.0	0.0
F	-1.829836	-0.516972	-1.476042
H	1.092508	0.0	0.0
H	-0.376745	0.940869	0.422197
N	-0.320006	1.15774	-2.097589
H	-0.827769	1.86131	-1.57675
H	-0.688701	1.106787	-3.039189
C	0.331602	-1.163813	-2.20545
H	0.133616	-2.141384	-1.762783
H	1.399017	-0.945109	-2.11723
H	0.023863	-1.191118	-3.256118
N	-0.432828	-1.126794	0.827286
H	0.308339	-1.816158	0.834176
H	-1.266078	-1.54312	0.434064
H	3.082891	0.0	0.0
