16

C	-0.311606	-0.023503	-1.498879
C	0.0	0.0	0.0
F	-0.114539	1.323909	-1.951639
H	1.096225	0.0	0.0
H	-0.397288	0.921089	0.434022
N	0.608264	-0.908713	-2.121509
H	1.549581	-0.719107	-1.76244
H	0.593663	-0.787962	-3.127162
C	-1.742376	-0.340459	-1.892714
H	-1.857574	-0.234522	-2.975908
H	-2.000826	-1.36385	-1.619135
H	-2.429524	0.356614	-1.40553
N	-0.435778	-1.166781	0.764194
H	-1.372746	-1.447739	0.50076
H	0.189125	-1.930086	0.536091
H	3.067789	0.0	0.0
