15
Coordinates from ORCA-job run
  C   -0.47963280151897      0.02279650827309      0.23118793428082
  C   1.00390754996824     -0.32559380029501      0.17776012823631
  H   -0.92741820236773     -0.55498253772150      1.05331221392704
  H   1.40769911715493     -0.21678002476245      1.19588710661269
  H   1.51417293740897      0.41729140538425     -0.44955101090859
  N   -1.13039499949627     -0.40917190107049     -1.00532578058063
  H   -1.97044964202906      0.13103998102517     -1.17134036960843
  H   -0.50428721191411     -0.28901673847349     -1.79174720386698
  C   -0.65792180210902      1.50674297237136      0.54410830425376
  H   -0.24162739723520      2.11475185808068     -0.26452189927100
  H   -1.71834416748530      1.75589856163912      0.64425654985650
  H   -0.16158572013130      1.78521530097730      1.47918006562977
  N   1.21936460689153     -1.64572554015198     -0.41331856404045
  H   0.51676992581358     -2.29108281794623     -0.07492206526022
  H   2.12974780704971     -2.00238322732983     -0.15296540926060
