15
Coordinates from ORCA-job run
  C   -0.55199958047962      0.02501336197496      0.02151006070686
  C   0.72677133097957     -0.75677747416068     -0.25630699912202
  H   -1.00328079997471     -0.38928137645273      0.94173517901566
  H   1.23841755150431     -0.27260767577643     -1.09306331247611
  H   0.45613488319193     -1.77214103670562     -0.59041755297620
  N   -1.42805753570823     -0.11452959824467     -1.14360502611918
  H   -2.25139837556024      0.46366464862943     -1.02030272138212
  H   -1.74800354469629     -1.07361531565118     -1.22296241647553
  C   -0.25749529040748      1.49599268423462      0.25492746460000
  H   0.13337926513605      1.93654023280707     -0.66627057216354
  H   0.48089828966678      1.61104644348758      1.04786599844606
  H   -1.16446753441765      2.04035453013578      0.53610020716827
  N   1.60756344275480     -0.74072115288024      0.91170655111865
  H   1.23946620936564     -1.36210108999333      1.62218602971845
  H   2.52307168864513     -1.08983718140455      0.65789710994075
