15
Coordinates from ORCA-job run
  C   -0.48268338268013      0.14536765494731      0.19746106651950
  C   0.91807903156217     -0.43136533537838      0.34705919395200
  H   -1.11835883486662     -0.33978196618219      0.95582241724518
  H   1.61257178381665      0.19620196225991     -0.23106366510225
  H   1.21235149781958     -0.37731312116582      1.40014683930873
  N   -0.93909137705856     -0.13971879060879     -1.16565916612217
  H   -1.15606850518139     -1.12863682840956     -1.22340330467477
  H   -1.80105731917897      0.36219072235570     -1.34739341146846
  C   -0.48288066441485      1.64676177723512      0.43021551988522
  H   -1.49839990499524      2.05215349734788      0.39335346455961
  H   0.10928707574801      2.14123301162506     -0.34401617088385
  H   -0.06143836278220      1.89422851542893      1.40798866495375
  N   0.92620520814701     -1.83603407463001     -0.07258765355549
  H   1.03998539030906     -1.86922154032297     -1.07822295100729
  H   1.72049836375548     -2.31606548450221      0.33029915639030
