16
Coordinates from ORCA-job run
  C   0.74299331173325      0.33689235458616      0.08018533630080
  C   -0.70935606507085      0.20981032115304     -0.36988450331588
  F   1.13198674263719      1.63322726106513      0.16530082469478
  H   -0.81138619785071      0.65867939566171     -1.35549129568802
  N   1.59731413223522     -0.22088037238743     -1.11107750467144
  O   1.33437339267953      0.21784750024994     -2.22433699020233
  O   2.48434512573160     -1.01741966159859     -0.82855278540648
  N   0.99009930133302     -0.31214973270487      1.28998878620450
  H   0.84438065788956     -1.30827520764056      1.19222203846876
  H   1.94083827913665     -0.14557882404102      1.59583530031048
  N   -1.54781819164925      1.08107682662059      0.56078158029103
  O   -2.10984154555350      0.51853855544159      1.49549879766612
  O   -1.58429124650703      2.27774599505096      0.29747217337570
  N   -1.07820908886850     -1.16410720467477     -0.35077205243024
  H   -1.81649195778856     -1.35353323573758     -1.01439385601643
  H   -1.40993665008761     -1.40987397104427      0.57622415041863
