16
Coordinates from ORCA-job run
  C   0.75169350993518      0.21843330254376     -0.03550732140316
  C   -0.71826551300324      0.14732529896273     -0.43076147479905
  F   1.15704022223706      1.54093892585996     -0.17343178111751
  H   -0.83812790086152      0.53036363803317     -1.44146959846393
  N   1.56894824514731     -0.51261205353068     -1.10614694101888
  O   2.54179196850006     -1.15205206241688     -0.72502185050164
  O   1.22407583012400     -0.32920884845416     -2.26553319745241
  N   1.02152291442461     -0.35459939467061      1.20075938970366
  H   0.55369376680372      0.13764089999745      1.94979982685394
  H   2.01243247640299     -0.46884888597674      1.36257265649823
  N   -1.45153772690904      1.17611610854161      0.44376853689136
  O   -1.53292889814738      0.92079479782624      1.64618942529752
  O   -1.92695287111368      2.15585916160514     -0.11891216065688
  N   -1.18035537549122     -1.17552354351151     -0.30448077458976
  H   -1.05566546844754     -1.53507471083755      0.63170314077526
  H   -2.12636517960132     -1.30055263397192     -0.63452787601677
