16
Coordinates from ORCA-job run
  C   0.69181959995236      0.30132959964714      0.06047437807438
  C   -0.79840969289705      0.24630312364528     -0.29303376334572
  F   1.03157839248695      1.62900159329274      0.26298377585977
  H   -0.97948450860859      0.90683853010371     -1.13789093993696
  N   1.45637202889671     -0.08173625071369     -1.21447090495434
  O   1.11822534873163      0.51952003496812     -2.22765903580230
  O   2.35020241933194     -0.91466453055966     -1.12313119872496
  N   1.05616527157769     -0.57069978502441      1.07684251818035
  H   0.60438625435716     -0.35748982304970      1.95463565893697
  H   2.05497732683042     -0.69161126528800      1.16196379614880
  N   -1.53658166249668      0.89098900987585      0.86241483868596
  O   -1.56091865725013      0.25689284946107      1.91615935666728
  O   -2.06357325867231      1.97840684517115      0.65901730213637
  N   -1.30876413652526     -1.05773741363560     -0.51696799359737
  H   -0.83383021044798     -1.74481914110881      0.05340019090752
  H   -1.28516451526684     -1.31252337678519     -1.49273797923577
