16
Coordinates from ORCA-job run
  C   0.69691580914971     -0.16135557483486     -0.43214796896035
  C   -0.60290978079944      0.18766442327165      0.32770991518764
  F   0.39790935934212     -0.90558753982383     -1.51132400208534
  H   -0.31720334823141      0.52762914334249      1.33096735527914
  N   1.64591489769369     -0.94440327276187      0.46598335511662
  O   1.85507652776264     -0.38692170091420      1.54200937667496
  O   2.08353802871954     -2.01213761203136      0.08492266016210
  N   1.43915165572592      0.96977073156404     -0.86066714044543
  H   1.04396089890351      1.32343336520351     -1.71978529660460
  H   1.54688771589264      1.68128376301834     -0.15456790121436
  N   -1.38866653358881     -1.08053629082905      0.60115091898343
  O   -0.72870278602058     -2.08573188021255      0.83537142522471
  O   -2.61150099061660     -1.02432013499789      0.52370981903271
  N   -1.38590814185419      1.08505781401113     -0.45554817135609
  H   -2.35425933400804      0.79586094366910     -0.46848420637581
  H   -1.31920397807067      2.02929382232533     -0.10830013861932
