13
Coordinates from ORCA-job run
  C   0.66936138429771     -0.30487909051678      0.53531894828473
  C   -0.25759624445949      0.31685617966225     -0.49044605285546
  F   0.40714998471685     -1.68642960154422      0.55258735426624
  H   0.05885073725387     -0.04442609287703     -1.47576105707189
  H   0.41689946497356      0.03101948021949      1.54757375392571
  H   -0.10439241263715      1.40102208807819     -0.47285891172190
  N   2.03649753301339     -0.08007136069192      0.23430720573911
  H   2.59718158532245      0.22317725284794      1.01176843025166
  H   2.19922817182447      0.47766075423946     -0.58736724940977
  C   -1.72514030756910     -0.01941793420555     -0.25903060002164
  H   -2.35872080676644      0.45700197696619     -1.01013216339478
  H   -1.88260231556041     -1.09631566340283     -0.30953553687156
  H   -2.05571677440970      0.32480201122482      0.72457587887954
