13
Coordinates from ORCA-job run
  C   0.92769288633794      0.49746666384355      0.25500061647586
  C   -0.57050928251220      0.65170088264010      0.07593112421224
  F   1.36295103143922      1.62591608147357      0.96885214466760
  H   -0.76384834875173      1.65463435001546     -0.31263268147467
  H   1.44418835292245      0.55190204091809     -0.70905271108280
  H   -1.02715568181656      0.60701042372956      1.07142491622072
  N   1.30922176692574     -0.68312351615048      0.94087670290901
  H   0.55893248568543     -1.16145602843654      1.41214886358770
  H   1.88851161870865     -1.31507820267003      0.41679675580306
  C   -1.16662069911708     -0.40409021810551     -0.84788807374383
  H   -1.02522126819352     -1.41191060140493     -0.45264114822634
  H   -0.69970888542510     -0.36620227903545     -1.83607480607883
  H   -2.23843397620325     -0.24676959681740     -0.98274170326972
