13
Coordinates from ORCA-job run
  C   0.76951863111467      0.39732420804395      0.62065832984945
  C   -0.41885121643654      0.70783872728244     -0.27012353807706
  F   0.27147356104035      0.13283325634143      1.90901818746454
  H   -0.93258903850305      1.57446963591368      0.15390242509281
  H   1.39416748051560      1.28716349208507      0.75988478319086
  H   -0.04484775790533      1.00614034898269     -1.25578845164244
  N   1.51200435145224     -0.72514864856634      0.16559212596050
  H   1.30275325259518     -1.00781150880180     -0.77700817303684
  H   2.50421358195940     -0.65659936760978      0.31974736565411
  C   -1.39819056897833     -0.45749763270706     -0.38695400252444
  H   -1.74265982287218     -0.75661610713759      0.60283297608489
  H   -2.26684184469636     -0.16849636856364     -0.98221814797823
  H   -0.95015060928567     -1.33360003526304     -0.85954388003814
