14

C	-0.514008	-0.050192	-1.428211
C	0.0	0.0	0.0
Br	-0.023096	1.581522	-2.393932
H	1.093543	0.0	0.0
H	-1.608846	-0.049516	-1.442456
H	-0.30134	-0.961086	0.451971
C	0.049999	-1.250403	-2.173782
H	-0.281088	-2.173673	-1.683604
H	1.142075	-1.218282	-2.148935
H	-0.287983	-1.27046	-3.211942
N	-0.502209	1.147742	0.750412
H	-1.313065	0.889026	1.299137
H	0.222617	1.459849	1.385921
Cl	3.636533	0.0	0.0
