14

C	-0.511671	-0.144578	-1.428367
C	0.0	0.0	0.0
Br	-0.474547	1.599858	-2.344344
H	1.093848	0.0	0.0
H	-1.570547	-0.41268	-1.414577
H	-0.356851	0.934274	0.445998
C	0.301448	-1.151727	-2.214922
H	-0.074307	-1.27301	-3.233669
H	1.348421	-0.844208	-2.236863
H	0.238142	-2.108214	-1.692477
N	-0.444581	-1.193053	0.742907
H	-1.177482	-0.951158	1.396717
H	0.340618	-1.545353	1.276642
Cl	3.56805	0.0	0.0
