16

C	-0.500726	0.097221	-1.443156
C	0.0	0.0	0.0
Br	-0.297626	-1.611078	-2.420693
H	1.0957	0.0	0.0
H	-1.580656	0.273567	-1.433383
C	0.238031	1.177745	-2.208247
H	1.309375	0.963833	-2.199064
H	-0.114939	1.25284	-3.239108
H	0.065384	2.127453	-1.698293
N	-0.510731	-1.14979	0.742744
H	0.278273	-1.734107	0.993879
H	-1.113103	-1.71324	0.157467
N	-0.451004	1.257786	0.634106
H	0.365591	1.711126	1.027701
H	-1.04148	0.976386	1.408184
Cl	3.490703	0.0	0.0
