16

C	-0.386057	-0.005862	-1.464677
C	0.0	0.0	0.0
Br	-2.375632	-0.052385	-1.646996
H	1.097889	0.0	0.0
H	-0.119238	0.961284	-1.889198
C	0.224192	-1.155462	-2.231171
H	-0.121226	-2.104075	-1.822068
H	1.309177	-1.094302	-2.093555
H	-0.015091	-1.097979	-3.295897
N	-0.406168	-1.248654	0.639688
H	-1.376817	-1.191442	0.929039
H	0.171355	-1.394407	1.45821
N	-0.424028	1.249909	0.622079
H	-1.405045	1.19278	0.87635
H	0.120443	1.39024	1.46562
Cl	3.472293	0.0	0.0
