16

C	-0.502807	-0.008298	-1.454493
C	0.0	0.0	0.0
Br	0.159148	1.57855	-2.400057
H	1.099765	0.0	0.0
H	-0.027271	-0.843617	-1.975497
C	-2.011528	-0.076342	-1.602839
H	-2.379078	-0.935314	-1.039592
H	-2.295885	-0.169384	-2.653126
H	-2.485031	0.828942	-1.214637
N	-0.518843	-1.238412	0.616844
H	0.074362	-2.001359	0.300909
H	-0.324333	-1.125507	1.60662
N	-0.447379	1.106887	0.820439
H	0.122571	1.917571	0.614848
H	-1.418377	1.329365	0.631562
Cl	3.544594	0.0	0.0
