15

C	-0.458441	-0.036417	-1.441922
C	0.0	0.0	0.0
F	-1.856864	-0.242025	-1.463993
H	1.093577	0.0	0.0
H	-0.321386	-0.956335	0.441363
C	-0.236403	1.256253	-2.114784
N	-0.104222	2.254784	-2.716287
C	0.201649	-1.162486	-2.209682
H	1.285308	-1.028473	-2.187373
H	-0.045677	-2.109949	-1.726093
H	-0.158201	-1.184041	-3.240359
N	-0.512723	1.174887	0.688083
H	0.127572	1.429664	1.429433
H	-1.421503	0.985963	1.091112
Br	3.615994	0.0	0.0
