15

C	-0.460853	-0.063629	-1.442593
C	0.0	0.0	0.0
F	-1.845917	-0.336492	-1.468031
H	1.093522	0.0	0.0
H	-0.31932	-0.946961	0.45693
C	-0.2977	1.236392	-2.118662
N	-0.181536	2.235677	-2.72185
C	0.25647	-1.157563	-2.205203
H	0.063977	-2.11323	-1.713578
H	-0.103894	-1.206125	-3.234781
H	1.331626	-0.967704	-2.184282
N	-0.521416	1.176607	0.683785
H	0.220966	1.591303	1.232259
H	-1.28262	0.931993	1.301825
Br	3.60585	0.0	0.0
