15

C	-0.551777	0.01148	-1.418438
C	0.0	0.0	0.0
F	-0.11708	1.182873	-2.047941
H	1.098983	0.0	0.0
H	-0.343082	-0.91941	0.483655
C	-0.032112	-1.140197	-2.18422
N	0.296242	-2.09665	-2.780397
C	-2.072218	0.024681	-1.477172
H	-2.42355	0.862173	-0.875919
H	-2.401697	0.134191	-2.512295
H	-2.477401	-0.904981	-1.071884
N	-0.544445	1.157985	0.728908
H	-0.301695	1.030964	1.704756
H	-0.003605	1.962225	0.426746
Br	3.659805	0.0	0.0
