15

C	-0.430768	0.024541	-1.454422
C	0.0	0.0	0.0
F	-0.153653	-1.232493	-2.010283
H	1.100961	0.0	0.0
H	-0.340702	0.929357	0.468359
C	-1.890778	0.221046	-1.583177
N	-3.037249	0.437354	-1.714048
C	0.341606	1.060998	-2.246657
H	0.08554	0.990499	-3.305686
H	0.106742	2.065355	-1.887268
H	1.408029	0.872932	-2.100449
N	-0.61951	-1.136833	0.682192
H	-0.367702	-1.080338	1.662419
H	-0.167242	-1.972557	0.32874
Br	3.673003	0.0	0.0
