15

C	-0.451872	0.084802	-1.455146
C	0.0	0.0	0.0
F	-0.206359	-1.149912	-2.064332
H	1.094167	0.0	0.0
H	-0.360508	-0.949251	0.414623
C	-1.915619	0.295265	-1.518129
N	-3.07991	0.448775	-1.544076
C	0.298671	1.157805	-2.212124
H	0.097509	2.127151	-1.755514
H	1.365955	0.939964	-2.127966
H	-0.005464	1.16978	-3.260929
N	-0.462633	1.188064	0.715933
H	0.278228	1.512833	1.323619
H	-1.274751	0.981493	1.281367
Br	3.638206	0.0	0.0
