15

C	-0.55554	-0.104539	-1.414179
C	0.0	0.0	0.0
F	0.012469	0.901893	-2.19037
H	1.094101	0.0	0.0
H	-0.345341	0.959626	0.397929
C	-0.197864	-1.404759	-2.019046
N	0.011238	-2.457379	-2.49486
C	-2.064157	0.065931	-1.460848
H	-2.424369	-0.015593	-2.488732
H	-2.534851	-0.691204	-0.835218
H	-2.309799	1.058276	-1.074885
N	-0.559155	-1.097089	0.80821
H	-0.515719	-0.820603	1.781924
H	0.07835	-1.884175	0.723311
Br	3.658042	0.0	0.0
