15

C	-0.432755	-0.06849	-1.452737
C	0.0	0.0	0.0
F	-0.159611	-1.358876	-1.926603
H	1.093638	0.0	0.0
H	-0.341748	0.956786	0.408523
C	-1.892626	0.123134	-1.591128
N	-3.039237	0.333716	-1.728808
C	0.340586	0.913728	-2.310932
H	0.082066	0.776569	-3.362785
H	0.108402	1.939342	-2.015838
H	1.406669	0.732622	-2.15476
N	-0.617837	-1.092491	0.753767
H	-0.162891	-1.947125	0.452706
H	-0.362727	-0.973368	1.727445
Br	3.67	0.0	0.0
