15

C	-0.456678	-0.05346	-1.451385
C	0.0	0.0	0.0
F	-1.854469	-0.236615	-1.47947
H	1.094046	0.0	0.0
H	-0.360127	0.930937	0.456561
C	-0.21592	1.240238	-2.119274
N	-0.055133	2.263335	-2.671976
C	0.196696	-1.187021	-2.209105
H	-0.180813	-1.229238	-3.232865
H	1.27932	-1.040859	-2.207869
H	-0.038222	-2.111572	-1.682801
N	-0.4463	-1.209988	0.686071
H	0.255023	-1.467831	1.367575
H	-1.322761	-1.050933	1.163079
Br	3.601535	0.0	0.0
