15

C	-0.411093	-0.040148	-1.466625
C	0.0	0.0	0.0
F	-1.805383	-0.267004	-1.541978
H	1.093862	0.0	0.0
H	-0.337262	-0.948546	0.433896
C	-0.197489	1.273045	-2.104982
N	-0.05705	2.317145	-2.623164
C	0.306206	-1.139088	-2.220286
H	-0.017205	-1.168706	-3.262829
H	0.074482	-2.095438	-1.745868
H	1.384581	-0.971696	-2.157164
N	-0.524723	1.112821	0.770764
H	-1.479754	1.311558	0.497532
H	0.037445	1.936384	0.598131
Br	3.621255	0.0	0.0
