15

C	-0.396496	-0.092746	-1.476401
C	0.0	0.0	0.0
F	-1.780221	-0.376099	-1.565198
H	1.093793	0.0	0.0
H	-0.383203	0.932987	0.42202
C	-0.214863	1.207565	-2.14497
N	-0.104444	2.245078	-2.683715
C	0.357767	-1.183959	-2.205718
H	1.43061	-0.987939	-2.131287
H	0.047907	-1.233359	-3.251351
H	0.142069	-2.140056	-1.725676
N	-0.453672	-1.136662	0.789781
H	0.22932	-1.880137	0.742898
H	-1.343881	-1.476923	0.451409
Br	3.609163	0.0	0.0
