16

C	0.0	0.0	0.0
C	-0.581514	0.109753	-1.376863
F	1.341312	0.0	0.0
H	-0.403466	1.134009	-1.714078
H	0.031909	-0.558642	-1.990404
N	-0.395316	1.11462	0.959218
O	0.113946	1.037053	2.071564
O	-1.113867	2.009144	0.533485
N	-0.437267	-1.303803	0.652114
O	0.187884	-2.28899	0.276474
O	-1.386508	-1.265348	1.420123
C	-2.05916	-0.264093	-1.462512
H	-2.21143	-1.326042	-1.26259
H	-2.708984	0.281078	-0.777208
H	-2.422517	-0.06849	-2.473254
Br	-5.362496	0.0	0.0
