16

C	0.0	0.0	0.0
C	-0.676949	-0.040785	-1.325632
F	1.348161	0.0	0.0
H	-0.320595	0.827705	-1.886426
H	-1.75062	0.102404	-1.122003
N	-0.344002	1.254912	0.805065
O	0.094873	1.272274	1.949932
O	-0.922012	2.162644	0.223948
N	-0.402902	-1.18484	0.870033
O	0.290995	-2.187748	0.720567
O	-1.377202	-1.051788	1.592628
C	-0.435423	-1.342155	-2.083291
H	0.625239	-1.598997	-2.135938
H	-0.820225	-1.23421	-3.099258
H	-0.970573	-2.168181	-1.614928
Br	-4.105421	0.0	0.0
