16

C	0.0	0.0	0.0
C	-0.543476	0.173211	-1.388895
F	1.340917	0.0	0.0
H	-0.001615	1.044066	-1.769171
H	-0.20088	-0.697109	-1.959836
N	-0.413971	1.146727	0.923272
O	-0.921976	0.877759	2.002165
O	-0.13231	2.256231	0.486755
N	-0.413869	-1.289101	0.699319
O	-1.475364	-1.791905	0.360878
O	0.368818	-1.705853	1.545551
C	-2.048697	0.385538	-1.526862
H	-2.64244	-0.501959	-1.332989
H	-2.431321	1.146786	-0.846555
H	-2.260569	0.720911	-2.545244
Br	-5.269129	0.0	0.0
