12
Coordinates from ORCA-job run
  C   0.59649320275527      0.53286003283360      0.34597073915531
  C   -0.63169283919298      0.43142528369964     -0.21138205122623
  H   0.91782798735608      1.50654090109833      0.69820192090171
  C   1.51757417374716     -0.64452741799420      0.45894409462892
  H   1.13596903323108     -1.40163221171541      1.15547429321593
  H   1.65569752765872     -1.13546091573084     -0.51064477087415
  H   2.50044768109539     -0.34131473275987      0.81846663659108
  C   -1.46088786135632      1.59717309123032     -0.33616489797251
  N   -2.16204452653954      2.53616042447578     -0.43539863145274
  N   -1.15054942908975     -0.73456384869082     -0.78570703326298
  H   -2.15866712944267     -0.76759504177205     -0.80008720426454
  H   -0.75916782022243     -1.58006556467450     -0.39667309543981
