12
Coordinates from ORCA-job run
  C   0.46450674739696     -0.61169743709915      0.06310811794912
  C   -0.73964740210709     -0.02227939210355     -0.10907753823853
  H   0.49964201403917     -1.69864116976259     -0.01113700322267
  C   1.74205590759902      0.09956706975215      0.37946757082160
  H   1.60881008963537      1.18259348204320      0.39610197225100
  H   2.51246307364530     -0.13723647796915     -0.36017775101787
  H   2.12842948382021     -0.20786791462536      1.35609412524070
  C   -0.85908396970412      1.40980205913233     -0.03287607862610
  N   -0.96311113831076      2.58080807707114      0.00086192203210
  N   -1.96416912011731     -0.69041772533460     -0.26619202381585
  H   -1.84585535637247     -1.66732705073911     -0.49465101973984
  H   -2.58404032952428     -0.23730352036532     -0.92252229363367
