12
Coordinates from ORCA-job run
  C   0.51874278212683     -0.64255313335004     -0.03086530076172
  C   -0.70206512519231     -0.07884806832594     -0.08750420314972
  H   0.55213561807516     -1.70698408100423     -0.25346199237021
  C   1.79445919932795      0.06197528641976      0.29500215175233
  H   1.63328733077711      1.11626755718305      0.52490399263714
  H   2.28070886224230     -0.41017522638644      1.15330397107054
  H   2.49359970610000     -0.00487877181227     -0.54390224989106
  C   -0.88083562960779      1.32178578306833      0.20811145055465
  N   -1.07633080283110      2.45713951870003      0.45009765477930
  N   -1.85073731411366     -0.84973043628404     -0.45573545701810
  H   -2.63316392945514     -0.62861485010462      0.14834979740455
  H   -2.12980069744935     -0.63638357810360     -1.40629981500769
