12
Coordinates from ORCA-job run
  C   0.39326076048987     -0.61655640567061      0.24102630629345
  C   -0.73416809502286      0.02220314741630     -0.14363221024848
  H   0.31356242704856     -1.68405678187279      0.44579347827777
  C   1.72930545079829      0.02572450597441      0.44410101683808
  H   2.04901681290854     -0.06206126894163      1.48689887664944
  H   1.71364227134686      1.08577966001696      0.18524740543903
  H   2.49250300147440     -0.46329678884322     -0.16842501085449
  C   -0.70090922260118      1.43051554937970     -0.43691019936107
  N   -0.67925357391898      2.57579259481971     -0.70347088847419
  N   -2.01753838855019     -0.54380026084601     -0.19964180920416
  H   -2.56308556888271     -0.21894293804489     -0.98513220199781
  H   -1.99733587509059     -1.55330101338793     -0.16585476335757
