12
Coordinates from ORCA-job run
  C   0.39216018839512     -0.58714177068005      0.30763243904114
  C   -0.73586651889771      0.01117450250543     -0.13572136107888
  H   0.30817871491370     -1.62148624860595      0.64103772370715
  C   1.73565292831312      0.06329790863147      0.41385068850628
  H   1.72292144240916      1.08447787701321      0.02973639765765
  H   2.48586014404335     -0.50195805398820     -0.14680330041274
  H   2.07095924940799      0.09737715334663      1.45505219849669
  C   -0.69524961475783      1.37388866799509     -0.59659016183246
  N   -0.66775337564705      2.47857662486282     -0.99928478289881
  N   -2.02446177933440     -0.54389340107669     -0.10474471319550
  H   -2.57990034798722     -0.31056791572957     -0.91545604364730
  H   -2.01350103085823     -1.54174534427420      0.05229091565678
