12
Coordinates from ORCA-job run
  C   0.41831920289952     -0.37300118499222      0.52834610875393
  C   -0.74628649665639      0.06372849691417     -0.00092781270202
  H   0.35534358080214     -1.01432362167351      1.40743971992862
  C   1.78424131825810     -0.02245948620361      0.02793637579683
  H   2.35034886186651      0.52572801029429      0.78736503120053
  H   2.35431147515353     -0.92563149522450     -0.20882378136479
  H   1.74126970652178      0.59542271536839     -0.87056386568101
  C   -0.73567904542453      0.90853762035034     -1.16584966260207
  N   -0.73731707857870      1.57745416712921     -2.13323231112940
  N   -2.02336432153178     -0.14690236632647      0.54237270125745
  H   -2.02972094492154     -0.87513873441636      1.24267562156958
  H   -2.73246625838865     -0.31341412121972     -0.15773812502765
