12
Coordinates from ORCA-job run
  C   0.70067334177105      0.51526878852068      0.02479306851709
  C   -0.62321180649628      0.42987633135953     -0.23956438950027
  H   1.17353739905826      1.48749039069816     -0.05583694715415
  C   1.51851718077244     -0.68708564482534      0.39043631145277
  H   2.57451150316595     -0.43239504165763      0.47725053362873
  H   1.42609330715395     -1.47556445697328     -0.36439081068114
  H   1.20782524194543     -1.11542247536680      1.35138300359284
  C   -1.35252819452455      1.60640964830986     -0.62184236545747
  N   -1.96848664601579      2.56200872881261     -0.92300680151700
  N   -1.35532685971551     -0.76216516626878     -0.26553490383345
  H   -2.34077572123022     -0.64034030621217     -0.08721280467591
  H   -0.96082874588472     -1.48808079639681      0.31452610562795
