12
Coordinates from ORCA-job run
  C   0.46168012116432     -0.61092074130557     -0.08437836824015
  C   -0.74439700366157     -0.00085689173048     -0.07430614050284
  H   0.48448945413474     -1.66135205123136     -0.37415199393890
  C   1.75945567692500      0.02523453464982      0.30261031064380
  H   2.48856349322242     -0.05296177548030     -0.50895752181498
  H   1.63600648942824      1.08169806836968      0.54671245399024
  H   2.19359743331194     -0.47411942333951      1.17426376333224
  C   -0.84727820179693      1.38703071565808      0.29150076408814
  N   -0.93898656778334      2.52757861984995      0.56344344799049
  N   -1.98056407410111     -0.62692671502420     -0.29743868105172
  H   -1.88215174619043     -1.53949172139781     -0.71955361164366
  H   -2.63041507465327     -0.05491261901830     -0.81774442285266
