12
Coordinates from ORCA-job run
  C   0.40234893796306     -0.60953387221921      0.24658307458460
  C   -0.70732584022662     -0.01205944192370     -0.24201892311161
  H   0.33259060610579     -1.67186099109269      0.47983350706709
  C   1.72532075373713      0.05675278368368      0.45850927919584
  H   2.49598746945005     -0.39867536627514     -0.17104735842292
  H   1.68504188073277      1.12179498285703      0.22395932133336
  H   2.05283977940440     -0.05076817289790      1.49660361421736
  C   -0.68923290491939      1.39032467846680     -0.56446874007988
  N   -0.69548231054380      2.54087196629765     -0.80770251553025
  N   -1.90620818990957     -0.65991730248928     -0.57796929330295
  H   -1.96668182311116     -1.59014870489228     -0.18854896667910
  H   -2.72919835868268     -0.11878055951495     -0.35373299927153
