12
Coordinates from ORCA-job run
  C   0.69007325100374      0.49784151556941     -0.18581986339474
  C   -0.65677350905749      0.38043670673731     -0.23208294034112
  H   1.14055230427680      1.37747065564732     -0.63122016659336
  C   1.55484659707656     -0.52830763645414      0.48289770905691
  H   1.51787654058242     -1.49460493279775     -0.03501296440367
  H   1.23933350254146     -0.69965218175045      1.51775695994002
  H   2.59746657674320     -0.21202943650471      0.50076823592206
  C   -1.44352023699002      1.41003659810375     -0.85104085606184
  N   -2.10297950716375      2.23684907425929     -1.36567931376816
  N   -1.38662857030568     -0.64837295951883      0.37414784760860
  H   -2.28809569000534     -0.81312622735732     -0.04758371016783
  H   -0.86315125870192     -1.50554117593388      0.47386906220311
