12
Coordinates from ORCA-job run
  C   0.47302800927065     -0.60166942495298     -0.08820890171918
  C   -0.73247611591122      0.00654351357025     -0.15325451748976
  H   0.50871277838456     -1.66242350362810     -0.33632476923963
  C   1.76443679070949      0.06634168497606      0.26508821591070
  H   2.46870375682617      0.02120709860549     -0.57115965764945
  H   2.24012252923562     -0.43315139132070      1.11410488189114
  H   1.61925816148173      1.11567582294307      0.52675473590532
  C   -0.85370901786858      1.40311842780925      0.17108671029581
  N   -0.96868453374968      2.53743484652746      0.45973504642292
  N   -1.92076761684294     -0.57840506367438     -0.61810426464787
  H   -1.86176183845306     -1.58549740137141     -0.67094077967065
  H   -2.73786290308274     -0.29017460948400     -0.09877670000935
