12
Coordinates from ORCA-job run
  C   0.68864840512199      0.37893165884194     -0.37430396404152
  C   -0.66033864668726      0.33937935464341     -0.28136262916610
  H   1.13292395699169      1.13768230139727     -1.00840662296178
  C   1.56436533443305     -0.60189358021383      0.34606954747267
  H   1.27789627597023     -1.63371003840741      0.11511291114477
  H   2.60968010501813     -0.47655748241226      0.06488580231885
  H   1.50388640836914     -0.48121901775413      1.43478550231300
  C   -1.45536640867609      1.27940066975580     -1.02064896825926
  N   -2.12172319633052      2.05031584638952     -1.60799995989285
  N   -1.38148151152929     -0.62927784372346      0.42503228512745
  H   -0.86349260776847     -1.03851476585302      1.18858936939634
  H   -2.29699811491261     -0.32453710266384      0.71924672654843
