12
Coordinates from ORCA-job run
  C   0.50244132581283      0.50876565277937      0.39838908809817
  C   -0.68764417357540      0.42131041091756     -0.24478227293701
  H   0.90208117892495      1.50205815082263      0.59726118397662
  C   1.46196497682222     -0.63189884997746      0.58466454292693
  H   0.96330273528671     -1.59972250131532      0.67581697278952
  H   2.11929197735498     -0.67213141166953     -0.28304674525994
  H   2.08945008247460     -0.49856743102291      1.46503718104058
  C   -1.45905989212157      1.62369144264527     -0.41894118549665
  N   -2.08651772759810      2.61735384924085     -0.50157480359746
  N   -1.39321682395234     -0.76286963354125     -0.58058804672714
  H   -1.41011201576849     -0.94085796424222     -1.58315501295094
  H   -1.00198164366038     -1.56613171463699     -0.10808090186267
