12
Coordinates from ORCA-job run
  C   0.53160697670318     -0.62584661475103     -0.08184097443850
  C   -0.68621344739358     -0.06209889418652     -0.18388656211177
  H   0.57763457714166     -1.68620537559022     -0.32118025497140
  C   1.78609856513997      0.06909182713630      0.33479972457104
  H   2.18753660181282     -0.37999783548634      1.24814410985284
  H   1.62463225411912      1.13262783795561      0.51698199182577
  H   2.55380156881562     -0.03819675423493     -0.43679438462841
  C   -0.87148847636220      1.34304526093432      0.08533956832883
  N   -1.06896578687546      2.48627306646169      0.28427481502288
  N   -1.83018527716390     -0.84203509935187     -0.54386758478294
  H   -2.42750973237419     -0.32626159463469     -1.17811255924389
  H   -2.37794782356303     -1.07039582425231      0.27714211057555
