12
Coordinates from ORCA-job run
  C   0.70640090823118      0.43831292369055      0.26122957426765
  C   -0.63867297676080      0.45529607349880      0.11865671411188
  H   1.19091275409330      1.33659521773362      0.62676209085589
  C   1.52313350081288     -0.78096911402069     -0.04549267881332
  H   2.56221572462812     -0.64282879565930      0.25265412416526
  H   1.13836924897147     -1.66001398706105      0.48296424781959
  H   1.52076779247124     -1.01550214644691     -1.11720114277214
  C   -1.37978845500041      1.63715575601103      0.45961255581389
  N   -2.00465445546845      2.59876605537658      0.72035283542175
  N   -1.41286200728439     -0.64699584503108     -0.25978134918037
  H   -2.29634664760437     -0.40147225148085     -0.67999052498684
  H   -0.90947538708978     -1.31934388661071     -0.81976644670325
