12
Coordinates from ORCA-job run
  C   0.72673663978445      0.32975490761037     -0.34909726562255
  C   -0.62595719361203      0.33564438838956     -0.35322478275597
  H   1.24048435078428      1.02651039436651     -1.00170330383349
  C   1.51545391953092     -0.61933813817832      0.50239038087384
  H   1.19340186089341     -1.65446548084897      0.34537301218852
  H   1.40301389708593     -0.39925929627164      1.57133299941572
  H   2.57895111690414     -0.56325868735018      0.27157056297568
  C   -1.33460403220566      1.23985577626507     -1.21501505766766
  N   -1.93361613399509      1.98160198058614     -1.90364053637839
  N   -1.42817864914155     -0.55579216327243      0.36749737586109
  H   -2.35269514046939     -0.20475607118340      0.56644788023373
  H   -0.98199063555942     -0.91649761011270      1.19806873470948
