12
Coordinates from ORCA-job run
  C   0.46307286067469     -0.58266249697182      0.19882226087881
  C   -0.74361741148920      0.01456148969051      0.08015603582027
  H   0.47532242705467     -1.60869786643632      0.56603710290904
  C   1.78215745898040      0.05799977704139     -0.09887957589586
  H   2.33816237017711     -0.52349158050732     -0.84009690234524
  H   2.40265182726564      0.10938762138757      0.80106452774738
  H   1.66195594798677      1.07188630810859     -0.48400658395200
  C   -0.83540319192735      1.36609271113702     -0.40527870233896
  N   -0.92342367448484      2.46102614163647     -0.82555980478778
  N   -1.97089565403598     -0.53054394101979      0.48937696142827
  H   -2.73311210442142     -0.30852344542703     -0.13532779959369
  H   -1.91687085578049     -1.52603471863926      0.65369248012976
