12
Coordinates from ORCA-job run
  C   0.47972651610707     -0.60360927450749     -0.00832478296549
  C   -0.72172132873659     -0.01344670489266     -0.19637852484795
  H   0.53434338713474     -1.68094110449164     -0.16376698229029
  C   1.74504555688175      0.10396923230043      0.36274259958737
  H   2.17262411247954     -0.31780541323119      1.27693880834638
  H   2.49770173403857     -0.00326516955304     -0.42445661845431
  H   1.57941934606042      1.17008224637284      0.52710378772972
  C   -0.86718987126318      1.40449712336623      0.00041969441402
  N   -1.00305395153852      2.55828721240021      0.18366130593989
  N   -1.87826219566005     -0.64523024700890     -0.67975336524682
  H   -2.72540476051950     -0.32077535170733     -0.23562284938182
  H   -1.81322854498427     -1.65276254904746     -0.64256307283071
