16

C	0.0	0.0	0.0
C	-0.596929	0.132377	-1.382312
Br	1.955409	0.0	0.0
H	-0.434458	1.174514	-1.674676
H	-1.686231	0.003409	-1.184756
C	-0.562533	1.060117	0.910476
H	-0.182941	0.954479	1.925215
H	-1.660579	0.917792	0.877901
H	-0.30041	2.044925	0.517795
N	-0.346258	-1.369515	0.599988
O	-0.315619	-1.474704	1.820134
O	-0.586271	-2.290212	-0.175323
N	-0.019897	-0.72412	-2.417862
H	-0.382975	-1.657713	-2.275133
H	-0.378268	-0.397097	-3.307918
H	-3.32232	0.0	0.0
