16

C	0.0	0.0	0.0
C	-0.606679	-0.069063	-1.382579
Br	1.939758	0.0	0.0
H	-0.430712	0.914899	-1.82875
H	-1.696812	-0.151939	-1.165348
C	-0.564372	1.181201	0.74888
H	-1.66161	1.036019	0.741597
H	-0.304736	2.100057	0.218397
H	-0.181641	1.222324	1.767323
N	-0.351198	-1.266612	0.796762
O	-0.61847	-2.285493	0.167808
O	-0.296505	-1.194406	2.018712
N	-0.048592	-1.080631	-2.280068
H	-0.439077	-1.973343	-2.009235
H	-0.392381	-0.873612	-3.210742
H	-3.34161	0.0	0.0
