16

C	0.0	0.0	0.0
C	-0.600895	-0.038694	-1.388001
Br	1.935861	0.0	0.0
H	-0.452508	0.963928	-1.800493
H	-1.687111	-0.159163	-1.178529
C	-0.567604	1.161662	0.774207
H	-1.665047	1.016876	0.757658
H	-0.303994	2.091126	0.265743
H	-0.189784	1.181349	1.794963
N	-0.351796	-1.287749	0.762986
O	-0.56324	-2.303875	0.105804
O	-0.3445	-1.237247	1.987489
N	-0.008016	-1.000627	-2.318338
H	-0.420182	-0.821832	-3.227085
H	-0.314468	-1.92188	-2.031724
H	-3.325284	0.0	0.0
