16

C	0.0	0.0	0.0
C	-0.214012	0.073866	-1.539135
Br	1.951982	0.0	0.0
H	0.37642	-0.75744	-1.932853
H	0.260912	1.006256	-1.86223
C	-0.266257	1.241875	0.865588
H	0.255776	1.128894	1.816432
H	0.122065	2.121301	0.345094
H	-1.330608	1.372416	1.052807
N	-0.662871	-1.183133	0.548953
O	-0.674118	-1.281771	1.804915
O	-0.698924	-2.201791	-0.208414
N	-1.579267	0.055949	-2.085713
H	-1.458322	-0.031427	-3.095551
H	-1.987089	-0.819085	-1.770832
H	-1.940645	0.0	0.0
