18

C	0.0	0.0	0.0
C	-0.449684	0.231	-1.479472
Cl	1.799179	0.0	0.0
H	0.444631	0.050245	-2.083875
C	-0.515534	0.958182	1.035204
H	-0.109099	0.696557	2.01116
H	-1.606318	0.877946	1.047678
H	-0.207923	1.972009	0.780861
N	-0.310485	-1.444851	0.424474
O	-0.080941	-2.310808	-0.412103
O	-0.676293	-1.634961	1.576082
C	-0.92021	1.66629	-1.727709
H	-0.14473	2.384893	-1.450026
H	-1.132405	1.786551	-2.792835
H	-1.839192	1.847985	-1.168719
C	-1.415444	-0.714274	-2.057313
N	-2.00148	-1.420662	-2.790922
Cl	-3.573042	0.0	0.0
