18

C	0.0	0.0	0.0
C	-0.456309	-0.013952	-1.497408
Cl	1.78709	0.0	0.0
H	0.438865	-0.282978	-2.066867
C	-0.512039	1.11824	0.865881
H	-1.602543	1.041194	0.898573
H	-0.206084	2.074525	0.442331
H	-0.097541	1.021744	1.86756
N	-0.316172	-1.353193	0.659152
O	-0.677686	-1.34709	1.827346
O	-0.090897	-2.347725	-0.021373
C	-0.935563	1.360479	-1.97319
H	-1.145203	1.307219	-3.044037
H	-0.167311	2.120828	-1.81154
H	-1.85797	1.618194	-1.452798
C	-1.417288	-1.044962	-1.916301
N	-2.003845	-1.866249	-2.518474
Cl	-3.56907	0.0	0.0
