20

C	-0.322647	-0.019599	-1.49492
C	0.0	0.0	0.0
F	-0.13147	1.315938	-1.991385
H	1.099696	0.0	0.0
N	0.595838	-0.905797	-2.122522
H	1.533435	-0.720881	-1.753951
H	0.59149	-0.753779	-3.123561
C	-1.755721	-0.342513	-1.874779
H	-2.440823	0.372102	-1.411434
H	-2.017887	-1.353795	-1.56213
H	-1.867813	-0.269086	-2.961305
C	-0.448754	-1.286385	0.684573
H	-0.145493	-2.157825	0.100583
H	0.034674	-1.358584	1.66338
H	-1.535064	-1.320643	0.837173
C	-0.516823	1.231027	0.723611
H	-0.135445	2.141121	0.261658
H	-1.613443	1.275715	0.736463
H	-0.170313	1.209858	1.761454
H	3.044985	0.0	0.0
