20

C	-0.413345	-0.094372	-1.465353
C	0.0	0.0	0.0
F	-1.775634	-0.594162	-1.528388
H	1.096396	0.0	0.0
N	-0.378503	1.175848	-2.113968
H	-0.65971	1.060801	-3.080678
H	-1.032223	1.805829	-1.665934
C	0.445144	-1.078674	-2.229859
H	0.190592	-1.057273	-3.295429
H	1.496157	-0.815894	-2.075204
H	0.278143	-2.091863	-1.861937
C	-0.450237	-1.224668	0.792247
H	-0.1567	-2.155362	0.304174
H	-1.534133	-1.242463	0.93603
H	0.038436	-1.209919	1.769867
C	-0.479009	1.275186	0.683389
H	-1.569652	1.391224	0.62625
H	0.006038	2.153961	0.252881
H	-0.201873	1.243666	1.740632
H	3.079811	0.0	0.0
