13

C	0.0	0.0	0.0
C	-0.505505	0.000697	-1.459587
Cl	1.793714	0.0	0.0
H	-1.608086	0.041739	-1.282897
H	-0.144317	0.873473	-2.008707
C	-0.390985	1.293041	0.59669
N	-0.610442	2.336978	1.086235
N	-0.526893	-1.054225	0.811209
H	-0.293527	-1.93717	0.364068
H	-1.557961	-0.865995	0.698715
C	-0.125146	-1.219353	-2.15115
N	0.176012	-2.210624	-2.704493
F	-2.747919	0.0	0.0
