13

C	0.0	0.0	0.0
C	-0.523029	-0.036529	-1.439919
Cl	1.78772	0.0	0.0
H	-0.185828	0.846391	-1.988775
H	-1.626963	-0.012239	-1.271398
C	-0.360611	1.322487	0.574326
N	-0.573907	2.379391	1.041737
N	-0.544501	-1.110611	0.710118
H	-0.297118	-1.030217	1.691105
H	-1.578759	-0.914997	0.596001
C	-0.105007	-1.239258	-2.144562
N	0.204832	-2.18058	-2.775077
F	-2.774895	0.0	0.0
