13

C	0.0	0.0	0.0
C	-0.280673	0.530317	-1.423006
Cl	1.846369	0.0	0.0
H	0.245618	-0.163815	-2.085122
H	0.216647	1.499633	-1.516907
C	-0.371602	0.973506	1.043603
N	-0.543916	1.737493	1.92023
N	-0.496022	-1.31924	0.167874
H	-1.53921	-1.086548	0.122966
H	-0.27662	-1.628576	1.110407
C	-1.642169	0.676945	-1.952068
N	-2.453718	0.918897	-2.77037
F	-2.594115	0.0	0.0
