16

C	-0.506074	0.187336	-1.408846
C	0.0	0.0	0.0
Cl	0.309692	1.577233	-2.199769
H	1.107204	0.0	0.0
N	-0.183484	-1.037651	-2.286519
O	-0.796916	-1.107347	-3.347792
O	0.686181	-1.794839	-1.884297
C	-1.949292	0.403879	-1.491833
N	-3.108827	0.602351	-1.458714
C	-0.513253	-1.243085	0.541034
N	-0.913564	-2.235006	1.03363
C	-0.37289	1.172141	0.90892
H	0.084433	2.085883	0.525889
H	0.062957	0.978766	1.891407
H	-1.452784	1.310991	1.014219
H	2.548822	0.0	0.0
