16

C	-0.46114	-0.112586	-1.450627
C	0.0	0.0	0.0
Cl	0.161041	1.230531	-2.419616
H	1.107632	0.0	0.0
N	0.087409	-1.441957	-2.037252
O	-0.584924	-2.425987	-1.743969
O	1.121536	-1.415922	-2.676676
C	-1.915113	-0.153072	-1.603364
N	-3.086022	-0.122541	-1.71415
C	-0.493872	-1.118561	0.779733
N	-0.864791	-1.984413	1.485516
C	-0.416732	1.317925	0.650425
H	-1.499283	1.477394	0.638962
H	-0.070479	1.299815	1.685999
H	0.088666	2.145515	0.152595
H	2.586772	0.0	0.0
