16

C	-0.501897	0.016074	-1.425501
C	0.0	0.0	0.0
Cl	0.324788	1.292801	-2.374541
H	1.093964	0.0	0.0
N	-0.186992	-1.309621	-2.144562
O	-0.800028	-1.505961	-3.190355
O	0.676386	-2.01803	-1.64985
C	-1.942934	0.231532	-1.539979
N	-3.098617	0.452493	-1.552504
C	-0.531841	-1.162489	0.685721
N	-0.984613	-2.08209	1.264854
C	-0.370948	1.278283	0.75527
H	-1.450491	1.433474	0.837529
H	0.093181	2.134849	0.263744
H	0.060549	1.206883	1.755901
H	2.573816	0.0	0.0
