16

C	-0.538355	0.252802	-1.385456
C	0.0	0.0	0.0
Cl	0.317473	1.627541	-2.165991
H	1.107488	0.0	0.0
N	-0.295512	-0.960057	-2.302113
O	0.685191	-1.642661	-2.049071
O	-1.072026	-1.093174	-3.243742
C	-1.971014	0.541247	-1.413933
N	-3.114899	0.805357	-1.331968
C	-0.502713	-1.268009	0.489632
N	-0.896509	-2.281832	0.940307
C	-0.354519	1.128837	0.969764
H	0.050334	2.068913	0.591892
H	0.147878	0.917847	1.915938
H	-1.429589	1.229911	1.141854
H	2.536866	0.0	0.0
