16

C	-0.445898	0.025096	-1.437697
C	0.0	0.0	0.0
Cl	-2.184394	0.513225	-1.673474
H	1.091701	0.0	0.0
N	0.349512	1.0628	-2.264701
O	0.511804	0.795703	-3.449209
O	0.724163	2.070055	-1.688179
C	-0.261489	-1.264997	-2.094784
N	-0.137381	-2.316871	-2.604638
C	-0.442844	-1.241156	0.609481
N	-0.777762	-2.223778	1.163867
C	-0.431939	1.174816	0.879602
H	0.156287	1.112453	1.799038
H	-0.19726	2.120125	0.397629
H	-1.495324	1.13464	1.126723
H	2.551281	0.0	0.0
