16

C	-0.390579	0.117864	-1.455492
C	0.0	0.0	0.0
Cl	0.164931	-1.285187	-2.379988
H	1.10825	0.0	0.0
N	-1.927057	0.209806	-1.569685
O	-2.566293	-0.830255	-1.654369
O	-2.391219	1.343919	-1.450148
C	0.148997	1.333906	-2.067123
N	0.565367	2.295497	-2.599545
C	-0.503289	-1.225631	0.578681
N	-0.867297	-2.206538	1.119037
C	-0.36285	1.219714	0.841757
H	0.086679	2.112075	0.400158
H	-1.438607	1.373269	0.955844
H	0.091337	1.081071	1.826062
H	2.506555	0.0	0.0
