16

C	-0.51022	0.11153	-1.414117
C	0.0	0.0	0.0
Cl	0.387949	1.38359	-2.319136
H	1.109335	0.0	0.0
N	-0.280128	-1.190889	-2.197849
O	-0.968182	-1.340374	-3.204147
O	0.602076	-1.931068	-1.791155
C	-1.934208	0.427192	-1.505447
N	-3.072335	0.726009	-1.48278
C	-0.519918	-1.196955	0.626805
N	-0.915408	-2.150673	1.192787
C	-0.348491	1.236232	0.832174
H	0.090896	2.12055	0.365242
H	0.124679	1.118533	1.810094
H	-1.424954	1.380963	0.963427
H	2.527771	0.0	0.0
