16

C	0.0	0.0	0.0
C	-0.518349	0.067315	-1.437449
F	1.378173	0.0	0.0
H	-1.622183	0.168377	-1.281058
C	-0.337488	1.280153	0.709605
N	-0.48072	2.264738	1.336045
N	-0.55146	-1.146563	0.625519
H	-0.344881	-1.104824	1.619996
H	-1.589618	-0.976024	0.520843
C	-0.190412	-1.208016	-2.221053
H	-0.575997	-1.121913	-3.242234
H	0.891383	-1.367921	-2.262338
H	-0.658307	-2.060616	-1.727414
C	0.005889	1.24745	-2.117357
N	0.439934	2.160694	-2.719469
H	-2.931286	0.0	0.0
