16

C	0.0	0.0	0.0
C	-0.232236	0.018432	-1.553541
F	1.377951	0.0	0.0
H	0.451626	0.81127	-1.880137
C	-0.360425	1.335063	0.5688
N	-0.519701	2.404753	1.029155
N	-0.599681	-1.109572	0.624522
H	-0.437405	-1.051294	1.627831
H	-1.636798	-0.903363	0.472428
C	-1.586856	0.288063	-2.209134
H	-2.019811	1.209539	-1.82535
H	-1.412244	0.367933	-3.2901
H	-2.308882	-0.490554	-1.981698
C	0.335354	-1.232342	-2.078941
N	0.755422	-2.212398	-2.571943
H	-2.995925	0.0	0.0
