16

C	0.0	0.0	0.0
C	-0.513453	0.030047	-1.440696
F	1.377915	0.0	0.0
H	-1.618595	0.130829	-1.291635
C	-0.331207	1.295612	0.679293
N	-0.497942	2.30412	1.259724
N	-0.55228	-1.131576	0.653498
H	-0.350494	-1.062515	1.647204
H	-1.590776	-0.960892	0.540678
C	-0.173855	-1.260888	-2.187088
H	0.907851	-1.419788	-2.215267
H	-0.641681	-2.102187	-1.679017
H	-0.548295	-1.206275	-3.212298
C	0.010729	1.191048	-2.150553
N	0.438066	2.104978	-2.754202
H	-2.93	0.0	0.0
