16

C	0.0	0.0	0.0
C	-0.53474	0.078527	-1.430364
F	1.378035	0.0	0.0
H	-1.631253	0.233041	-1.253871
C	-0.324554	1.276737	0.72139
N	-0.463813	2.255566	1.356858
N	-0.547251	-1.148887	0.627141
H	-1.58541	-0.982673	0.523193
H	-0.339502	-1.105971	1.621458
C	-0.313582	-1.220391	-2.205789
H	0.743204	-1.49729	-2.213468
H	-0.653795	-1.096655	-3.236561
H	-0.884429	-2.019125	-1.735909
C	0.044583	1.214389	-2.135351
N	0.515225	2.102377	-2.745161
H	-2.933817	0.0	0.0
