16

C	0.0	0.0	0.0
C	-0.231888	-0.032251	-1.573902
F	1.389799	0.0	0.0
H	0.617323	0.532791	-1.973513
C	-0.382377	1.346742	0.492692
N	-0.539572	2.449548	0.863838
N	-0.597266	-0.988878	0.801914
H	-0.46715	-1.896186	0.362887
H	-1.623444	-0.76323	0.753321
C	-1.52119	0.555995	-2.147606
H	-1.560407	0.357431	-3.223395
H	-2.391144	0.160321	-1.6104
H	-1.519497	1.636216	-1.986898
C	-0.033103	-1.418739	-1.998575
N	0.137599	-2.538024	-2.312357
H	-3.168874	0.0	0.0
