16

C	0.0	0.0	0.0
C	-0.247044	0.025959	-1.574791
F	1.389258	0.0	0.0
H	0.649027	0.516589	-1.969324
C	-0.376988	1.328613	0.543621
N	-0.49341	2.429573	0.935192
N	-0.590035	-1.016956	0.772161
H	-1.617726	-0.791431	0.722599
H	-0.457302	-1.909134	0.304031
C	-1.476347	0.758976	-2.116046
H	-2.376554	0.392326	-1.608412
H	-1.522934	0.630731	-3.202592
H	-1.384102	1.824605	-1.89015
C	-0.19097	-1.357751	-2.046305
N	-0.123878	-2.471472	-2.415744
H	-3.116043	0.0	0.0
