16
Coordinates from ORCA-job run
  C   -0.79132766444868      0.10940992912356     -0.08322211461646
  C   0.73429785695045      0.16896601202806      0.05948161039911
  Cl  -1.28186487021273     -0.04083747184234     -1.79129980030929
  H   1.01354353879655      0.13725626132359      1.11343245634567
  C   -1.33444128289886      1.34625953330816      0.48299082084594
  N   -1.78729574853943      2.28768163521595      1.02122408746128
  C   -1.36205097852420     -1.08096991597194      0.69187920443610
  H   -1.05655777159642     -1.03316209830993      1.73951723111085
  H   -2.44989673689940     -1.04164956956580      0.63562187059011
  H   -1.01762060926476     -2.01880831080089      0.25957520740210
  N   1.39007506818107      1.40114922652802     -0.50423332303979
  O   0.72360919925669      2.16997208366201     -1.18348853891501
  O   2.57504197991640      1.50229497650403     -0.20682529472561
  N   1.39667003677406     -1.01271860940736     -0.59391004945006
  O   1.80465817765482     -0.86999261244252     -1.73822157925509
  O   1.44315980485445     -2.02585106935259      0.09647821172014
