16
Coordinates from ORCA-job run
  C   -0.75354015584054     -0.33252503571968     -0.12157728280789
  C   0.77227242568275     -0.28375033448599     -0.06014484094044
  Cl  -1.13719395915990     -1.90953077967738     -0.89854435175367
  H   1.16027773525782     -1.12789412769048      0.50800469521586
  C   -1.34667419397299      0.72470061732593     -0.93726330049580
  N   -1.92017444909459      1.53994329771582     -1.55976670991777
  C   -1.35164748802821     -0.33387909453851      1.28370445602094
  H   -2.42454760398342     -0.51342487994456      1.21188816309354
  H   -1.18602673814349      0.62894859264861      1.76566720450489
  H   -0.90363098624606     -1.13509880738198      1.87516864160823
  N   1.31846066713759      0.96726022648333      0.57572554263878
  O   2.50494881154847      0.90001450959218      0.87849218280002
  O   0.57096516908001      1.92857613985614      0.71303868323046
  N   1.41206537141773     -0.34126651535600     -1.41973405476820
  O   2.04332801399854     -1.35708108630719     -1.68292317832213
  O   1.24011738034630      0.64400727747976     -2.12973585010682
