16
Coordinates from ORCA-job run
  C   -0.71223597285857     -0.42791880679701     -0.17040171159506
  C   0.79830164098144     -0.27285138760107     -0.01599410091113
  Cl  -0.97663142441728     -2.09651499435536     -0.77127735568450
  H   1.19671816896062     -1.03731915911084      0.64862747158925
  C   -1.29880264889410      0.52600696173044     -1.10996507483005
  N   -1.86721533803214      1.31060224996944     -1.77511770970257
  C   -1.39586295923600     -0.28600241974776      1.19000384594667
  H   -0.94128599045875     -0.96471696464391      1.91326683710768
  H   -2.45111373797851     -0.53608189546743      1.08002288837954
  H   -1.31602821761106      0.73924410657309      1.55482460938283
  N   1.12871368189323      1.06176882856213      0.59282960596700
  O   1.32187959357257      1.06303513966223      1.80386498534646
  O   1.13841204524830      2.02292058937549     -0.16861083530970
  N   1.58780451436807     -0.35428097104490     -1.29354078717128
  O   2.79215966877794     -0.50875780880557     -1.11801639581133
  O   0.99818697568424     -0.23813346829898     -2.35851627270382
