17
Coordinates from ORCA-job run
  C   0.87482966784130      0.05633193630012     -0.07935345857848
  C   -0.60369381314268      0.01481711320458     -0.47829152239412
  Br  1.66317891402146      1.67985393890138     -1.23764089164043
  H   -0.66153832901584     -0.20158022794536     -1.54513017298747
  N   1.49516838459748     -1.13198888929441     -0.52351793214644
  H   2.40390916243969     -1.26355669259724     -0.09784179470558
  H   1.59583053761666     -1.14217520146002     -1.52972439444364
  N   1.08669475510808      0.27460837220682      1.28128229727324
  H   2.06646837010657      0.39222179207195      1.50427698382413
  H   0.55181769341899      1.06638234186893      1.61421528922936
  N   -1.27217267193632      1.34587428682914     -0.33051284982537
  O   -1.18544404586703      1.90274916921231      0.76462993802899
  O   -1.91301679243915      1.76054769363147     -1.28945723626795
  C   -1.38591911504530     -1.00073721385860      0.34171104395517
  H   -1.39596433409813     -0.71798275748255      1.39337749216446
  H   -2.41170628949942     -1.06078181001037     -0.02893409782611
  H   -0.90844209410638     -1.97458385157814      0.24291130634023
