17
Coordinates from ORCA-job run
  C   0.87626495420412      0.18795336914808     -0.10568836334309
  C   -0.62084931395598      0.22292238102603     -0.43425624686951
  Br  1.74638637907871     -0.02875359208564     -1.96137520266672
  H   -0.75890413562925      0.90668676706297     -1.27016978024405
  N   1.22630592083500     -0.87150217925306      0.75069014891860
  H   0.99031600075211     -1.78436074897008      0.38468977935428
  H   2.20775915812796     -0.84379001380594      0.99487618030889
  N   1.32039917217070      1.48178979511605      0.33533202303610
  H   1.12769609943134      1.56033860397671      1.32804714218895
  H   2.30831335006896      1.60773513091589      0.16052868572162
  N   -1.41093847654459      0.86844729293127      0.68146463562981
  O   -2.50080569231264      1.32273562047507      0.34440493420811
  O   -0.96636240438165      0.86394585753964      1.82611769807996
  C   -1.26258258016191     -1.12686939728216     -0.70610178848916
  H   -2.29346599639756     -0.98286408225906     -1.02997738025869
  H   -0.72107857632259     -1.64644200941355     -1.49779846336054
  H   -1.26745385896271     -1.73797279512223      0.19921599778544
