17
Coordinates from ORCA-job run
  C   0.85880350462637      0.04619112570257     -0.02270099623006
  C   -0.58848718823829     -0.18425956859385     -0.44597908509997
  Br  1.69704806316962     -2.00162762350678     -0.62941564200322
  H   -0.60609634325509     -0.52643012144722     -1.47892455304329
  N   1.04086503067548      0.15314254027379      1.34275983516269
  H   1.97314245960246      0.43915372706222      1.60745027387148
  H   0.76959136030527     -0.67939623026079      1.84454519604184
  N   1.52181204007811      0.98070412921585     -0.75497250465258
  H   1.25050908656319      1.08258741574515     -1.71828394288217
  H   2.51173060379160      1.06400635818332     -0.59186949352331
  N   -1.24274654241080      1.19203470599372     -0.52584436839763
  O   -1.06730309634572      1.79419223645454     -1.58327303398850
  O   -1.88873049401452      1.59318652936925      0.43385130176287
  C   -1.39848180050408     -1.07611879289339      0.46819756178997
  H   -0.94919771735952     -2.06536053920821      0.50823468366334
  H   -1.46849068818511     -0.64606001692356      1.46542003884664
  H   -2.41396827849896     -1.16594587516659      0.08180472868190
