17
Coordinates from ORCA-job run
  C   0.92098918267111      0.16220842376848     -0.12113180983190
  C   -0.60743895841692      0.18316273794360     -0.38107570549070
  Br  1.70787609751417     -0.25672965483070     -1.98230310175101
  H   -0.80383733214468      0.97984641960147     -1.09967018423625
  N   1.24682288499156     -0.77113501656269      0.86534955190756
  H   0.91028222228519     -1.70600821999011      0.68925469994807
  H   2.24003846315357     -0.76474880367759      1.05561872563724
  N   1.54267077522679      1.40176328448267      0.22873082474573
  H   1.40206010737120      2.10080918884927     -0.48840233652899
  H   1.15709296831127      1.73856062216545      1.10403542901938
  N   -1.24468678692681      0.66260353693101      0.90127332489782
  O   -1.23437222443423      1.87982129169617      1.09335597012510
  O   -1.69803019568737     -0.17400214290380      1.67595705757433
  C   -1.25400668154200     -1.11972711166492     -0.80508975108004
  H   -2.32846753916046     -0.97078944328472     -0.92751774691170
  H   -0.83733938921495     -1.44732889720532     -1.75554253267005
  H   -1.12165359399744     -1.89830621531827     -0.05484241535460
