15

C	0.0	0.0	0.0
C	-0.571574	0.226835	-1.399907
F	1.418796	0.0	0.0
H	-1.582387	0.622228	-1.249472
H	-0.293264	-0.998611	0.326193
N	-0.4705	0.96293	0.909059
H	-0.091841	0.826316	1.83351
H	-0.321111	1.903408	0.578389
N	-0.633831	-0.910467	-2.258428
H	-1.499708	-1.39502	-2.054287
H	0.156771	-1.52526	-2.12038
N	0.261122	1.31152	-2.043512
O	1.068263	1.00128	-2.912854
O	0.101885	2.454437	-1.605337
Br	-3.846846	0.0	0.0
