15

C	0.0	0.0	0.0
C	-0.355422	-0.09332	-1.4899
F	1.402864	0.0	0.0
H	0.037539	0.797345	-1.984822
H	-0.346375	-0.887773	0.532863
N	-0.555484	1.172303	0.544872
H	-0.933266	1.084193	1.469985
H	0.01398	1.992543	0.411771
N	-1.714256	-0.311879	-1.849959
H	-2.278273	0.500938	-1.625882
H	-2.130734	-1.047839	-1.289551
N	0.449972	-1.232549	-2.062144
O	0.201192	-2.350059	-1.611975
O	1.286647	-0.987936	-2.927777
Br	-4.481847	0.0	0.0
