15

C	0.0	0.0	0.0
C	-0.44905	-0.257095	-1.44499
F	1.412858	0.0	0.0
H	-1.542922	-0.194803	-1.43987
H	-0.336526	-0.879525	0.552103
N	-0.458969	1.16615	0.665111
H	-0.376747	1.965461	0.049162
H	-1.455847	1.026155	0.831656
N	0.009475	-1.52133	-1.899719
H	1.014586	-1.506861	-2.008807
H	-0.41289	-1.756707	-2.78659
N	0.015704	0.890634	-2.346954
O	0.829499	0.641136	-3.238317
O	-0.458021	2.007589	-2.134122
Br	-3.659997	0.0	0.0
