20

C	0.0	0.0	0.0
C	-0.466912	-0.115583	-1.476615
F	1.375862	0.0	0.0
H	0.470953	-0.258262	-2.027967
C	-0.612652	1.072679	0.838865
H	-0.359531	2.050338	0.426613
H	-1.703825	0.883354	0.783361
H	-0.244456	1.004382	1.864323
N	-0.254649	-1.356812	0.712215
O	0.450477	-2.293123	0.336856
O	-1.086684	-1.421857	1.606818
C	-1.175932	1.15679	-1.94469
H	-2.123779	1.196114	-1.396138
H	-1.381664	1.075728	-3.01718
H	-0.587982	2.066431	-1.791042
C	-1.403849	-1.298325	-1.760301
H	-2.292028	-1.145998	-1.126358
H	-1.69823	-1.259509	-2.814579
H	-0.919813	-2.259221	-1.580833
F	-3.144337	0.0	0.0
