20

C	0.0	0.0	0.0
C	-0.47252	-0.11336	-1.474005
F	1.370812	0.0	0.0
H	0.465319	-0.232398	-2.031622
C	-0.605048	1.07896	0.839862
H	-0.347395	2.053601	0.424006
H	-1.695928	0.89506	0.791183
H	-0.230384	1.011136	1.862981
N	-0.255485	-1.352441	0.722451
O	0.440105	-2.295515	0.343331
O	-1.07371	-1.407204	1.631214
C	-1.209027	1.148585	-1.931184
H	-0.640486	2.069753	-1.767412
H	-2.158087	1.159802	-1.381403
H	-1.40898	1.072602	-3.006016
C	-1.391371	-1.307659	-1.759704
H	-2.282548	-1.168617	-1.128131
H	-0.898607	-2.263315	-1.579353
H	-1.686939	-1.272512	-2.813578
F	-3.14596	0.0	0.0
