20

C	0.0	0.0	0.0
C	-0.603043	-0.072489	-1.396258
F	1.36836	0.0	0.0
H	-1.667798	-0.290394	-1.162596
C	-0.537328	1.12473	0.839784
H	-0.177838	2.073449	0.435963
H	-0.188788	1.022337	1.868915
H	-1.635643	1.020733	0.768475
N	-0.308033	-1.325023	0.741116
O	0.258602	-2.330649	0.306909
O	-1.044162	-1.310479	1.718307
C	0.056479	-1.097686	-2.312978
H	1.130513	-0.909073	-2.421429
H	-0.399403	-1.029436	-3.306306
H	-0.068173	-2.117279	-1.953037
C	-0.5676	1.315043	-2.040748
H	-1.271403	1.978709	-1.537168
H	-0.879026	1.236104	-3.086799
H	0.436488	1.758118	-2.024456
F	-2.982167	0.0	0.0
