14

C	0.0	0.0	0.0
C	-0.362819	0.161659	-1.48997
F	1.384602	0.0	0.0
H	0.320515	-0.512517	-2.02077
H	-1.396684	-0.154554	-1.583786
C	-0.469586	1.096584	0.856168
N	-0.586249	2.027416	1.565261
C	-0.447767	-1.308838	0.503985
N	-0.519218	-2.427228	0.860441
C	-0.177915	1.59615	-1.962302
H	0.806552	1.990532	-1.694067
H	-0.278963	1.653395	-3.050211
H	-0.945894	2.228588	-1.514105
F	-2.384146	0.0	0.0
