14

C	0.0	0.0	0.0
C	-0.365305	-0.088319	-1.495857
F	1.384353	0.0	0.0
H	0.373931	0.545354	-2.004627
H	-1.372249	0.306822	-1.591109
C	-0.450042	1.273462	0.582062
N	-0.521668	2.362207	1.020934
C	-0.463613	-1.140188	0.801779
N	-0.566091	-2.110443	1.458946
C	-0.301522	-1.522668	-2.006679
H	0.638757	-2.013469	-1.739792
H	-0.399025	-1.546129	-3.095874
H	-1.130913	-2.085932	-1.575287
F	-2.37546	0.0	0.0
