14

C	0.0	0.0	0.0
C	-0.173431	0.092627	-1.562919
F	1.383298	0.0	0.0
H	0.399316	0.995024	-1.810915
H	0.440065	-0.746365	-1.914063
C	-0.512682	1.161623	0.729947
N	-0.645448	2.155973	1.346056
C	-0.459647	-1.268809	0.563363
N	-0.518152	-2.366905	0.982835
C	-1.489778	0.102102	-2.318323
H	-2.072238	-0.789551	-2.10918
H	-2.106888	0.946715	-2.029703
H	-1.249918	0.153052	-3.392017
F	-2.310256	0.0	0.0
