14

C	0.0	0.0	0.0
C	-0.377044	0.031648	-1.490296
F	1.384599	0.0	0.0
H	-1.434898	0.28545	-1.509776
H	0.245469	0.824599	-1.924503
C	-0.458277	1.206359	0.710597
N	-0.662208	2.195101	1.310623
C	-0.420976	-1.221842	0.698674
N	-0.470351	-2.285543	1.2007
C	-0.098679	-1.303772	-2.164938
H	-0.797588	-2.058858	-1.796066
H	0.922694	-1.651416	-1.977287
H	-0.233649	-1.216509	-3.247641
F	-2.407738	0.0	0.0
