14

C	0.0	0.0	0.0
C	-0.369336	0.101803	-1.4916
F	1.385367	0.0	0.0
H	0.306746	0.864382	-1.901221
H	-1.406231	0.424968	-1.517898
C	-0.453337	1.186152	0.741535
N	-0.542987	2.204208	1.323125
C	-0.463198	-1.234768	0.646957
N	-0.548007	-2.284486	1.17102
C	-0.186899	-1.228576	-2.206157
H	-0.301828	-1.099862	-3.286983
H	-0.950435	-1.929212	-1.865172
H	0.799019	-1.663007	-2.019187
F	-2.393062	0.0	0.0
