19

C	-0.002451	0.02147	0.033511
C	-0.723115	0.21683	-1.304742
Br	1.918963	-0.395681	-0.205497
H	-1.663204	0.718712	-1.010949
N	0.007783	1.317411	0.856804
O	-0.369755	2.355388	0.31679
O	0.388033	1.242887	2.021836
C	-0.650863	-1.055391	0.866458
H	-1.733459	-0.864004	0.878542
H	-0.507829	-2.002726	0.350935
H	-0.223319	-1.085902	1.86755
N	-1.048691	-1.104751	-1.824489
H	-2.032261	-1.257648	-1.482489
H	-1.120626	-1.026121	-2.834851
C	0.021232	1.052493	-2.334746
H	-0.680736	1.327448	-3.128202
H	0.436291	1.967866	-1.914807
H	0.829	0.464593	-2.777692
H	-3.46848	-0.816601	-0.716632
