13

C	0.0	0.0	0.0
C	-0.440144	-0.050907	-1.465223
Cl	1.781706	0.0	0.0
H	0.18687	0.63405	-2.041273
H	-0.363307	-0.857842	0.557506
H	-0.350267	0.927032	0.447521
N	-1.805025	0.099721	-1.757342
H	-1.982305	0.979891	-2.221
H	-2.523719	-0.015489	-0.948538
N	0.010844	-1.422092	-2.01735
O	-0.146089	-2.412802	-1.307767
O	0.419847	-1.447904	-3.177192
H	-3.572737	0.0	0.0
