13

C	0.0	0.0	0.0
C	-0.422196	-0.057248	-1.471654
Cl	1.776004	0.0	0.0
H	0.164704	0.677315	-2.030024
H	-0.361161	0.923201	0.446588
H	-0.364254	-0.86266	0.550056
N	-1.791172	-0.011195	-1.766556
H	-2.017229	0.803764	-2.319444
H	-2.504238	-0.079216	-0.943267
N	0.144017	-1.385691	-2.031411
O	-0.033454	-2.407681	-1.37511
O	0.662745	-1.349927	-3.147015
H	-3.533213	0.0	0.0
