16

C	-0.582126	-0.001333	-1.403194
C	0.0	0.0	0.0
Br	0.240116	1.312983	-2.540645
H	1.089642	0.0	0.0
H	-1.650469	0.190204	-1.39256
N	-0.429162	-1.3789	-1.990802
O	0.660034	-1.730522	-2.418524
O	-1.447715	-2.072076	-1.933237
C	-0.490324	-1.17474	0.838375
H	-1.580065	-1.256303	0.833734
H	-0.130019	-1.035482	1.859112
H	-0.05246	-2.099237	0.461107
N	-0.484146	1.247589	0.681523
O	0.25036	1.744714	1.527236
O	-1.619339	1.65059	0.405115
Cl	3.318548	0.0	0.0
