16

C	-0.505087	-0.047033	-1.43127
C	0.0	0.0	0.0
Br	-2.427765	0.176876	-1.565309
H	1.093412	0.0	0.0
H	-0.272886	-1.028634	-1.838995
N	0.203069	0.906494	-2.389491
O	-0.37338	1.900648	-2.810028
O	1.339097	0.537469	-2.662666
C	-0.479743	-1.188849	0.80562
H	-0.045862	-1.14563	1.803747
H	-0.12005	-2.101045	0.323788
H	-1.566947	-1.219866	0.892363
N	-0.407032	1.292551	0.637855
O	-0.124978	2.314073	0.018417
O	-0.958721	1.261565	1.737191
Cl	3.285248	0.0	0.0
