16

C	-0.485149	0.001914	-1.440025
C	0.0	0.0	0.0
Br	0.40089	-1.318147	-2.510005
H	1.092559	0.0	0.0
H	-0.318843	0.974809	-1.894688
N	-1.986428	-0.211748	-1.442564
O	-2.623738	0.77869	-1.084778
O	-2.460917	-1.308453	-1.70756
C	-0.518864	-1.151487	0.830055
H	-0.017062	-1.151665	1.796156
H	-1.596557	-1.091164	0.995215
H	-0.280532	-2.086202	0.319688
N	-0.365605	1.328915	0.612113
O	-0.829226	1.331485	1.751074
O	-0.124724	2.334824	-0.048744
Cl	3.245006	0.0	0.0
