16

C	-0.482674	0.001318	-1.441469
C	0.0	0.0	0.0
Br	0.406304	-1.320316	-2.506742
H	1.092551	0.0	0.0
H	-0.31169	0.973644	-1.896161
N	-1.984802	-0.207388	-1.449174
O	-2.46456	-1.293318	-1.746066
O	-2.61757	0.776989	-1.067074
C	-0.523748	-1.149093	0.829342
H	-0.034175	-1.142764	1.802
H	-1.603619	-1.091377	0.981675
H	-0.275557	-2.085614	0.326942
N	-0.367669	1.331514	0.605616
O	-0.103104	2.335281	-0.050791
O	-0.861715	1.336991	1.731564
Cl	3.255285	0.0	0.0
