16

C	-0.586557	0.004133	-1.401817
C	0.0	0.0	0.0
Br	0.241533	1.31487	-2.539231
H	1.089729	0.0	0.0
H	-1.652845	0.206705	-1.384769
N	-0.453672	-1.37349	-1.994932
O	-1.472884	-2.062981	-1.909306
O	0.619934	-1.728646	-2.455955
C	-0.488716	-1.172544	0.841045
H	-0.054231	-2.097683	0.460964
H	-1.578481	-1.253254	0.842666
H	-0.121553	-1.034046	1.859507
N	-0.474555	1.251779	0.682409
O	-1.608346	1.662138	0.412571
O	0.268758	1.74536	1.522267
Cl	3.317714	0.0	0.0
