16

C	-0.417283	0.003012	-1.465255
C	0.0	0.0	0.0
Br	0.173437	-1.572159	-2.39712
H	1.091156	0.0	0.0
H	0.004458	0.870501	-1.969958
N	-1.912524	0.120513	-1.620329
O	-2.606126	-0.856759	-1.366016
O	-2.321434	1.226358	-1.971774
C	-0.530411	-1.114997	0.871293
H	-1.616016	-1.111683	0.946496
H	-0.096863	-1.003034	1.867553
H	-0.191823	-2.06857	0.466146
N	-0.442078	1.33669	0.534522
O	-1.53328	1.393772	1.109695
O	0.302176	2.289602	0.330881
Cl	3.342552	0.0	0.0
