16

C	-0.427132	0.002563	-1.455321
C	0.0	0.0	0.0
Br	-2.304957	-0.41145	-1.766077
H	1.104102	0.0	0.0
H	0.155604	-0.749518	-1.983215
N	-0.117797	1.306647	-2.154303
O	0.880489	1.295721	-2.866287
O	-0.868217	2.254495	-1.957805
C	-0.429306	-1.255737	0.731609
H	0.025608	-1.248004	1.723473
H	-0.03694	-2.123402	0.195781
H	-1.510016	-1.334538	0.829828
N	-0.490091	1.220577	0.708984
O	0.179869	2.242484	0.585328
O	-1.530094	1.128743	1.365589
Cl	3.253865	0.0	0.0
