16

C	-0.476103	0.026134	-1.442722
C	0.0	0.0	0.0
Br	0.37943	-1.31451	-2.51129
H	1.09281	0.0	0.0
H	-0.274497	0.995456	-1.890644
N	-1.981881	-0.14228	-1.461836
O	-2.483048	-1.235429	-1.692581
O	-2.597154	0.877494	-1.151773
C	-0.52506	-1.157056	0.816413
H	-0.272286	-2.088476	0.306413
H	-0.037968	-1.158416	1.790361
H	-1.605593	-1.10595	0.965349
N	-0.366033	1.3255	0.621589
O	-0.090254	2.335999	-0.018459
O	-0.871753	1.319811	1.743274
Cl	3.248794	0.0	0.0
