14
Coordinates from ORCA-job run
  C   -0.69907542225117      0.63307887353430     -0.40061196793848
  C   0.58832570105527     -0.06790998348509     -0.83633533363153
  H   -1.32541889201201      0.80137365374410     -1.28370486899391
  H   0.33467369873871     -1.03298450718857     -1.29127658719825
  H   -0.45082491315056      1.62569401580175     -0.00593971190251
  H   1.06496851071842      0.52697911120992     -1.62335745310961
  C   -1.49994864669168     -0.14503253949878      0.64058677387867
  H   -2.45377808821243      0.34562561430214      0.84931838470560
  H   -1.71675555820266     -1.15738425081776      0.28697603956120
  H   -0.96198202484444     -0.22938613313697      1.58688420224144
  C   1.58440912832591     -0.28494452275327      0.30017700210198
  H   2.52336314735360     -0.69975307163762     -0.07452588604968
  H   1.19863973979224     -0.97649276054554      1.05180624936232
  H   1.81440361938081      0.66013650047138      0.80100315697276
