16
Coordinates from ORCA-job run
  C   -0.68663766156210     -0.06728055579201      0.09600065052553
  C   0.62751729665127     -0.26297004580675     -0.14999567233744
  C   -1.36501680257505      1.23934611215226      0.36175009532824
  H   -0.68601122923913      2.08738176080936      0.29002002294374
  H   -2.16788978684057      1.40070465827969     -0.36677611925416
  H   -1.82386369291167      1.25269462094609      1.35768970973423
  N   -1.54954766231711     -1.19460804801134     -0.01212950905798
  H   -2.46195737202382     -1.00574411312775      0.37923324728184
  H   -1.14277583356363     -1.99798164785758      0.45633622489686
  N   1.04994071415306     -1.59097324339932     -0.44177733933314
  H   1.99251705246282     -1.61187936779215     -0.80569474500395
  H   0.42153728414697     -2.02323447093379     -1.11154599206117
  C   1.72212517916130      0.75062414554181     -0.03792535169785
  H   2.49078864497571      0.39777230186919      0.65924340261109
  H   1.36787907172096      1.71258642410978      0.32881294460716
  H   2.21239479776096      0.91356146901251     -1.00524156918299
