16
Coordinates from ORCA-job run
  C   0.56825506142123     -0.26929009367015     -0.19070340411435
  C   -0.67495591749288     -0.07569284890493      0.30947420071884
  C   1.58841221758043      0.79770422065181     -0.45735583045882
  H   1.27395232003123      1.78251447599548     -0.11422088230530
  H   1.82805070955500      0.86311351006276     -1.52533363914380
  H   2.52390200246073      0.56207478066260      0.06525837880215
  N   0.98368820540668     -1.62341173035605     -0.43764652701270
  H   0.56785691343280     -1.98766463715517     -1.28729901939851
  H   1.98828267250669     -1.69079286610717     -0.52189035798127
  N   -1.45192823871700     -1.16363683753623      0.75423491533840
  H   -2.38290930796493     -1.18917027793149      0.36180531008513
  H   -0.96292236814400     -2.03766829484047      0.61580127908051
  C   -1.32074566509207      1.25410934086238      0.55615184832963
  H   -1.43282708889099      1.42594748959002      1.63062620226318
  H   -0.76951250674091      2.08361182337083      0.11662589892085
  H   -2.32859900935200      1.26825194530579      0.12547162687605
