16
Coordinates from ORCA-job run
  C   0.64569769436707     -0.06289170437118     -0.19442404525810
  C   -0.63861424405392      0.10314349094360      0.20071824339535
  C   1.10378718355558      0.06459761823117     -1.61928991691196
  H   0.31903332993107     -0.19422456106644     -2.33287554466970
  H   1.94290538229937     -0.61361039562059     -1.80413171531997
  H   1.46085091574398      1.07609166653728     -1.83972690083170
  N   1.72771754245878     -0.19805367735354      0.71455403321552
  H   1.43386907542477     -0.23546911790269      1.67960142541294
  H   2.30653625344730     -1.00183881228855      0.50282427323396
  N   -1.65049813167013      0.62924664721295     -0.64461227160096
  H   -2.47819747675375      0.04559975327799     -0.65881243243740
  H   -1.33393153138942      0.79326202987123     -1.58904229675417
  C   -1.10430062107946     -0.06657421630117      1.61869785977084
  H   -2.13239349276226     -0.44221492596861      1.63194122169443
  H   -0.49427376258162     -0.78204475006184      2.17367545714392
  H   -1.10918811693736      0.88598095486039      2.15890260991700
