16
Coordinates from ORCA-job run
  C   0.61127765625367     -0.24831260839147     -0.22344026350567
  C   -0.67088609712434     -0.08232350949232      0.16955540824655
  C   1.64751795681990      0.81951091875088     -0.37868765016978
  H   2.04139657087103      0.81609830874984     -1.40148274427486
  H   1.25554448954151      1.81644235062482     -0.18428112527756
  H   2.49556223149363      0.64953173826770      0.29555639120298
  N   1.00619335004553     -1.55109594949379     -0.64031923162716
  H   2.01042473851690     -1.62973896534832     -0.72115673915246
  H   0.66537695557517     -2.24981356557832      0.01227863954685
  N   -1.50626947483895     -1.23505199628443      0.18669549200700
  H   -1.38648166653475     -1.77140794228842     -0.66666411798316
  H   -2.48062273022925     -0.98947319065195      0.29408695163786
  C   -1.29083263078605      1.17046094580638      0.70278657841340
  H   -2.10786016265717      1.51404453854204      0.05695921691433
  H   -1.71817497942073      0.98624819720036      1.69510777324193
  H   -0.57416620752608      1.98388072958698      0.80300542077974
