16
Coordinates from ORCA-job run
  C   0.60669998984450     -0.24381164117814     -0.24047067895039
  C   -0.67253248581781     -0.08007788944792      0.16272131332699
  C   1.66581913864229      0.81008967392962     -0.31561233888607
  H   2.50841818507805      0.57279916524239      0.34498033906221
  H   2.06171396629728      0.87305812015359     -1.33570640249040
  H   1.29455401740882      1.79827835737721     -0.04913809995737
  N   0.97451160927380     -1.51938723575470     -0.75496893694896
  H   1.97724062727522     -1.61351334125952     -0.83847974958750
  H   0.61572289869129     -2.25826230440822     -0.15860929953624
  N   -1.53245025174961     -1.21288468544923      0.09250631402880
  H   -2.50133609437203     -0.95489186972823      0.21900188128930
  H   -1.42397810918855     -1.68435975899432     -0.79985648944626
  C   -1.26688873447725      1.14181763359866      0.78864028571217
  H   -1.70277828133296      0.89123480724582      1.76255990725809
  H   -2.07306366524265      1.55230364462557      0.16873120541355
  H   -0.53265281033040      1.92860732404743      0.95370074971209
