16
Coordinates from ORCA-job run
  C   -0.69035743886031     -0.06533366515482      0.07223691512976
  C   0.62995952402918     -0.26356641224001     -0.13625150143609
  C   -1.36806667103514      1.23852269867626      0.35324411758637
  H   -2.14457487385300      1.42784891512685     -0.39675525749776
  H   -1.86042366802769      1.22588529343956      1.33308826411736
  H   -0.68092773434883      2.08269361115008      0.33039752531239
  N   -1.55699560783674     -1.18187605860169     -0.09697265123257
  H   -2.48008819085863     -0.99818155633896      0.27099542398478
  H   -1.16992496895352     -2.00244487120630      0.35808988308436
  N   1.05279629568477     -1.58598505329470     -0.45315421252979
  H   2.00800308024720     -1.60342941023443     -0.78277737466141
  H   0.44654237057432     -1.99156379560577     -1.15908338979798
  C   1.72674203348183      0.73852934142722      0.04029433488876
  H   2.47095375683756      0.35922451366032      0.74998030389428
  H   1.36729028494722      1.69166986844151      0.42459296740986
  H   2.24807180797178      0.92700658075488     -0.90592534825233
