16
Coordinates from ORCA-job run
  C   -0.67975918606559     -0.06563122764745      0.13706304126983
  C   0.62377809365039     -0.24667719794272     -0.18764147345706
  C   -1.31134428105123      1.25946768628557      0.44842965718698
  H   -0.67532974815356      2.10399244870645      0.18883000366893
  H   -1.57900593111403      1.32001858283396      1.50761250359100
  H   -2.24320352728264      1.36959638371616     -0.11844452046561
  N   -1.59975719494504     -1.13738507136916      0.28583725335412
  H   -1.16823920908118     -2.04876301329558      0.25503324725502
  H   -2.38107486664019     -1.09532652710943     -0.35585958693819
  N   1.13267051652033     -1.46555347116470     -0.70960512265748
  H   0.41682948957968     -2.13931301010827     -0.93626611889317
  H   1.84592314392888     -1.89005482746150     -0.13076254661645
  C   1.68333016511316      0.81311306825177     -0.11059788751979
  H   2.01354690248602      1.10224904510696     -1.11286249100935
  H   2.56462741696485      0.42067992123417      0.41012041772176
  H   1.35800821609016      1.69958720996377      0.43111362350946
