16
Coordinates from ORCA-job run
  C   -0.64707008239918      0.06397420640135      0.18994889298997
  C   0.63970322990209     -0.10387207301949     -0.19640083539811
  C   -1.11459216382306     -0.06129426149972      1.61191446747100
  H   -1.95534309562649      0.61664759032244      1.79007678253319
  H   -0.33450893965222      0.19924614409816      2.32994411211598
  H   -1.47241962638123     -1.07262937532301      1.83186407041288
  N   -1.72265177018487      0.19917793183559     -0.72652572464499
  H   -1.42246430331909      0.23507252915056     -1.68960796464755
  H   -2.30314801667982      1.00286647263474     -0.51937491821349
  N   1.64505075499721     -0.63033622707997      0.65635210557299
  H   1.32204988418767     -0.79320820231445      1.59872710221411
  H   2.47407601853168     -0.04881145058469      0.67499393889997
  C   1.11503642606128      0.06424474077676     -1.61132859269887
  H   1.12129131543454     -0.88848534209411     -2.15121434348583
  H   2.14400994786736      0.43759626623039     -1.61810496555428
  H   0.50998042108412      0.78081105046547     -2.17026412756698
