16
Coordinates from ORCA-job run
  C   -0.71328966934981      0.26419071189885      0.49661617757234
  C   0.80119075901427      0.14879718662892      0.40504111279975
  F   -1.07131419830585      1.14052279099287      1.44019859897978
  H   1.11085045659226     -0.23916467988249      1.38182705219035
  N   -1.39685265961686     -1.04590358232197      0.86413946121136
  O   -0.68808461182696     -1.94889953659547      1.29240055539184
  O   -2.61611417167007     -1.03214419316751      0.76713171432827
  N   -1.32593493459051      0.69216601293390     -0.82354185523467
  O   -1.68031846968557      1.85643804566827     -0.91596321491473
  O   -1.36256683228579     -0.18693674819745     -1.67586806876526
  C   1.33938041467638      1.50436553857417      0.25851535687410
  N   1.80184495035614      2.57278317909937      0.10691424523457
  C   1.33997154226595     -0.76550998939791     -0.70125972758634
  H   0.91034194454947     -1.76201311436076     -0.62154247080962
  H   2.42178753009468     -0.84121030085334     -0.58311746188554
  H   1.12910794978228     -0.36048132101949     -1.68949147538621
