16
Coordinates from ORCA-job run
  C   -0.73397028704927      0.25649655126346      0.46991813326544
  C   0.78451457406630      0.16801593123495      0.42930997762812
  F   -1.13878201145001      1.13599893701504      1.39130294789189
  H   1.06891932787326     -0.20347366244436      1.42009727396103
  N   -1.40546959121474     -1.06201039157525      0.82915040763900
  O   -2.62083579039874     -1.07198545081151      0.69129367917427
  O   -0.69479048766612     -1.94706963912745      1.29066566929573
  N   -1.31015818567349      0.65924178177446     -0.87449726462537
  O   -1.68234731476926      1.81574860855304     -0.99126915263573
  O   -1.30220343688722     -0.22917772405732     -1.71791256989021
  C   1.30271345039856      1.53158399834127      0.28501723512987
  N   1.74999482891597      2.60704975728091      0.13766033107618
  C   1.37579479274807     -0.74801812431945     -0.64840324881436
  H   0.95997826653644     -1.75076175768835     -0.57368336029725
  H   1.19268153543696     -0.35586344173826     -1.64731894840521
  H   2.45396032913330     -0.80477537370118     -0.49233111039341
