16
Coordinates from ORCA-job run
  C   -0.70852039596628      0.10917600492671     -0.24166171978287
  C   0.73773420076112      0.24880315986980      0.18975012577759
  F   -0.84399033192975     -0.00444963493300     -1.55675308752560
  H   0.73915547647373      0.39499459642590      1.27210449022646
  N   -1.58490504151694      1.26728010012791      0.22883291416638
  O   -2.63001588695886      1.41049236049961     -0.39019535935894
  O   -1.17847472823179      1.90943472241705      1.18828929128619
  N   -1.31374630785295     -1.12475374106371      0.42159759543173
  O   -1.73773845599482     -2.00014084633543     -0.31463319306035
  O   -1.28406024567535     -1.10562347919553      1.64609642525520
  C   1.29007426506681      1.44496185685334     -0.44753904428908
  N   1.75533144069186      2.38302680040628     -0.97838992912239
  C   1.53644396945849     -1.00406971257347     -0.18964712832347
  H   1.45961250309567     -1.20651607150235     -1.25830585545250
  H   2.58634474683328     -0.85214876831990      0.06132611567382
  H   1.17675479174577     -1.87046734760319      0.36812835909783
