16

C	-0.166833	0.14035	-1.510669
C	0.0	0.0	0.0
F	-1.336629	0.927257	-1.83623
H	1.093939	0.0	0.0
H	-0.406816	-0.953401	0.349819
N	0.968415	0.839828	-2.011812
H	1.123509	0.640013	-2.992219
H	1.800869	0.570856	-1.447448
N	-0.374823	-1.148801	-2.131446
H	-0.478443	-1.001447	-3.13222
H	-1.257202	-1.519429	-1.791882
C	-0.53152	1.190046	0.779897
H	-0.089282	2.107355	0.386078
H	-1.620379	1.286069	0.721278
H	-0.243547	1.106328	1.832639
F	2.783906	0.0	0.0
