16

C	-0.025816	-0.016111	-1.512736
C	0.0	0.0	0.0
F	-1.301374	-0.037121	-2.09839
H	1.097337	0.0	0.0
H	-0.387865	0.959793	0.349007
N	0.617688	1.217925	-1.94449
H	1.521959	1.184608	-1.465558
H	0.802018	1.142767	-2.939094
N	0.648652	-1.234539	-1.937746
H	0.813148	-1.169681	-2.935439
H	1.555625	-1.173769	-1.46682
C	-0.645488	-1.190095	0.679763
H	-0.470581	-1.150658	1.760043
H	-1.728528	-1.217904	0.511689
H	-0.222484	-2.120465	0.300508
F	2.757853	0.0	0.0
