16

C	-0.002196	-0.036234	-1.519449
C	0.0	0.0	0.0
F	-1.285812	-0.040356	-2.088421
H	1.096796	0.0	0.0
H	-0.388833	0.966523	0.339214
N	0.690753	1.126202	-2.067004
H	1.597033	1.085914	-1.586756
H	0.221336	1.961607	-1.727349
N	0.691136	-1.234016	-1.927481
H	1.573808	-1.19354	-1.401967
H	0.92579	-1.106713	-2.90741
C	-0.659391	-1.174739	0.693107
H	-0.230989	-2.110799	0.332918
H	-0.504872	-1.123921	1.775886
H	-1.738533	-1.203584	0.502702
F	2.764822	0.0	0.0
