16

C	-0.187041	-0.107856	-1.507755
C	0.0	0.0	0.0
F	-1.376128	-0.875348	-1.812358
H	1.093796	0.0	0.0
H	-0.346127	-0.943665	0.431696
N	-0.38147	1.182522	-2.133863
H	-1.265219	1.563674	-1.81149
H	-0.4793	1.027817	-3.132029
N	0.932537	-0.821552	-2.02851
H	1.769324	-0.580799	-1.460949
H	1.092787	-0.588162	-2.99969
C	-0.629658	1.201455	0.67665
H	-0.432652	1.167816	1.753115
H	-0.192813	2.124835	0.291916
H	-1.719493	1.245886	0.545238
F	2.782542	0.0	0.0
