16

C	-0.156996	-0.052569	-1.516702
C	0.0	0.0	0.0
F	-1.310517	0.71318	-1.919172
H	1.092081	0.0	0.0
H	-0.339291	0.990748	0.323585
N	0.976785	0.550912	-2.188934
H	1.802394	0.305004	-1.605384
H	0.86992	1.553596	-2.075477
N	-0.290443	-1.385146	-2.00559
H	-0.244463	-1.339098	-3.016211
H	-1.181766	-1.76929	-1.715818
C	-0.646518	-1.113115	0.801173
H	-0.459665	-0.968561	1.869443
H	-1.735197	-1.164457	0.661762
H	-0.212694	-2.074414	0.519306
F	2.777864	0.0	0.0
