16

C	-0.159528	0.081448	-1.513365
C	0.0	0.0	0.0
F	-0.062087	-1.295776	-2.016824
H	1.09506	0.0	0.0
H	-0.352631	0.950137	0.413076
N	-1.427078	0.578205	-1.981603
H	-2.128355	-0.101174	-1.711576
H	-1.406958	0.591273	-2.994594
N	0.929228	0.831798	-2.024096
H	1.081009	0.608507	-3.001673
H	1.773466	0.585143	-1.470269
C	-0.643516	-1.196549	0.668238
H	-1.736796	-1.22276	0.549955
H	-0.429829	-1.182824	1.743082
H	-0.232008	-2.120332	0.258794
F	2.785309	0.0	0.0
