16

C	-0.159986	-0.063888	-1.515681
C	0.0	0.0	0.0
F	-1.308289	-0.863244	-1.857755
H	1.093826	0.0	0.0
H	-0.338987	-0.962878	0.399266
N	-0.296209	1.227005	-2.104527
H	-0.265188	1.103827	-3.108972
H	-1.178622	1.64158	-1.830351
N	0.973477	-0.715005	-2.142817
H	0.867595	-1.706571	-1.954298
H	1.801338	-0.425717	-1.582951
C	-0.643458	1.170998	0.716742
H	-0.209043	2.10804	0.362773
H	-1.732476	1.213101	0.576986
H	-0.453475	1.106787	1.792252
F	2.780968	0.0	0.0
