17

C	0.0	0.0	0.0
C	-0.461466	0.020387	-1.457267
Br	2.069182	0.0	0.0
H	-1.573885	-0.086709	-1.301134
N	-0.496558	1.124369	0.700374
H	-0.316411	1.949327	0.138116
H	-1.533846	0.936491	0.659493
N	-0.426662	-1.134907	0.668568
H	-0.237899	-1.087585	1.656241
H	-0.222603	-2.016085	0.231226
N	0.017288	-1.182754	-2.251612
O	0.682254	-0.977242	-3.269502
O	-0.313753	-2.306779	-1.866083
N	-0.11232	1.242054	-2.09512
H	0.883584	1.246905	-2.284453
H	-0.603945	1.31836	-2.975487
H	-2.978392	0.0	0.0
