17

C	0.0	0.0	0.0
C	-0.349856	-0.013498	-1.546308
Br	1.956318	0.0	0.0
H	0.484347	-0.436256	-2.108567
N	-0.514509	1.195252	0.591956
H	-1.534953	1.147778	0.44061
H	-0.363959	1.112699	1.593493
N	-0.453215	-1.171075	0.69653
H	-0.245248	-1.99925	0.147987
H	-1.476996	-1.07365	0.717443
N	-0.332301	1.452677	-2.048315
O	-1.402452	2.046117	-2.137307
O	0.762325	1.915876	-2.37158
N	-1.551044	-0.697329	-1.801116
H	-2.32381	-0.38821	-1.146683
H	-1.839685	-0.568896	-2.763983
H	-3.199123	0.0	0.0
