17

C	0.0	0.0	0.0
C	-0.46952	-0.10951	-1.485747
Br	1.957884	0.0	0.0
H	-1.559077	-0.257797	-1.367169
N	-0.521296	1.260513	0.443111
H	-1.554112	1.105213	0.353449
H	-0.337046	1.301941	1.442454
N	-0.444815	-1.060235	0.859286
H	-0.197062	-1.959954	0.460263
H	-1.475811	-0.974008	0.810492
N	0.084331	-1.34334	-2.121336
O	-0.352771	-2.428827	-1.727446
O	0.956895	-1.220566	-2.978105
N	-0.202783	1.008735	-2.338913
H	0.781471	1.249613	-2.265712
H	-0.729297	1.781577	-1.948325
H	-2.961294	0.0	0.0
