15
Coordinates from ORCA-job run
  C   -0.43813448123017      0.26417903874873     -0.02232909883597
  C   0.46660683376540     -0.84946137133864      0.46396404157563
  Cl  -1.33553305497040      0.94958082348788      1.32889714499643
  H   1.11084077437433     -1.18603237747065     -0.34904902418900
  H   -0.12672818357534     -1.67408796549686      0.85432591283087
  N   0.41161786514186      1.34907426050776     -0.70394720428311
  O   1.19621249761476      0.90483829602115     -1.53539830032873
  O   0.20601942495752      2.52070993534206     -0.44445986417411
  C   -1.39893524606873     -0.24411461471841     -1.08368693084006
  H   -0.83961964413347     -0.66980130442451     -1.91812640587138
  H   -2.05524092289274     -1.00196946577678     -0.65474475039246
  H   -2.01291078881285      0.58244076945140     -1.44501213511760
  N   1.37143099256520     -0.41623915768155      1.57052764602897
  O   1.87908693077986      0.69583380696185      1.46667455368740
  O   1.56228700248474     -1.22395067361343      2.47336441491313
