15
Coordinates from ORCA-job run
  C   -0.04615063568482      0.51400207963123     -0.13193143139783
  C   0.92019687489493     -0.59054719396671      0.28701823229411
  Cl  0.01554237179123      1.83066262782059      1.04671786022663
  H   1.94168571130446     -0.21970225169961      0.31373205715588
  H   0.83375496544057     -1.44435910943932     -0.38239644001265
  N   0.46681011249934      1.05874231938658     -1.47463148545275
  O   1.21840448641360      0.32132200639921     -2.10776896436099
  O   0.02758448694513      2.13627525060795     -1.84280876714374
  C   -1.47655032794409      0.08348430290822     -0.37778296706523
  H   -2.05862686022268      0.94765500743968     -0.69830840163238
  H   -1.49719422781702     -0.68135610684202     -1.15859548525572
  H   -1.90547930544043     -0.33070411286937      0.53194577225450
  N   0.59943852322814     -1.08046570988835      1.65885332717608
  O   -0.43282448495439     -1.73739011224492      1.78387909369402
  O   1.39440830954602     -0.80761899724316      2.55307759952007
