15
Coordinates from ORCA-job run
  C   -0.06795690595050      0.51411757270810     -0.16918475087875
  C   0.98065349166746     -0.47113843729720      0.33363476061653
  Cl  -0.10086601350944      1.94043400752740      0.88485589258128
  H   1.04787683280034     -1.32318663072477     -0.34116015241720
  H   1.94583437254044      0.01353913336812      0.44808147618456
  N   0.40847827168097      1.00382891842643     -1.54773940162893
  O   1.48722859323434      0.58180329466543     -1.95482004942394
  O   -0.33996323279990      1.76759429465447     -2.13863000389830
  C   -1.46075482464683     -0.04492716833911     -0.34612605427862
  H   -1.86219767690173     -0.36823302935745      0.61195943376383
  H   -2.10278931079996      0.72573704953054     -0.76905686883260
  H   -1.43107069243086     -0.90512867697662     -1.01970370198588
  N   0.59389441261270     -1.00681580414516      1.67095707929698
  O   -0.27361442134373     -1.87924771887413      1.68694308103738
  O   1.17524710384670     -0.54737680516605      2.64998925986367
