15
Coordinates from ORCA-job run
  C   -0.07374767751730      0.51552992843758     -0.16566260284068
  C   0.98320471296858     -0.45439390450564      0.35021945357583
  Cl  -0.15746213572008      1.93104312832215      0.89996928386443
  H   1.08428822786112     -1.29536288098226     -0.33417377339165
  H   1.93484795697371      0.04852412970530      0.49480903765575
  N   0.42265890452194      1.02806562815056     -1.52864971218017
  O   -0.33213344780190      1.77387141761231     -2.13428979408700
  O   1.52505357892179      0.64351463684718     -1.90873395856723
  C   -1.45086926892885     -0.06982691581329     -0.37611365415890
  H   -1.86613336138174     -0.40736657502150      0.57116100863790
  H   -1.39000709446676     -0.92473372625928     -1.05422716722045
  H   -2.09918139036633      0.69081982286518     -0.80743857908400
  N   0.57443416772975     -1.01599047419760      1.67001297782618
  O   1.11474145883794     -0.55170546308862      2.67006329020054
  O   -0.26869463163187     -1.91198875207209      1.65205418976944
