15
Coordinates from ORCA-job run
  C   -0.37001866961263      0.35352548329391     -0.00886934785089
  C   0.31721490420798     -0.89877065675117      0.49627159748491
  Cl  -0.95407718321164      1.31307390455812      1.34738634883883
  H   0.78697968042985     -1.42496523660463     -0.33545482396738
  H   -0.39759754918248     -1.54139464206223      1.00667860487604
  N   0.61978727206218      1.17117271002490     -0.85418320288509
  O   0.70272302200154      2.37360331908694     -0.68219130264306
  O   1.19726531439904      0.50711263139701     -1.70849815084758
  C   -1.52213592335579      0.00178021626270     -0.93452065236168
  H   -2.27970713027373     -0.55735237620575     -0.38452000859662
  H   -1.15756001006961     -0.59562726653879     -1.77148169520976
  H   -1.97582700960330      0.91795420233980     -1.31602560491986
  N   1.40207081852751     -0.60471598753154      1.47952559126565
  O   2.12783205943169      0.35301582713261      1.23202539222716
  O   1.50205040424934     -1.36841212840186      2.43385725458931
