15
Coordinates from ORCA-job run
  C   -0.32497841892858      0.60472281968178      0.03646043275154
  C   0.39683631807241     -0.17732141750578      1.11712188356923
  Cl  -1.06419238318811      2.00511303100933      0.85813580966779
  H   1.20335853609836      0.41817838258532      1.54370240094589
  H   -0.29770335690921     -0.48020285267062      1.89858019542567
  N   0.70347668500935      1.20063905019986     -0.93021430904070
  O   1.74739458184463      1.60234714975660     -0.43394167432053
  O   0.38322772983152      1.26674308948969     -2.10868855529341
  C   -1.38247833996786     -0.16801050888215     -0.71122645100523
  H   -0.92576919796531     -0.96969604374161     -1.29042904452066
  H   -1.91762019671365      0.49056509230865     -1.39182254599685
  H   -2.08955456645594     -0.58551848744653      0.00805183890814
  N   1.02288284211826     -1.42949647057137      0.59223285065341
  O   1.40778077343275     -1.42247874301050     -0.57488160707660
  O   1.13933899372134     -2.35458409120270      1.38791877533232
