15
Coordinates from ORCA-job run
  C   -0.04168828668254      0.51424702839706     -0.18081795473728
  C   0.94936010266557     -0.49881713477407      0.38065233900462
  Cl  -0.06319242005089      1.96195200532092      0.84385246449864
  H   1.01439333168114     -1.36306453696633     -0.27868576882835
  H   1.92585729877495     -0.04721273262163      0.52906709479098
  N   0.50627111531212      0.95905384856761     -1.54758453992826
  O   1.59220775338677      0.50378423441937     -1.89544513072331
  O   -0.19572083123345      1.72646734595836     -2.18879940117158
  C   -1.44602789272460      0.00132106486302     -0.40087343050470
  H   -1.89417627688715     -0.28953618707036      0.54685863808856
  H   -1.42196867382640     -0.87170098123394     -1.05787762594532
  H   -2.04416793947402      0.78558702647709     -0.86133913294100
  N   0.48698261556067     -0.99917488385327      1.70745100128872
  O   1.03375844388673     -0.53598124929445      2.70454455699631
  O   -0.40288834038888     -1.84892484818945      1.69799689011203
