15
Coordinates from ORCA-job run
  C   0.00844027609698      0.52202705690583     -0.16089077727941
  C   0.90925116874999     -0.63265841316887      0.26223094887346
  Cl  0.28581903056352      1.91608367030635      0.90056751167415
  H   1.94636515728942     -0.31547569506959      0.31913323440727
  H   0.79246637158588     -1.46954887182109     -0.42466684233687
  N   0.46705553916764      0.94962153352136     -1.56587110736323
  O   1.44270106158684      0.37415386242135     -2.03989687311557
  O   -0.18888854968163      1.82699599377434     -2.10678996908302
  C   -1.46670416174086      0.20519695376997     -0.24260188748465
  H   -1.99809863732121      1.07742984691296     -0.61910456461628
  H   -1.62689977141909     -0.63884177730356     -0.91816545145048
  H   -1.85127543162707     -0.05915454547670      0.74018532922964
  N   0.52252936168162     -1.12506997875471      1.61589807390466
  O   -0.47148905653180     -1.84761062832169      1.67789428621165
  O   1.22772764159978     -0.78314900769591      2.56107808842872
