15

C	-0.507794	0.054876	-1.439748
C	0.0	0.0	0.0
Br	-0.355618	-1.698845	-2.323252
H	1.095237	0.0	0.0
H	-1.571366	0.295471	-1.494744
C	0.226058	1.005431	-2.272412
N	0.752423	1.759552	-3.002799
C	-0.454474	-1.194768	0.813252
H	-0.150894	-1.029791	1.845188
H	-1.53816	-1.360918	0.774525
H	0.060431	-2.08326	0.454227
N	-0.446898	1.244284	0.659784
O	-0.93126	2.146872	-0.038457
O	-0.2881	1.344659	1.876105
F	2.503427	0.0	0.0
