15

C	-0.304436	-0.031913	-1.468143
C	0.0	0.0	0.0
Br	-2.256661	0.001595	-1.900639
H	1.095665	0.0	0.0
H	0.089578	0.866993	-1.938391
C	0.248644	-1.219238	-2.104263
N	0.658203	-2.182007	-2.638571
C	-0.505672	-1.160685	0.816977
H	-1.596313	-1.176838	0.901323
H	-0.164085	-2.087472	0.350719
H	-0.073826	-1.110555	1.8152
N	-0.413036	1.298038	0.552606
O	-0.347948	2.292128	-0.177347
O	-0.741697	1.345289	1.741235
F	2.481039	0.0	0.0
