12

C	-0.523187	-0.078822	-1.420271
C	0.0	0.0	0.0
Br	-0.328215	1.603619	-2.398742
H	1.093422	0.0	0.0
H	0.027404	-0.821261	-1.998322
H	-1.590726	-0.305643	-1.454291
H	-0.351002	0.917824	0.479852
C	-0.472376	-1.221645	0.78955
H	-0.128969	-2.144842	0.314281
H	-0.047578	-1.202103	1.795545
H	-1.564214	-1.263795	0.875224
Br	3.750727	0.0	0.0
