17

C	-0.299821	-0.104389	-1.504435
C	0.0	0.0	0.0
F	-1.639255	-0.486426	-1.715987
H	1.097653	0.0	0.0
C	-0.215435	1.234748	-2.149121
N	-0.135478	2.291191	-2.657626
N	0.55084	-1.080962	-2.095354
H	0.585271	-0.989007	-3.102912
H	1.494013	-0.995322	-1.714146
C	-0.509543	-1.239652	0.717615
H	-0.186808	-2.148267	0.207738
H	-0.108366	-1.23209	1.73199
H	-1.602277	-1.234517	0.770461
N	-0.499674	1.202065	0.6452
H	-1.449037	1.394811	0.344819
H	0.080783	1.992623	0.393976
Br	3.557507	0.0	0.0
