17

C	-0.346271	-0.095807	-1.485112
C	0.0	0.0	0.0
F	-1.681099	-0.505264	-1.658823
H	1.097463	0.0	0.0
C	-0.293364	1.235783	-2.145645
N	-0.245421	2.21679	-2.790388
N	0.500027	-1.067369	-2.102071
H	1.454033	-0.956461	-1.759513
H	0.494679	-0.96935	-3.108902
C	-0.477359	-1.246346	0.733507
H	-0.154976	-2.15116	0.21702
H	-1.56989	-1.258558	0.803583
H	-0.053833	-1.248548	1.740841
N	-0.490718	1.248521	0.568757
H	-1.307242	1.079905	1.143238
H	0.233269	1.652768	1.148573
Br	3.543759	0.0	0.0
