17

C	-0.356691	-0.122032	-1.485472
C	0.0	0.0	0.0
F	-0.130442	-1.427601	-1.898059
H	1.095219	0.0	0.0
C	-1.805062	0.147065	-1.678408
N	-2.95474	0.361482	-1.779966
N	0.416135	0.744304	-2.336325
H	1.395291	0.543293	-2.117088
H	0.243413	1.685279	-1.993373
C	-0.55799	-1.117159	0.862413
H	-0.212563	-2.092088	0.513543
H	-1.655206	-1.109696	0.854489
H	-0.216844	-0.982453	1.893061
N	-0.404929	1.351767	0.403102
H	0.283018	1.723518	1.047971
H	-1.306	1.329424	0.868119
Br	3.557375	0.0	0.0
