17

C	-0.265367	0.024111	-1.521127
C	0.0	0.0	0.0
F	-0.057814	-1.274164	-2.047235
H	1.09865	0.0	0.0
C	-1.683078	0.330759	-1.824557
N	-2.816279	0.585648	-1.99797
N	0.587259	0.98033	-2.114184
H	1.54479	0.822425	-1.793799
H	0.54302	0.940646	-3.124657
C	-0.581716	-1.220904	0.677622
H	-0.211582	-2.139135	0.223911
H	-0.29027	-1.198041	1.728288
H	-1.677401	-1.21572	0.62329
N	-0.44455	1.215747	0.663727
H	0.073283	2.003053	0.291523
H	-1.432437	1.375224	0.485991
Br	3.602899	0.0	0.0
