17

C	-0.501041	0.042234	-1.440881
C	0.0	0.0	0.0
F	-0.094322	1.194312	-2.067278
H	1.096454	0.0	0.0
C	0.04541	-1.09193	-2.242864
N	0.342004	-2.028853	-2.887306
N	-1.953397	0.052369	-1.486105
H	-2.237096	0.195546	-2.449501
H	-2.303104	-0.853577	-1.196685
C	-0.44946	-1.282793	0.700215
H	-0.170262	-2.181508	0.142332
H	-1.533053	-1.288339	0.874098
H	0.046777	-1.336365	1.671703
N	-0.424009	1.223829	0.662962
H	0.283233	1.482643	1.337985
H	-1.313461	1.102912	1.131093
Br	3.584146	0.0	0.0
