17

C	-0.347454	-0.091544	-1.491305
C	0.0	0.0	0.0
F	-0.137925	-1.391826	-1.922946
H	1.095236	0.0	0.0
C	-1.791984	0.19978	-1.687797
N	-2.946051	0.40006	-1.769129
N	0.441357	0.78046	-2.317268
H	1.417116	0.618212	-2.058246
H	0.226049	1.72765	-2.022223
C	-0.561963	-1.134486	0.835906
H	-0.22493	-1.020794	1.86974
H	-0.216473	-2.101308	0.468363
H	-1.659055	-1.125273	0.823906
N	-0.407357	1.341176	0.426992
H	0.281292	1.704023	1.07218
H	-1.305444	1.308751	0.89703
Br	3.556461	0.0	0.0
