17

C	-0.543956	-0.007517	-1.422151
C	0.0	0.0	0.0
F	-1.977877	-0.018458	-1.30441
H	1.094509	0.0	0.0
C	-0.260084	1.254803	-2.137037
N	-0.058747	2.214753	-2.780312
N	-0.089796	-1.087489	-2.201258
H	-0.548762	-1.125282	-3.100924
H	-0.165125	-1.967406	-1.715752
C	-0.436196	-1.251184	0.765836
H	0.006092	-2.165298	0.359556
H	-1.525443	-1.350717	0.780871
H	-0.070247	-1.162041	1.790865
N	-0.444757	1.242224	0.626726
H	0.278095	1.562601	1.257337
H	-1.301152	1.099575	1.146743
Br	3.582117	0.0	0.0
