17

C	-0.242077	-0.051693	-1.522297
C	0.0	0.0	0.0
Cl	-2.005704	-0.312678	-1.926454
H	1.09205	0.0	0.0
C	0.085514	1.283366	-2.030533
N	0.344319	2.355278	-2.437383
C	0.637404	-1.078071	-2.222937
H	0.622775	-0.921577	-3.30544
H	1.639294	-0.928175	-1.79866
H	0.293924	-2.082914	-1.988787
N	-0.542645	-1.253934	0.610218
O	0.019709	-2.31126	0.319484
O	-1.523251	-1.173112	1.348893
N	-0.498735	1.136765	0.690541
H	0.206941	1.857846	0.672856
H	-1.381516	1.482029	0.339995
F	2.571739	0.0	0.0
