17

C	-0.382357	0.064155	-1.494506
C	0.0	0.0	0.0
Cl	-0.167731	-1.525966	-2.312752
H	1.090919	0.0	0.0
C	-1.785064	0.447869	-1.683266
N	-2.902985	0.778652	-1.837204
C	0.587151	1.063088	-2.126826
H	0.354249	2.059054	-1.748469
H	1.587183	0.777358	-1.77869
H	0.504688	1.046146	-3.214485
N	-0.578485	-1.233318	0.645186
O	0.086413	-2.264118	0.63851
O	-1.706304	-1.133296	1.147083
N	-0.463903	1.199184	0.626692
H	-1.410702	1.090718	0.970973
H	0.163419	1.424729	1.38818
F	2.600176	0.0	0.0
