17

C	-0.251029	-0.06927	-1.526419
C	0.0	0.0	0.0
Cl	-1.985202	-0.480931	-1.921495
H	1.092026	0.0	0.0
C	-0.046111	1.288486	-2.040354
N	0.123146	2.361606	-2.488429
C	0.71417	-1.01817	-2.225638
H	0.692435	-0.860586	-3.305801
H	0.452824	-2.048265	-1.992443
H	1.696963	-0.792627	-1.790265
N	-0.520831	-1.261827	0.60978
O	-1.491088	-1.194238	1.363126
O	0.043006	-2.31206	0.298525
N	-0.518432	1.125011	0.693296
H	0.140007	1.88669	0.618019
H	-1.440734	1.4076	0.388541
F	2.582831	0.0	0.0
