17

C	-0.32355	0.065116	-1.509995
C	0.0	0.0	0.0
Cl	-0.09343	-1.559214	-2.253934
H	1.090743	0.0	0.0
C	-1.694702	0.486143	-1.799154
N	-2.763004	0.908656	-2.046913
C	0.701441	1.020158	-2.125331
H	0.667849	0.974424	-3.214845
H	0.475251	2.041648	-1.806828
H	1.678428	0.724791	-1.717498
N	-0.65273	-1.201462	0.603217
O	0.048998	-2.08996	1.075244
O	-1.887336	-1.203106	0.600119
N	-0.439872	1.147832	0.735573
H	-1.289418	1.577246	0.392005
H	0.321125	1.808451	0.796629
F	2.617223	0.0	0.0
