17

C	-0.247217	-0.066624	-1.526334
C	0.0	0.0	0.0
Cl	-1.987014	-0.448087	-1.927519
H	1.09204	0.0	0.0
C	-0.016513	1.286789	-2.039283
N	0.158198	2.368395	-2.464188
C	0.70223	-1.034674	-2.220237
H	0.423143	-2.059479	-1.985248
H	0.68419	-0.880946	-3.301374
H	1.688826	-0.824262	-1.785092
N	-0.524716	-1.261514	0.607147
O	-1.509198	-1.194535	1.342067
O	0.050571	-2.310605	0.313282
N	-0.518847	1.124568	0.694486
H	0.142133	1.884559	0.622387
H	-1.438741	1.410312	0.38519
F	2.581371	0.0	0.0
