17
Coordinates from ORCA-job run
  C   -0.70742108244308     -0.28497738515141     -0.49334968902794
  C   0.73753380859468      0.08603715164630     -0.15558902297125
  Cl  -0.78850227770794     -1.44622777287317     -1.84111061397343
  H   1.21651563697285      0.39437515268173     -1.08948205483144
  N   -1.38852894998684      0.99802578381404     -1.08744225002182
  O   -2.58973474940706      1.11806701484797     -0.88171160033907
  O   -0.68513738663002      1.77610876942537     -1.72332402937069
  N   -1.39736232073871     -0.76928853254845      0.62353163393202
  H   -1.25238466201830     -0.10963677593408      1.38192773457596
  H   -2.38521460724330     -0.87446970641497      0.43080546312712
  C   1.48020104931538     -1.09867253791275      0.44006230391471
  H   2.52946301916088     -0.83046149662659      0.58990878819851
  H   1.44193539776357     -1.96459456715433     -0.21980922491504
  H   1.04198293447535     -1.37950492564617      1.39847057021887
  N   0.65047272215927      1.17209070678068      0.82290932469002
  H   0.65180555014687      2.06870184826706      0.35254602625579
  H   1.44337591758640      1.14442727279876      1.45065664053771
