17
Coordinates from ORCA-job run
  C   -0.79446160763418      0.09011385751086     -0.35179350879399
  C   0.58410183446708     -0.31565314220738      0.18749588332626
  Cl  -0.71993245876034      1.83070833037848     -0.92416931869483
  H   0.41207707331500     -1.28649189438796      0.66007091800439
  N   -1.87605416591754      0.08026393979563      0.73009083776139
  O   -1.56857892706779     -0.32697254664845      1.84559581077581
  O   -2.99572682310415      0.41268210637869      0.36647396953205
  N   -1.23411169591169     -0.81474772991835     -1.31949767920054
  H   -2.07135195972308     -0.50237580408425     -1.79270865255616
  H   -0.47032052264041     -1.02076952890514     -1.95266212031136
  C   1.19469558868481      0.64162018154545      1.20338500590293
  H   1.47440953362825      1.58332427785668      0.72849656774437
  H   0.51836446080645      0.85244633901133      2.03033554244475
  H   2.09973772869651      0.18484595271783      1.61181803926371
  N   1.42592572701340     -0.54492368762841     -0.98911995913148
  H   2.16846395901023     -1.19212593621042     -0.75791616792611
  H   1.85476225513745      0.32805528479542     -1.27589516814120
