17
Coordinates from ORCA-job run
  C   -0.74278624784511      0.20709654373938     -0.57021429224245
  C   0.48354237245920     -0.33717388961437      0.19340370088581
  Cl  -0.25121895512240      1.54765895969559     -1.61630524175946
  H   0.07924276025130     -1.16923242458099      0.78084565876122
  N   -1.71713460090416      0.71498577919527      0.49587443106110
  O   -1.85390085168498      1.91297252327691      0.68557355396227
  O   -2.25019576909064     -0.18670015457521      1.14110431643190
  N   -1.45406264257146     -0.75401847708872     -1.34984973741738
  H   -0.76353893432521     -1.22852991232978     -1.92308245506905
  H   -1.87182424528117     -1.42896446710079     -0.71809688691515
  C   1.12713192680128      0.67234480588185      1.13624502206963
  H   1.97094579764795      0.20033117656276      1.64530926152562
  H   1.49828969484683      1.53865337327105      0.58505343213010
  H   0.43262870114821      1.02703515428983      1.90123197405671
  N   1.37333809284569     -0.91241670656432     -0.80920149254582
  H   1.97269765206206     -0.19141384241547     -1.19445728130745
  H   1.96684524876259     -1.61162844164299     -0.38143396362759
