17
Coordinates from ORCA-job run
  C   -0.79068862679373     -0.01263307660603     -0.37159583124818
  C   0.61263010602331     -0.23939409587719      0.20740657340218
  Cl  -0.91180552704289      1.71439357012411     -0.97662792512470
  H   0.54697821571117     -1.21530161276562      0.69596010852846
  N   -1.89029932302556     -0.13451202783071      0.68514182021465
  O   -3.03224419434576      0.05271185815070      0.28847474849863
  O   -1.56434912985320     -0.48117181256680      1.81574367054260
  N   -1.09314055116726     -0.98037406657743     -1.33077853301346
  H   -1.95003020030282     -0.78117642141415     -1.82921135822205
  H   -0.29415569992027     -1.10334314837543     -1.94168366710267
  C   1.07767919925757      0.80265172390961      1.21688711367217
  H   1.25708464542030      1.76167969577517      0.72835568083621
  H   2.01878617313625      0.46451463220232      1.65796053812490
  H   0.35895015631609      0.94784855191442      2.02194383766872
  N   1.50550833325041     -0.38588985069095     -0.94452442936938
  H   1.83448411228059      0.52703607158225     -1.23862332122913
  H   2.31361231105581     -0.93603999095427     -0.68382902617894
