14

C	-0.4682	0.030462	-1.452635
C	0.0	0.0	0.0
Br	-2.41779	-0.025934	-1.608913
H	1.107504	0.0	0.0
H	-0.14701	0.954722	-1.933817
N	0.052217	-1.11156	-2.265498
O	0.052926	-0.850917	-3.539553
O	-0.39875	-2.27563	-1.906959
C	-0.41113	-1.24245	0.77454
N	0.162836	-1.666976	1.738173
N	-0.39307	1.231991	0.709181
O	-0.02636	2.304975	0.055487
O	-0.131074	1.215696	1.984871
Br	2.642364	0.0	0.0
