14

C	-0.494377	-0.113046	-1.433643
C	0.0	0.0	0.0
Br	0.547012	0.869056	-2.701257
H	1.097845	0.0	0.0
H	-0.436896	-1.161885	-1.732009
N	-1.982784	0.230305	-1.539648
O	-2.414798	0.676985	-2.589431
O	-2.646183	-0.058424	-0.548394
C	-0.448185	-1.11599	0.82168
N	-0.770792	-2.06589	1.432769
N	-0.408234	1.296006	0.641635
O	-0.320172	1.351889	1.861075
O	-0.744123	2.209325	-0.10587
Br	3.279426	0.0	0.0
