14

C	-0.441872	0.06512	-1.449745
C	0.0	0.0	0.0
Br	-2.364402	0.148656	-1.654049
H	1.095784	0.0	0.0
H	-0.011751	0.941273	-1.924188
N	0.086368	-1.133705	-2.201889
O	0.94175	-0.884617	-3.046359
O	-0.364658	-2.234737	-1.912364
C	-0.530067	-1.125843	0.745601
N	-0.95327	-2.044297	1.343447
N	-0.361222	1.291451	0.686724
O	-0.636404	1.239927	1.879099
O	-0.279167	2.309624	0.007399
Br	3.251769	0.0	0.0
