14

C	-0.389574	0.089856	-1.458655
C	0.0	0.0	0.0
Br	-2.305694	0.062713	-1.747152
H	1.09712	0.0	0.0
H	-0.005733	1.011432	-1.883565
N	0.215458	-1.032214	-2.259468
O	0.243645	-2.145626	-1.751192
O	0.601799	-0.72772	-3.383027
C	-0.55986	-1.112833	0.738653
N	-0.996943	-2.0142	1.351138
N	-0.358281	1.299421	0.682947
O	-0.631817	1.251445	1.876288
O	-0.275802	2.317965	0.004474
Br	3.252621	0.0	0.0
