16

C	-0.311963	0.006927	-1.471682
C	0.0	0.0	0.0
Br	0.257778	-1.652392	-2.305956
H	1.088342	0.0	0.0
H	-0.337918	0.934409	0.452906
N	-1.791368	0.254414	-1.775628
O	-2.343302	-0.323634	-2.701436
O	-2.311662	1.12398	-1.075412
C	0.507749	1.141022	-2.071629
H	1.534282	0.97598	-1.718766
H	0.446418	1.13905	-3.162744
H	0.135199	2.092766	-1.678324
N	-0.641957	-1.076165	0.76961
O	-0.257456	-1.235248	1.925451
O	-1.553665	-1.719013	0.242433
F	2.580187	0.0	0.0
