16

C	-0.508096	0.028941	-1.42948
C	0.0	0.0	0.0
Br	0.450323	1.321472	-2.522741
H	1.085491	0.0	0.0
H	-0.394188	-0.891507	0.480839
N	-0.25879	-1.35122	-2.064316
O	-0.473454	-1.458484	-3.266992
O	0.048504	-2.277057	-1.322496
C	-2.000138	0.274514	-1.570821
H	-2.2935	0.22772	-2.61981
H	-2.540994	-0.481336	-0.995038
H	-2.246007	1.260934	-1.175734
N	-0.571556	1.132241	0.745129
O	-1.382648	0.875758	1.648935
O	-0.231108	2.277001	0.442849
F	2.525855	0.0	0.0
