16

C	-0.252163	-0.095819	-1.486697
C	0.0	0.0	0.0
Br	-2.144803	-0.462244	-1.958304
H	1.090503	0.0	0.0
H	-0.432599	0.888314	0.442974
N	-0.034724	1.324411	-2.046998
O	-0.372456	2.275332	-1.349612
O	0.421724	1.415421	-3.181677
C	0.685072	-1.049011	-2.182111
H	1.682031	-0.783607	-1.806355
H	0.610568	-0.96508	-3.263637
H	0.449527	-2.059755	-1.857809
N	-0.479907	-1.145967	0.775284
O	-0.829413	-0.913756	1.935555
O	-0.467471	-2.273168	0.277079
F	2.557249	0.0	0.0
