16

C	-0.31789	0.026372	-1.469148
C	0.0	0.0	0.0
Br	0.250537	-1.615125	-2.336597
H	1.088328	0.0	0.0
H	-0.333431	0.929046	0.465176
N	-1.798438	0.274867	-1.761512
O	-2.325252	1.110516	-1.027685
O	-2.344028	-0.266355	-2.713483
C	0.493073	1.17331	-2.059475
H	0.432805	1.180446	-3.148945
H	1.519128	1.011874	-1.708107
H	0.115055	2.118697	-1.659098
N	-0.64022	-1.08303	0.759714
O	-1.525464	-1.750893	0.216909
O	-0.278504	-1.226413	1.925778
F	2.57674	0.0	0.0
