16

C	-0.317914	-0.055853	-1.47005
C	0.0	0.0	0.0
Br	-2.265227	-0.245373	-1.825651
H	1.090498	0.0	0.0
H	-0.415568	0.88484	0.466636
N	-0.004714	1.342102	-2.042207
O	-0.125249	2.308489	-1.297529
O	0.307012	1.403182	-3.226778
C	0.471731	-1.084166	-2.235223
H	1.511861	-0.926875	-1.926707
H	0.338002	-0.961256	-3.307352
H	0.157107	-2.074541	-1.917895
N	-0.504456	-1.146407	0.75985
O	-0.348755	-2.286979	0.319586
O	-1.026276	-0.90266	1.851578
F	2.541125	0.0	0.0
