16

C	-0.286864	-0.127113	-1.483976
C	0.0	0.0	0.0
Br	-0.173172	-2.047962	-1.893889
H	1.090087	0.0	0.0
H	-0.438459	-0.786517	0.604222
N	-1.727039	0.233801	-1.832854
O	-2.580608	0.006163	-0.98113
O	-1.943272	0.699806	-2.94726
C	0.719225	0.608061	-2.338914
H	0.533711	1.67858	-2.248279
H	0.655255	0.311314	-3.383831
H	1.694197	0.379887	-1.891929
N	-0.474719	1.275907	0.550134
O	-0.647655	2.229283	-0.215102
O	-0.637749	1.330318	1.768279
F	2.574241	0.0	0.0
