12
Coordinates from ORCA-job run
  C   0.50581376094005      0.44060790449885     -0.35749310923456
  C   -0.53629339571036     -0.34507939230006      0.41514544875767
  Br  0.07368148725847      0.54670695921307     -2.23853415562804
  H   -0.60699066509635     -1.35177602285584     -0.01159629905752
  H   0.60620005589362      1.45678289154743      0.01442109082844
  H   -0.16043992325434     -0.43987479672120      1.43982698813397
  N   1.84943462480190     -0.21018510260607     -0.20976702062849
  O   2.76453532874336      0.50977198015341      0.18260520628252
  O   1.92225397663957     -1.40948922962888     -0.45657376191119
  N   -1.77404335769132      0.41968352479337      0.44402058101680
  H   -2.28274454157865      0.28991324837153     -0.42116760423216
  H   -2.36240735094597      0.09393803553440      1.19911263567255
