12
Coordinates from ORCA-job run
  C   0.53968758712318      0.38608622210116     -0.37165081429273
  C   -0.56565496243064     -0.28647476564271      0.41991808804817
  Br  0.16130627738312      0.39190497683844     -2.26698496002557
  H   -0.22092492683591     -0.33734707799855      1.45851577577444
  H   0.68955022758794      1.41722131926490     -0.06292245626571
  H   -0.68686472793078     -1.31249383174937      0.05519033049081
  N   1.83861649575997     -0.32851597272517     -0.14310938451554
  O   2.78382789668990      0.36214084654204      0.23020793696001
  O   1.84752138667379     -1.54372811695259     -0.31013362621312
  N   -1.75574483607102      0.54960375457547      0.36570262306037
  H   -2.25209105193297      0.39084457021668     -0.50183567628432
  H   -2.37922936601657      0.31075807552970      1.12510216326320
