16

C	-0.392988	-0.110902	-1.472476
C	0.0	0.0	0.0
Br	-2.65582	-0.250624	-1.403702
H	1.100921	0.0	0.0
N	-0.00608	0.958234	-2.199321
H	-0.203944	0.980661	-3.185683
H	-0.073137	1.822084	-1.674144
C	-0.134276	-1.398462	-2.092018
N	0.071761	-2.455416	-2.565256
N	-0.42849	-1.093901	0.837598
H	-1.319931	-1.468664	0.537393
H	0.274057	-1.821527	0.828793
N	-0.410476	1.326098	0.439632
H	-1.348197	1.264034	0.821143
H	0.218644	1.595821	1.186734
Br	3.47566	0.0	0.0
