16

C	-0.418848	-0.03807	-1.486429
C	0.0	0.0	0.0
Br	0.004837	1.658763	-2.366362
H	1.096305	0.0	0.0
N	0.246059	-1.093787	-2.224559
H	1.242468	-0.878318	-2.183062
H	0.118133	-1.924971	-1.650198
C	-1.877735	-0.203485	-1.556179
N	-3.0443	-0.343786	-1.51109
N	-0.38262	-1.315568	0.534602
H	-1.301073	-1.274762	0.962747
H	0.294194	-1.587085	1.237853
N	-0.495921	1.167149	0.688613
H	-1.441464	1.0212	1.025834
H	0.110052	1.376277	1.472332
Br	3.518212	0.0	0.0
