16

C	-0.46302	-0.059908	-1.44355
C	0.0	0.0	0.0
Br	-2.712946	-0.139107	-1.233426
H	1.096586	0.0	0.0
N	-0.095271	1.026404	-2.15875
H	-0.122499	1.875998	-1.608061
H	-0.359909	1.07881	-3.128349
C	-0.26167	-1.325663	-2.126376
N	-0.074689	-2.304027	-2.751402
N	-0.411917	-1.186264	0.70731
H	0.22224	-1.354142	1.477073
H	-1.365488	-1.116365	1.038445
N	-0.364425	1.320183	0.512391
H	0.295367	1.575333	1.236773
H	-1.303515	1.303781	0.892462
Br	3.472907	0.0	0.0
