11

C	-0.455081	0.073287	-1.463096
C	0.0	0.0	0.0
F	-0.159715	-1.115232	-2.094504
H	1.095935	0.0	0.0
H	0.094057	0.879699	-1.95366
H	-1.533965	0.238558	-1.536152
C	-0.522347	-1.196981	0.655926
N	-0.973513	-2.153052	1.166146
C	-0.463299	1.202837	0.692095
N	-0.844151	2.193766	1.194074
Br	3.368179	0.0	0.0
