12

C	-0.41212	0.047429	-1.437521
C	0.0	0.0	0.0
F	-1.777465	0.107801	-1.624628
H	1.091903	0.0	0.0
H	0.054886	0.863001	-1.988297
H	-0.358508	-0.920739	0.463466
N	0.023602	-1.219812	-2.129739
O	0.6739	-1.100025	-3.164237
O	-0.356649	-2.276308	-1.632781
C	-0.505037	1.161426	0.707921
N	-0.891181	2.111118	1.28205
H	2.703249	0.0	0.0
