12

C	-0.395499	0.040171	-1.450636
C	0.0	0.0	0.0
F	-0.103996	1.262723	-1.972699
H	1.09297	0.0	0.0
H	0.08684	-0.737479	-2.043265
H	-0.366637	0.90509	0.491112
N	-1.883387	-0.162272	-1.626143
O	-2.24774	-1.29213	-1.950525
O	-2.617133	0.794113	-1.39357
C	-0.496749	-1.184536	0.673812
N	-0.868247	-2.147886	1.235447
H	2.689284	0.0	0.0
