12

C	-0.430494	0.084989	-1.432361
C	0.0	0.0	0.0
F	-1.798809	0.096493	-1.595338
H	1.092889	0.0	0.0
H	-0.006665	0.938582	-1.9571
H	-0.353327	-0.935611	0.43753
N	0.059706	-1.134898	-2.169767
O	0.833777	-0.950624	-3.104453
O	-0.379642	-2.217358	-1.791245
C	-0.512968	1.13824	0.740941
N	-0.915546	2.073321	1.328492
H	2.704498	0.0	0.0
