12

C	-0.452913	0.094233	-1.427406
C	0.0	0.0	0.0
F	-1.759191	0.501946	-1.557648
H	1.091591	0.0	0.0
H	0.191265	0.774561	-1.984378
H	-0.275667	0.948053	0.474943
N	-0.351115	-1.230814	-2.142
O	-1.271585	-2.024113	-1.975061
O	0.646787	-1.408091	-2.835628
C	-0.574315	-1.094923	0.758061
N	-0.994001	-1.968731	1.422783
H	2.695327	0.0	0.0
