12

C	-0.512006	0.019065	-1.422837
C	0.0	0.0	0.0
F	-0.380209	-1.210084	-1.989656
H	1.094425	0.0	0.0
H	-1.552099	0.339928	-1.530435
H	-0.305192	-0.957222	0.433516
N	0.264707	1.013634	-2.267682
O	0.201572	2.169406	-1.864993
O	0.81584	0.619463	-3.283676
C	-0.544275	1.076671	0.80611
N	-0.980581	1.928682	1.488144
H	2.704655	0.0	0.0
