12

C	0.0	0.0	0.0
C	-0.50869	0.046485	-1.43276
F	1.380686	0.0	0.0
H	-1.612163	0.063577	-1.297422
H	-0.29489	0.92706	0.508893
H	-0.182005	-0.869151	-1.933832
N	-0.519058	-1.185401	0.606804
H	-0.276785	-1.163093	1.592795
H	-1.547668	-0.998478	0.523683
C	-0.014148	1.20538	-2.162046
N	0.393253	2.137849	-2.748605
F	-2.809578	0.0	0.0
