12

C	0.0	0.0	0.0
C	-0.511865	0.136647	-1.433247
F	1.394718	0.0	0.0
H	-1.610739	0.201998	-1.257705
H	-0.316869	0.88398	0.556578
H	-0.281964	-0.778658	-1.990408
N	-0.540519	-1.139893	0.669212
H	-0.446039	-1.94024	0.047033
H	-1.558152	-0.883053	0.649166
C	0.025249	1.282498	-2.15066
N	0.455635	2.211286	-2.727326
F	-2.817455	0.0	0.0
