12

C	0.0	0.0	0.0
C	-0.536284	0.126302	-1.414755
F	1.410557	0.0	0.0
H	-0.321508	-0.798542	-1.959503
H	-0.277447	0.905603	0.554954
H	-1.633744	0.21926	-1.224024
N	-0.526525	-1.202367	0.559743
H	-1.552729	-1.017297	0.451856
H	-0.335664	-1.190251	1.557417
C	-0.006374	1.27359	-2.137451
N	0.419271	2.206828	-2.716482
F	-2.838993	0.0	0.0
