12

C	0.0	0.0	0.0
C	-0.492218	-0.064303	-1.450238
F	1.387186	0.0	0.0
H	-1.595453	-0.031919	-1.300859
H	-0.339046	0.956346	0.402125
H	-0.143227	0.800042	-2.026308
N	-0.51872	-1.0269	0.842402
H	-0.340555	-1.924427	0.398273
H	-1.543127	-0.830288	0.75409
C	-0.065953	-1.286454	-2.117283
N	0.274146	-2.280718	-2.643811
F	-2.799798	0.0	0.0
