12

C	0.0	0.0	0.0
C	-0.524983	-0.199709	-1.413038
F	1.380787	0.0	0.0
H	-0.213946	0.635997	-2.047373
H	-0.296594	1.011706	0.310522
H	-1.627457	-0.178266	-1.257675
N	-0.525612	-1.031761	0.835499
H	-0.303342	-0.801926	1.799449
H	-1.551571	-0.872384	0.703083
C	-0.063819	-1.44351	-2.015013
N	0.286832	-2.428504	-2.549779
F	-2.828113	0.0	0.0
