12

C	0.0	0.0	0.0
C	-0.505836	0.046253	-1.443295
F	1.387916	0.0	0.0
H	-0.249147	-0.895432	-1.941076
H	-0.311538	0.918304	0.502363
H	-1.606675	0.104236	-1.28157
N	-0.529915	-1.097855	0.737328
H	-1.550621	-0.867937	0.705164
H	-0.405261	-1.943321	0.182437
C	0.019302	1.155696	-2.224026
N	0.451176	2.046386	-2.857607
F	-2.817909	0.0	0.0
