15

C	0.0	0.0	0.0
C	-0.352132	-0.080443	-1.503761
Cl	1.782509	0.0	0.0
H	0.35268	0.591112	-2.004996
H	-0.271737	1.004145	0.347191
N	-0.579584	-1.076255	0.740127
H	-0.501176	-0.890491	1.732667
H	-1.577822	-1.091491	0.52253
C	-1.760685	0.361534	-1.892667
H	-1.839588	0.361087	-2.983296
H	-2.555738	-0.254127	-1.479111
H	-1.944406	1.375448	-1.53213
C	-0.051015	-1.423121	-2.017629
N	0.18377	-2.467204	-2.501211
Cl	-4.41804	0.0	0.0
