15

C	0.0	0.0	0.0
C	-0.351847	-0.323645	-1.471904
Cl	1.838047	0.0	0.0
H	0.276451	0.309254	-2.106445
H	-0.281504	1.035011	0.197603
N	-0.54782	-0.832673	1.003536
H	-1.497898	-0.541133	1.214591
H	-0.551183	-1.806788	0.726105
C	-1.822356	-0.077798	-1.782808
H	-2.028131	-0.307719	-2.830403
H	-2.083307	0.965593	-1.596774
H	-2.491934	-0.661905	-1.155979
C	0.015747	-1.713509	-1.758089
N	0.273079	-2.839883	-1.969231
Cl	-4.578289	0.0	0.0
