16
Coordinates from ORCA-job run
  C   0.65759197044941      0.15129239499455      0.00774825451446
  C   -0.76699705776251     -0.03972564034696     -0.52697459401701
  Cl  1.73289314052741     -1.00184698207957     -0.88131095397901
  H   -0.75395218964117      0.12570076497502     -1.60856637560383
  H   -1.37335627196807      0.76425400814835     -0.08956886906908
  N   0.83840326015347     -0.12950835415147      1.41789987755678
  H   0.55456633341671     -1.07746107236675      1.63356108133054
  H   0.26599553847594      0.50906120581194      1.96036074702700
  C   1.15937258445635      1.55615651952376     -0.27356382294985
  H   1.10174920241640      1.78292423967655     -1.33901790449269
  H   0.54421075576330      2.28078073738809      0.27014892887336
  H   2.19200430924055      1.65026786133165      0.06175596688806
  C   -1.40816830660836     -1.38604089966872     -0.21529682009605
  H   -1.53629414103636     -1.53292722135770      0.85944011226291
  H   -0.80947303073739     -2.20918745581612     -0.60823232359401
  H   -2.39954609714568     -1.44574010606261     -0.66938330465158
