16
Coordinates from ORCA-job run
  C   0.56395597719043      0.19263789774897      0.06033172146348
  C   -0.79863239283415     -0.04979834190690     -0.57941533834927
  Cl  1.75979475680452     -0.98380522597481     -0.76820356730960
  H   -1.44191899870725      0.77318188877536     -0.24829709021310
  H   -0.68095179239676      0.03957245650862     -1.66232957272150
  N   0.51693901032508     -0.01736822039831      1.46336632421183
  H   0.26768283470836     -0.97148279495814      1.68957093322894
  H   1.41142093522466      0.18839846852454      1.89124409925048
  C   1.08885739460042      1.58333249971917     -0.24131594274297
  H   1.12446287049856      1.75640789249819     -1.31700874962632
  H   0.42887256352422      2.31816748073121      0.22581982769882
  H   2.09810270640134      1.70982375468950      0.15700341568764
  C   -1.45129342950030     -1.38139291031905     -0.22990916613991
  H   -1.72048802880884     -1.42873042595406      0.82761864319462
  H   -2.37309283870839     -1.50977960910826     -0.80113327869600
  H   -0.79271156832190     -2.21916481057603     -0.46634225893714
