16
Coordinates from ORCA-job run
  C   0.65137832661768      0.00895876133498      0.22581379290096
  C   -0.66733826158299     -0.75741702311246      0.25487162291707
  Cl  1.68570057035063     -0.74734680442576     -1.13128376145815
  H   -0.43571749257543     -1.81307558952255      0.43372370317456
  H   -1.20325271852535     -0.39300960516904      1.13801368768961
  N   1.29399543836733     -0.12086459644593      1.48816371025109
  H   1.42109341924655     -1.09557477642596      1.73315963365516
  H   2.20135863961142      0.32924601689895      1.48431968459299
  C   0.50299296962945      1.47556962538019     -0.12772061834545
  H   1.47446202544189      1.97332590611018     -0.08746483334919
  H   0.10130295882552      1.60537335296076     -1.13114368865850
  H   -0.16307546063003      1.94783395618992      0.59892787094951
  C   -1.54162733923730     -0.62411124946338     -0.98455602062727
  H   -1.89736161330522      0.39921776292847     -1.11817174050654
  H   -2.42101104102960     -1.26509912722118     -0.89003181225810
  H   -1.00290042120456     -0.92302661001721     -1.88462123092774
