16
Coordinates from ORCA-job run
  C   0.74318729970603     -0.00803712595056      0.11605003393679
  C   -0.59004385505642     -0.75250596288649      0.23698388580936
  Cl  1.66381714009247     -0.75675339674803     -1.25292403884126
  H   -0.36083982713282     -1.81068748249067      0.40380722647041
  H   -1.06332570116401     -0.38397469124446      1.15637782597940
  N   1.58669510186487     -0.14703472669682      1.28722002943627
  H   1.66870290938056     -1.12582725309070      1.54082491608146
  H   1.15638530363087      0.34586484435795      2.06290427543833
  C   0.57550550538162      1.46949544466524     -0.18482914268309
  H   1.55662964007345      1.94414755611231     -0.20026701339469
  H   -0.03380458033442      1.93759969354494      0.59612442248428
  H   0.08922618354806      1.62885458080499     -1.14617625302039
  C   -1.55768505443518     -0.60832834112518     -0.93196303362676
  H   -1.90881806445215      0.41960450933130     -1.04010981736767
  H   -1.08919947889525     -0.91307761361592     -1.86877736513152
  H   -2.43543252220767     -1.23934003496789     -0.77424595157093
