14

C	0.0	0.0	0.0
C	-0.502467	0.152471	-1.430696
Br	1.955508	0.0	0.0
H	-1.592707	0.290348	-1.372928
H	-0.242269	-0.744546	-1.987003
C	-0.34409	1.136168	0.880019
N	-0.526307	1.949078	1.710207
N	-0.49726	-1.263472	0.472349
H	-1.523691	-1.187319	0.413018
H	-0.260236	-1.364071	1.453692
N	0.084244	1.30345	-2.153799
O	0.066626	2.397876	-1.594838
O	0.522865	1.090071	-3.285444
Cl	-3.472883	0.0	0.0
