14

C	0.0	0.0	0.0
C	-0.472963	0.206781	-1.448015
Br	1.979877	0.0	0.0
H	-1.569174	0.101925	-1.41694
H	-0.173042	1.176669	-1.838882
C	-0.348048	1.223766	0.737806
N	-0.557002	2.208614	1.34281
N	-0.480659	-1.14118	0.71185
H	-1.49381	-0.995334	0.810019
H	-0.345036	-1.956104	0.123248
N	0.074724	-0.804307	-2.384737
O	0.020756	-1.989677	-2.054103
O	0.526893	-0.397987	-3.454491
Cl	-3.45503	0.0	0.0
