14

C	0.0	0.0	0.0
C	-0.432072	0.13055	-1.47109
Br	1.964639	0.0	0.0
H	-1.520979	0.223788	-1.492996
H	0.083545	0.969585	-1.93536
C	-0.373957	1.243792	0.69957
N	-0.596103	2.256348	1.255311
N	-0.437034	-1.233516	0.565274
H	-0.151949	-1.288878	1.535817
H	-1.461421	-1.248856	0.501643
N	-0.067233	-1.082221	-2.258107
O	-0.817339	-2.05044	-2.183204
O	0.952802	-1.026057	-2.950843
Cl	-3.395746	0.0	0.0
