14

C	0.0	0.0	0.0
C	-0.449664	-0.285158	-1.484839
Cl	1.76033	0.0	0.0
H	0.48266	-0.340288	-2.055584
H	-0.382766	-0.757398	0.676503
N	-0.384325	1.322536	0.614832
O	-0.320259	2.315329	-0.098916
O	-0.621448	1.299375	1.816009
C	-1.18629	0.795616	-2.157691
N	-1.610805	1.597918	-2.902682
N	-1.128304	-1.548926	-1.674418
H	-2.021009	-1.486578	-1.17998
H	-0.568878	-2.295708	-1.278056
Br	-3.411823	0.0	0.0
