14

C	0.0	0.0	0.0
C	-0.454466	-0.33308	-1.471947
Cl	1.760589	0.0	0.0
H	0.476138	-0.408772	-2.04329
H	-0.37798	-0.739679	0.698871
N	-0.389508	1.337056	0.577907
O	-0.310074	2.311592	-0.159719
O	-0.649454	1.343282	1.774983
C	-1.190159	0.726607	-2.176812
N	-1.61588	1.526127	-2.924397
N	-1.13672	-1.601915	-1.617467
H	-2.03081	-1.516637	-1.128151
H	-0.58157	-2.334073	-1.188447
Br	-3.433997	0.0	0.0
