14

C	0.0	0.0	0.0
C	-0.59338	-0.223479	-1.387429
Cl	1.750533	0.0	0.0
H	-1.686143	-0.14679	-1.226085
H	-0.367594	-0.758215	0.688051
N	-0.441939	1.312023	0.609302
O	-0.501396	1.333548	1.831433
O	-0.639376	2.262168	-0.140137
C	-0.292778	-1.606849	-1.766337
N	-0.062688	-2.710656	-2.093845
N	-0.048656	0.675936	-2.407342
H	-0.415046	0.375459	-3.303653
H	-0.430361	1.595348	-2.216791
Br	-3.687099	0.0	0.0
