14

C	0.0	0.0	0.0
C	-0.447768	0.313228	-1.480388
Cl	1.762758	0.0	0.0
H	0.486988	0.457538	-2.030505
H	-0.378624	-0.965484	0.321097
N	-0.394447	0.9677	1.086283
O	-0.325895	2.1625	0.828227
O	-0.647327	0.465548	2.173946
C	-1.156468	1.585281	-1.684671
N	-1.599336	2.609142	-2.050342
N	-1.153594	-0.763509	-2.141592
H	-2.048968	-0.873596	-1.65957
H	-0.615095	-1.618311	-2.056418
Br	-3.445368	0.0	0.0
