13

C	0.0	0.0	0.0
C	-0.606483	-0.040897	-1.390714
Cl	1.790459	0.0	0.0
H	-1.712148	-0.000564	-1.172103
H	-0.307518	0.945686	0.449852
H	-0.319656	0.835641	-1.978693
C	-0.500439	-1.149478	0.849315
H	-1.597343	-1.07507	0.841978
H	-0.179727	-2.105799	0.428009
H	-0.120832	-1.069047	1.870785
C	-0.273319	-1.247568	-2.133821
N	-0.009523	-2.216615	-2.742959
H	-3.196898	0.0	0.0
