17

C	-0.415745	-0.009389	-1.485519
C	0.0	0.0	0.0
F	-0.081269	1.243546	-1.99953
H	1.09556	0.0	0.0
C	0.366672	-1.032316	-2.280951
H	1.435598	-0.871385	-2.1257
H	0.125055	-0.930312	-3.343622
H	0.112456	-2.043506	-1.955193
N	-1.860197	-0.079169	-1.586199
H	-2.178963	-0.967269	-1.214922
H	-2.118289	-0.038654	-2.566722
C	-0.484841	-1.24592	0.608119
N	-0.923804	-2.255676	1.018758
N	-0.496118	1.149964	0.739683
H	-1.385957	1.421533	0.333525
H	0.163306	1.904659	0.5893
Cl	3.378306	0.0	0.0
