17

C	-0.406322	-0.133657	-1.481942
C	0.0	0.0	0.0
F	-0.098632	-1.437434	-1.858285
H	1.093902	0.0	0.0
C	-1.886345	0.078553	-1.719972
H	-2.179867	1.086414	-1.422561
H	-2.083868	-0.053162	-2.784893
H	-2.466951	-0.652152	-1.153451
N	0.382405	0.741931	-2.310073
H	1.362153	0.553454	-2.091727
H	0.210777	1.685269	-1.970437
C	-0.541079	-1.086317	0.816377
N	-1.08061	-1.90712	1.463914
N	-0.392003	1.330603	0.485664
H	-1.243858	1.283243	1.028044
H	0.34642	1.67241	1.086872
Cl	3.334904	0.0	0.0
