17

C	-0.376911	0.04161	-1.491528
C	0.0	0.0	0.0
F	-0.159328	-1.285374	-1.970583
H	1.095973	0.0	0.0
C	-1.835591	0.335466	-1.75526
H	-2.462334	-0.428869	-1.290379
H	-2.084765	1.320126	-1.361171
H	-2.023609	0.31955	-2.832698
N	0.479256	0.962139	-2.135445
H	0.392038	0.87749	-3.139987
H	1.44519	0.801267	-1.858083
C	-0.504823	-1.229511	0.624817
N	-0.9664	-2.141631	1.204567
N	-0.447568	1.200913	0.701822
H	-1.33365	1.033568	1.164903
H	0.24253	1.432208	1.407335
Cl	3.354333	0.0	0.0
