17

C	-0.417856	0.009104	-1.482157
C	0.0	0.0	0.0
F	-0.061861	-1.235223	-1.995814
H	1.094894	0.0	0.0
C	-1.908286	0.174187	-1.68429
H	-2.447245	-0.628815	-1.175621
H	-2.115922	0.127213	-2.753885
H	-2.243559	1.138359	-1.298024
N	0.322161	0.997879	-2.223493
H	1.311978	0.79619	-2.075619
H	0.150426	1.888022	-1.76572
C	-0.51381	-1.179422	0.703345
N	-0.986326	-2.071662	1.305645
N	-0.414476	1.262099	0.62452
H	0.282197	1.51483	1.316096
H	-1.303261	1.153321	1.099012
Cl	3.341663	0.0	0.0
