17

C	-0.37568	0.143821	-1.477923
C	0.0	0.0	0.0
F	-0.007142	-1.072764	-2.09883
H	1.098993	0.0	0.0
C	-1.854954	0.320976	-1.739437
H	-2.390313	-0.564132	-1.389956
H	-2.026448	0.430643	-2.814321
H	-2.232888	1.197561	-1.213741
N	0.398344	1.229627	-1.980251
H	1.384371	1.042234	-1.795529
H	0.265764	1.318225	-2.979944
C	-0.535227	-1.238941	0.56045
N	-0.989598	-2.211712	1.034767
N	-0.526457	1.155335	0.750265
H	-0.013196	1.190985	1.625074
H	-0.218549	1.966459	0.222168
Cl	3.373907	0.0	0.0
