17

C	-0.401513	-0.016028	-1.486375
C	0.0	0.0	0.0
F	0.111466	1.199769	-2.009664
H	1.095743	0.0	0.0
C	0.275041	-1.139114	-2.23466
H	1.348995	-1.093682	-2.041982
H	-0.117208	-2.10246	-1.905879
H	0.095735	-1.023666	-3.307982
N	-1.820861	-0.038517	-1.656499
H	-2.211388	0.815796	-1.274975
H	-2.039085	-0.056899	-2.646264
C	-0.478131	-1.227542	0.64151
N	-0.888017	-2.204106	1.147958
N	-0.450276	1.154346	0.765943
H	-1.457424	1.262417	0.715592
H	0.000792	1.977281	0.384549
Cl	3.402525	0.0	0.0
