17

C	-0.382947	-0.019823	-1.475434
C	0.0	0.0	0.0
F	-1.786762	-0.061476	-1.578588
H	1.096368	0.0	0.0
C	0.070582	1.241864	-2.180754
H	-0.226901	1.18536	-3.232622
H	1.157803	1.317085	-2.108449
H	-0.377804	2.119786	-1.719034
N	0.117772	-1.246113	-2.034745
H	0.029051	-1.217272	-3.044599
H	1.104703	-1.331768	-1.802995
C	-0.484405	-1.218885	0.670407
N	-0.87899	-2.125726	1.30495
N	-0.466864	1.216525	0.654526
H	0.069233	1.350436	1.502272
H	-1.442267	1.115019	0.90646
Cl	3.352053	0.0	0.0
