17

C	-0.347171	0.002745	-1.494042
C	0.0	0.0	0.0
F	-1.746111	-0.064337	-1.606226
H	1.099951	0.0	0.0
C	0.132714	1.273812	-2.151395
H	1.212308	1.368045	-2.012727
H	-0.105455	1.22307	-3.215138
H	-0.35506	2.130114	-1.689917
N	0.184214	-1.144506	-2.186303
H	-0.098519	-1.990291	-1.70043
H	1.198793	-1.093096	-2.130552
C	-0.469881	-1.255915	0.610642
N	-0.898798	-2.228643	1.113015
N	-0.480173	1.185436	0.696925
H	0.098977	1.337948	1.513246
H	-1.438173	1.052581	0.997361
Cl	3.327594	0.0	0.0
