16

C	-0.351547	-0.099864	-1.480637
C	0.0	0.0	0.0
Br	-2.33196	-0.26333	-1.658314
H	1.092316	0.0	0.0
H	-0.388276	0.90708	0.458084
C	0.074268	1.203642	-2.134804
H	-0.138141	1.151717	-3.203103
H	-0.446554	2.057506	-1.699371
H	1.1516	1.324208	-1.977663
N	0.246414	-1.199871	-2.195227
H	0.052806	-2.052156	-1.68277
H	1.253973	-1.0552	-2.140927
N	-0.475398	-1.114577	0.848526
O	-0.417352	-2.263297	0.408325
O	-0.882527	-0.826858	1.97275
Cl	3.300708	0.0	0.0
