16

C	-0.319558	-0.081618	-1.490957
C	0.0	0.0	0.0
Br	-2.290462	-0.285313	-1.717549
H	1.092276	0.0	0.0
H	-0.399646	0.899295	0.464408
C	0.093387	1.240315	-2.113593
H	-0.456088	2.077319	-1.679823
H	1.164301	1.379833	-1.928377
H	-0.091475	1.201002	-3.187708
N	0.319185	-1.155303	-2.20711
H	1.322784	-0.98251	-2.144493
H	0.151787	-2.019867	-1.705674
N	-0.494713	-1.131831	0.81194
O	-0.352616	-2.275013	0.37838
O	-1.017537	-0.863741	1.893021
Cl	3.30686	0.0	0.0
