16

C	-0.551714	-0.117184	-1.432025
C	0.0	0.0	0.0
Br	-0.373949	1.722933	-2.158432
H	1.087851	0.0	0.0
H	-0.395265	0.877689	0.506381
C	0.279526	-1.036978	-2.304004
H	0.184094	-2.060118	-1.933133
H	-0.075953	-0.985028	-3.334227
H	1.331749	-0.756614	-2.239894
N	-1.952152	-0.46274	-1.523507
H	-2.490599	0.054716	-0.837248
H	-2.053742	-1.454274	-1.333481
N	-0.490923	-1.155993	0.794148
O	-1.25749	-0.919032	1.733087
O	-0.154684	-2.288116	0.446988
Cl	3.361367	0.0	0.0
