16

C	-0.455615	0.064527	-1.439184
C	0.0	0.0	0.0
Br	-2.611391	0.229613	-1.315869
H	1.093871	0.0	0.0
H	-0.364794	0.864626	0.548009
C	-0.028725	1.384578	-2.043073
H	1.065046	1.41102	-2.013025
H	-0.435964	2.225624	-1.482717
H	-0.372118	1.457928	-3.077052
N	-0.082482	-1.008499	-2.214203
H	-0.217065	-1.907243	-1.778648
H	-0.388853	-0.960541	-3.173107
N	-0.471915	-1.179418	0.759526
O	-0.829949	-0.992942	1.918764
O	-0.447062	-2.283226	0.21228
Cl	3.302975	0.0	0.0
