16

C	-0.597929	0.020438	-1.404528
C	0.0	0.0	0.0
Br	0.13052	1.491579	-2.481182
H	1.092837	0.0	0.0
H	-0.331739	-0.927355	0.473628
C	-0.182201	-1.275888	-2.081815
H	-0.540255	-1.280323	-3.111461
H	-0.627306	-2.124168	-1.548059
H	0.9046	-1.376405	-2.057885
N	-2.047266	0.163074	-1.446763
H	-2.306297	1.068205	-1.067444
H	-2.448841	-0.550929	-0.843708
N	-0.532498	1.061888	0.885854
O	-0.475485	2.230925	0.508991
O	-1.028179	0.701442	1.957583
Cl	3.334041	0.0	0.0
