15

C	-0.412434	0.329238	-1.428275
C	0.0	0.0	0.0
Cl	-0.153618	2.012958	-1.833387
H	1.100444	0.0	0.0
H	0.190864	-0.287185	-2.096256
N	-1.845372	-0.075229	-1.71572
O	-1.971899	-1.244875	-2.081021
O	-2.746798	0.732547	-1.552777
N	-0.53922	-1.273924	0.414315
H	-0.423587	-1.94449	-0.336704
H	0.037344	-1.597889	1.183867
N	-0.525398	1.048984	0.944598
O	0.286668	1.847984	1.404424
O	-1.733754	1.038306	1.179896
Br	3.442234	0.0	0.0
