15

C	-0.549092	0.041675	-1.417597
C	0.0	0.0	0.0
F	-0.12354	-1.046086	-2.16511
H	1.095056	0.0	0.0
H	-1.643627	0.003394	-1.366568
C	-0.184817	1.279632	-2.129863
N	0.033426	2.270742	-2.719218
C	-0.495609	-1.253867	0.696626
H	-1.585232	-1.227827	0.81563
H	-0.032603	-1.33043	1.683754
H	-0.213421	-2.14193	0.13065
N	-0.544463	1.201117	0.660842
H	0.111677	1.959889	0.500946
H	-0.529532	1.03695	1.661302
Cl	3.475511	0.0	0.0
