15

C	-0.403053	0.008458	-1.471406
C	0.0	0.0	0.0
F	-1.793474	0.182471	-1.593179
H	1.09653	0.0	0.0
H	0.065141	0.860353	-1.971763
C	-0.062114	-1.223323	-2.197396
N	0.170698	-2.205543	-2.798058
C	-0.535273	-1.219466	0.731083
H	-0.211258	-1.162987	1.770161
H	-1.629807	-1.24601	0.706936
H	-0.149779	-2.144496	0.296688
N	-0.445413	1.223376	0.66377
H	-1.383767	1.460012	0.357916
H	0.179919	1.984572	0.422655
Cl	3.450964	0.0	0.0
