15

C	-0.435408	0.05175	-1.455172
C	0.0	0.0	0.0
F	-0.026878	1.235458	-2.039834
H	1.095473	0.0	0.0
H	0.019495	-0.771037	-2.018199
C	-1.906567	-0.031706	-1.580493
N	-3.071961	-0.135366	-1.67636
C	-0.481403	-1.286854	0.648804
H	-0.16887	-2.161823	0.073261
H	-0.03144	-1.374433	1.640079
H	-1.571762	-1.302376	0.748563
N	-0.537977	1.182845	0.679664
H	-0.870477	0.920698	1.608049
H	0.218642	1.854128	0.806125
Cl	3.477928	0.0	0.0
