15

C	-0.493533	-0.004171	-1.445728
C	0.0	0.0	0.0
F	-0.077376	-1.130574	-2.137957
H	1.095272	0.0	0.0
H	-1.593866	-0.022257	-1.450611
C	-0.075379	1.19941	-2.187425
N	0.185716	2.174032	-2.78684
C	-0.511357	-1.236075	0.719221
H	-0.197615	-2.145132	0.20361
H	-0.09861	-1.243667	1.728167
H	-1.60686	-1.226359	0.791739
N	-0.435303	1.211375	0.68919
H	0.182455	1.97839	0.454146
H	-1.385604	1.468674	0.441292
Cl	3.454047	0.0	0.0
