15

C	-0.382314	-0.015771	-1.482055
C	0.0	0.0	0.0
F	-0.000749	1.173375	-2.08865
H	1.096153	0.0	0.0
H	0.132976	-0.830072	-1.999267
C	-1.84043	-0.154216	-1.671458
N	-3.004713	-0.267153	-1.772891
C	-0.492221	-1.264148	0.685061
H	-0.151839	-2.161109	0.159465
H	-0.081686	-1.284841	1.694573
H	-1.585662	-1.289464	0.751565
N	-0.474603	1.180498	0.702553
H	0.037745	1.987264	0.369346
H	-1.46315	1.33304	0.525063
Cl	3.465398	0.0	0.0
