15

C	-0.546725	0.044301	-1.418615
C	0.0	0.0	0.0
F	-0.132389	-1.049815	-2.163053
H	1.09501	0.0	0.0
H	-1.641639	0.018781	-1.369298
C	-0.165146	1.276659	-2.131407
N	0.081573	2.270582	-2.704574
C	-0.498818	-1.253392	0.694897
H	-1.589489	-1.22869	0.806716
H	-0.211837	-2.142047	0.132048
H	-0.042275	-1.327828	1.685384
N	-0.541365	1.202668	0.660886
H	0.122972	1.956564	0.509819
H	-0.537607	1.034258	1.661137
Cl	3.474214	0.0	0.0
