15

C	-0.550821	0.013029	-1.417322
C	0.0	0.0	0.0
F	-0.115639	-1.082142	-2.147518
H	1.100802	0.0	0.0
H	-1.644463	-0.035754	-1.363267
C	-0.194834	1.241447	-2.150059
N	0.076979	2.20908	-2.755533
C	-0.493687	-1.240422	0.721791
H	-1.582743	-1.213343	0.842805
H	-0.211988	-2.138306	0.171445
H	-0.028196	-1.299101	1.708578
N	-0.547499	1.211991	0.637463
H	0.10409	1.970332	0.457182
H	-0.525356	1.070631	1.64158
Cl	3.477397	0.0	0.0
