15
Coordinates from ORCA-job run
  C   0.86573211082467     -0.26334592191827     -0.48631845096951
  C   -0.54353318797785      0.15390185029786     -0.07687062751297
  F   0.91189782331787     -0.56748501944025     -1.81310288104247
  H   -0.82846511746340      0.94803703751427     -0.77555924098509
  H   1.26542869758083     -1.09591511070792      0.09572537567915
  N   1.79487747657768      0.89231119502847     -0.24390839013009
  O   1.73729176045810      1.82546507589616     -1.03664317670531
  O   2.48298300268107      0.83395216076223      0.77354208510141
  N   -0.63352999144262      0.68735230295109      1.26941018413162
  H   -0.27071614417224      0.03165531722726      1.95093866259113
  H   -0.13085093356256      1.55973459863952      1.36889597803079
  C   -1.48394783495638     -1.03128711240860     -0.23504408482088
  H   -2.50258814171455     -0.70953897451375     -0.01817887642994
  H   -1.22169391075382     -1.82473050670794      0.47209785800985
  H   -1.44388560939678     -1.44110689262014     -1.24498441494769
