15
Coordinates from ORCA-job run
  C   0.94527388890026      0.63070452556746     -0.17855648529856
  C   -0.52326131340039      0.25272030548385     -0.23154811734520
  F   1.34388855308918      0.81098711548006      1.10884502870949
  H   -0.77545831984841      0.16039195297289     -1.29171061734527
  H   1.15801057212846      1.53053157686671     -0.75540249747374
  N   1.76600088790282     -0.47849822160633     -0.78340711319104
  O   2.46398367589743     -1.16327402325669     -0.04878855547023
  O   1.61575004459188     -0.61183510653856     -1.99479504574051
  N   -1.24473216266358      1.40485295892036      0.29911623720369
  H   -2.23298852316665      1.31197762654305      0.10119182279783
  H   -1.13534275598412      1.43958116492102      1.30610979098775
  C   -0.78756067149929     -1.07269706967540      0.48047661490874
  H   -1.86039894195457     -1.27671495691368      0.48140200774872
  H   -0.28863601751234     -1.91301207023089     -0.00842434977163
  H   -0.44452891648067     -1.02671577853385      1.51649127927996
