15
Coordinates from ORCA-job run
  C   0.86848456051382      0.61646268351574     -0.10141136690512
  C   -0.59283833636187      0.18570079290797     -0.21840539071893
  F   1.23162433133866      0.72971358711931      1.20427395933049
  H   -0.81777396532748      0.13446008466875     -1.28761982202339
  H   1.07350895152830      1.55933966869239     -0.61270973962103
  N   1.75070308824292     -0.40891158323067     -0.76158147623814
  O   1.64590626014330     -0.44402826261693     -1.98499887290406
  O   2.44090492406386     -1.13396731722643     -0.05917565693388
  N   -1.48922501763796      1.15771472702562      0.38762079921950
  H   -1.24894097385040      1.28932390637025      1.36309709789936
  H   -1.42653991404132      2.05594277982057     -0.07675261245801
  C   -0.81055958629585     -1.18090834640824      0.41542370649797
  H   -1.87168624300977     -1.42305603097834      0.36193963406153
  H   -0.50794997608116     -1.17313057596451      1.46494929982782
  H   -0.24661810322508     -1.96365611369547     -0.09464955903411
