15
Coordinates from ORCA-job run
  C   1.01939476650546      0.48102856765876      0.08611913071645
  C   -0.47713331188398      0.27325856267192     -0.12161446168923
  F   1.40750765623771      0.13637067619141      1.33319455642062
  H   -0.65478855329928      0.35282979168966     -1.20232596913319
  H   1.33030127438312      1.50599982394591     -0.12270128471707
  N   1.76781482519759     -0.37980668123851     -0.90424130773392
  O   2.33295916160784     -1.38652719231552     -0.49840473718911
  O   1.70268536385864      0.01051059488435     -2.06708007833338
  N   -1.15685120630768      1.30950392628984      0.64950947190415
  H   -1.26521823174277      2.15320908175456      0.10047643137461
  H   -2.07985694502917      0.99704360211122      0.92031154544255
  C   -0.89730679766659     -1.10538046393129      0.36392389267998
  H   -1.95422018378583     -1.26871430823429      0.14069765827771
  H   -0.74950305786423     -1.17840716185897      1.44201244391105
  H   -0.32578476021083     -1.89991881961904     -0.11787729193120
