15
Coordinates from ORCA-job run
  C   0.91385201423670     -0.33810162614963     -0.32575833944253
  C   -0.53208121182420      0.12207543729400     -0.16418449698579
  F   1.10288236967044     -0.91276907388074     -1.54594062236949
  H   -0.74030906060411      0.74597978644050     -1.04025115526793
  H   1.24861993896816     -1.02038337233552      0.45795525955145
  N   1.81072720756090      0.86402927894764     -0.23628011720795
  O   1.84209754001904      1.60606947587787     -1.21142086136789
  O   2.38106623536368      1.03877233077033      0.83902995748639
  N   -0.76805992331357      0.92205283149072      1.02287222759848
  H   -0.27699709196548      1.80609653656798      0.99230155882171
  H   -0.48479172996323      0.42972786893181      1.86157731446144
  C   -1.44853734293508     -1.09191847054813     -0.16876079471742
  H   -1.26156998447043     -1.71615340278946      0.71088301241985
  H   -2.48488788676725     -0.75621930665557     -0.13013587887182
  H   -1.30101107397557     -1.70025829396179     -1.06188706410850
