15
Coordinates from ORCA-job run
  C   0.79111491694289      0.20461948811399     -0.90646872186223
  C   -0.58955585696940      0.23415916827935     -0.25479694844448
  F   0.98542227578301      1.30788309923893     -1.66825882028506
  H   -1.21905916766944      0.69390846248750     -1.02428326939938
  H   0.96844417195662     -0.68524186473637     -1.51575426025294
  N   1.86004996344460      0.18480268982296      0.16078543062799
  O   1.79343903851615     -0.77537245796897      0.92622855469263
  O   2.68008278702895      1.08570700234432      0.19034375125058
  N   -0.54314432827115      1.15472470931182      0.87497699569864
  H   -0.31580703199690      0.65371229110521      1.72597091936225
  H   -1.43892191058762      1.60334910138242      1.00598468306254
  C   -1.13456148465841     -1.15637292505607      0.05965588325765
  H   -1.16578612028402     -1.79067204701342     -0.83110514640507
  H   -2.15245012977747     -1.06582721348581      0.44553962194644
  H   -0.51826712345783     -1.65037950382588      0.81118132675043
