15
Coordinates from ORCA-job run
  C   0.99869478423071      0.57102675471187     -0.01042265193431
  C   -0.48514588484322      0.33003562903703     -0.21625582576220
  F   1.31342156258894      0.50172785568432      1.31038078373845
  H   -0.66457294376582      0.43629242556170     -1.28983720624686
  H   1.31774752573078      1.53287198095898     -0.41136733216374
  N   1.77989506838609     -0.48693208545977     -0.74520180368229
  O   2.37178479433005     -1.33919634731702     -0.09775512697866
  O   1.70972072311221     -0.40508491872311     -1.96843227575348
  N   -1.15951096144167      1.43395461427258      0.45940173813735
  H   -2.13419387872349      1.45884683448311      0.18763695573664
  H   -1.12380408896341      1.29100165561421      1.46215161665822
  C   -0.89539798655964     -1.06845188510617      0.24110602116314
  H   -1.97714925146808     -1.18027318789960      0.14162350588008
  H   -0.62782393768304     -1.22328606802743      1.28876628775030
  H   -0.42266552493043     -1.85453325779069     -0.35279468654266
