15
Coordinates from ORCA-job run
  C   0.91489715979957      0.55443309172630      0.04562617842176
  C   -0.56154941569473      0.26440894318847     -0.22120004179390
  F   1.19346550368087      0.44105281045748      1.37182628894096
  H   -0.71576210426153      0.39331623891748     -1.29635995645553
  H   1.22182041973340      1.54352923895462     -0.30069064558827
  N   1.76507390813620     -0.42844918116183     -0.71316365786098
  O   1.74217970190092     -0.27174376180344     -1.93129230867040
  O   2.35200656091121     -1.30399867423579     -0.09316987680573
  N   -1.42786759127556      1.20149906504995      0.47697827390100
  H   -1.25129603624959      1.15819174405196      1.47381214754242
  H   -1.26484437765442      2.15292866650893      0.16920653004026
  C   -0.91729089211354     -1.16077863518045      0.17797923630035
  H   -0.37930846691368     -1.89914001585921     -0.41888146913231
  H   -0.68314157559549     -1.33797680063472      1.23008328234048
  H   -1.98738279440364     -1.30527272997973      0.03124601881991
