15
Coordinates from ORCA-job run
  C   0.71280417642673      0.32476995440630     -0.86524191092051
  C   -0.69714413675507      0.20875011893253     -0.28037757482960
  F   0.96701783054998      1.62111116107982     -1.20154994197069
  H   -1.35326390769851      0.45501786547098     -1.12441781456666
  H   0.88141669191030     -0.31453585620063     -1.73243662068068
  N   1.72666777183675     -0.09723722730495      0.15758621514453
  O   2.08702119078720     -1.27138730457949      0.10132574177361
  O   2.05981592304767      0.72957478501778      1.00107512641805
  N   -0.98193876762671      1.15958385012211      0.77598962034047
  H   -0.77476180865773      2.10119550581591      0.46612851885271
  H   -0.40386051238365      0.97474762607122      1.58754328076536
  C   -0.99553721326461     -1.20762400741017      0.18467781426838
  H   -0.78232076748534     -1.94530272268718     -0.59161383327798
  H   -2.04811736288445     -1.27236083346003      0.45964340353393
  H   -0.39879910780258     -1.46730291527420      1.06266797514909
