15
Coordinates from ORCA-job run
  C   0.93120676638297     -0.21800410820169     -0.49454150354425
  C   -0.45405435487527      0.17541885345805     -0.03035334140838
  F   0.94329917439959     -0.46274084918054     -1.83806685755607
  H   -0.70971322989439      1.07435697110831     -0.59879587083981
  H   1.34638127619716     -1.07774236753405      0.03451757975567
  N   1.87974223224494      0.92017027990665     -0.23518384022425
  O   2.81564743515523      0.70213997181168      0.52702470888242
  O   1.63464371501127      1.97221509365397     -0.81503747534251
  N   -0.33036180892641      0.55151776367782      1.37223965475917
  H   -1.05682551791051      1.20350867664699      1.63392079281468
  H   -0.41156743863982     -0.26197788930472      1.97058115516902
  C   -1.45523479019443     -0.93429512600727     -0.33130506434086
  H   -1.48727725453280     -1.17063180396402     -1.39635476384153
  H   -2.45452706870389     -0.62725266788662     -0.01517277331346
  H   -1.19235913571364     -1.84568279818456      0.21552759903017
