15
Coordinates from ORCA-job run
  C   0.85562154285930     -0.16307256907477     -0.54465788536338
  C   -0.55133977863606      0.13951117612123     -0.03836252102698
  F   0.86242750432571     -0.29525534342380     -1.90024630855025
  H   -0.89266108232364      1.00296745592970     -0.61963655858911
  H   1.30780799044339     -1.04517469498944     -0.08730852897980
  N   1.74962934344016      0.99069538068289     -0.18800431355651
  O   1.62229876019801      2.01470455828461     -0.84966960428271
  O   2.48253111921993      0.83188007941035      0.78644855384228
  N   -0.60853204548469      0.49433601322112      1.36740064857636
  H   -0.19579250865927     -0.22669658652405      1.94687566770901
  H   -0.13524745864122      1.36740681717586      1.56065569736482
  C   -1.45225608563743     -1.05459551358478     -0.31468266448098
  H   -1.13292405141034     -1.91958836020569      0.27539568431171
  H   -2.47287924694545     -0.80606676211586     -0.02359068893881
  H   -1.43668400274841     -1.33105165090738     -1.36961717803563
