15
Coordinates from ORCA-job run
  C   0.88232207676282     -0.19450990337494     -0.54748141628892
  C   -0.49137261542558      0.14838793883075     -0.02634555476962
  F   0.89090341286206     -0.28854413767460     -1.91292544018912
  H   -0.83440593760309      1.03260295407599     -0.57731122332287
  H   1.28324232103479     -1.10860315499101     -0.11026490491819
  N   1.87226203076603      0.89017491049076     -0.20106316518873
  O   3.01849506749882      0.53038816785295      0.05009944270326
  O   1.46847632608261      2.05122815564250     -0.24316484241613
  N   -0.33527550514719      0.37859325570356      1.40694516691244
  H   -1.19136344295410      0.15389703881236      1.89622636447832
  H   -0.11995978639417      1.35155128761312      1.58422529472286
  C   -1.43106637165607     -1.01842544115390     -0.28499934446796
  H   -1.11751054079935     -1.89015535328181      0.29562479589744
  H   -1.44616420191406     -1.28432444275920     -1.34243980946845
  H   -2.44858283311354     -0.75426127578652      0.01287463631568
