15
Coordinates from ORCA-job run
  C   1.00883942599473      0.53497188117339     -0.14143206272007
  C   -0.49586151874340      0.34118046707214     -0.17252979098316
  F   1.46750603122474      0.49541859276921      1.13783458905267
  H   -0.79094614005997      0.42143663755697     -1.22253001806132
  H   1.31178775931301      1.47184520150418     -0.60853064577300
  N   1.66774589702563     -0.57318666078899     -0.92120436620855
  O   2.29994681171231     -1.42603666235966     -0.31413516563347
  O   1.46285628356957     -0.52680872630257     -2.13099311727688
  N   -1.05424571901659      1.48836136365315      0.53585109140026
  H   -0.90331544116949      1.37825003646236      1.53203189559685
  H   -2.05340907457593      1.53436840546736      0.38064046845812
  C   -0.89666605808932     -1.02769492494362      0.37452998372373
  H   -0.51545033581205     -1.16225785141696      1.38926433926475
  H   -0.52200087783463     -1.84711423480241     -0.24372344244698
  H   -1.98578704353859     -1.10273352504455      0.40292624160705
