15
Coordinates from ORCA-job run
  C   0.78724343083498      0.21120784681969     -0.90867257411951
  C   -0.59100043521283      0.23285475559279     -0.25162089102523
  F   0.97473223673858      1.32020555641981     -1.66407949901344
  H   -1.22589417635409      0.69099127332871     -1.01767877863151
  H   0.96435573382308     -0.67377618894612     -1.52511527464595
  N   1.86039055935600      0.18776873832687      0.15395931264065
  O   1.79742209868136     -0.77542463362442      0.91581794691307
  O   2.68043570597194      1.08872822466874      0.18269555798498
  N   -0.54393974555661      1.15095682638776      0.88011763476493
  H   -1.43769641079224      1.60361950827202      1.01043542242172
  H   -0.31934111804897      0.64807499816225      1.73062568139572
  C   -1.12960840013440     -1.16021196071652      0.06236437289415
  H   -1.15242310476013     -1.79651810310286     -0.82721303522796
  H   -0.51462312381812     -1.64987669282493      0.81775264219034
  H   -2.15005325072855     -1.07460014876379      0.44261148145802
