15
Coordinates from ORCA-job run
  C   0.79835624975276      0.19850789891368     -0.90185821886574
  C   -0.58589156930261      0.23934502724137     -0.25775990947362
  F   1.00621919260867      1.30066567398581     -1.66175179719313
  H   -1.20761628231530      0.70444327757568     -1.03031797527335
  H   0.97114192350271     -0.69227379632798     -1.51110606281095
  N   1.86032162359499      0.16865741442246      0.17136856235969
  O   2.68735957022506      1.06288987243877      0.20746043441615
  O   1.78160777742409     -0.79245561779691      0.93454542075992
  N   -0.53811373550675      1.15851133657955      0.87300270899104
  H   -1.42807327620834      1.62101173085059      0.99467104258132
  H   -0.32679632956951      0.65428527478913      1.72614545022568
  C   -1.14394506543894     -1.14676758038340      0.05319994463561
  H   -2.16538817197501     -1.04827013906413      0.42762486230369
  H   -0.53936472406504     -1.64374097078306      0.81227042791510
  H   -1.16981718272678     -1.78280940244157     -0.83649489057142
