16
Coordinates from ORCA-job run
  C   -0.43672396787990      0.18345902681606     -0.11909413382556
  C   0.98594796156812     -0.08883467195638     -0.60365048726999
  Cl  -1.57907448603826     -0.40289295461931     -1.38173028450081
  H   1.14380189281067      0.34689478543122     -1.58889977236196
  H   1.69704832691338      0.31045972174548      0.12192076270471
  C   -0.77579646556349     -0.50910170822100      1.19023439059045
  H   -0.74681922711388     -1.59326281626247      1.09546832296717
  H   -1.77860332619031     -0.21466601242809      1.50481842076683
  H   -0.06111800884706     -0.21538684286127      1.96380408898257
  C   -0.60441218089197      1.69309840268037     -0.00433189838428
  H   -0.38034714887131      2.18809955368287     -0.95129821954217
  H   -1.63247055955601      1.93274924264496      0.27159974038962
  H   0.06283149962417      2.08476979216770      0.76909963468127
  N   1.29300122950256     -1.54072749695581     -0.72818293898294
  O   1.54784029877983     -2.14323291550439      0.31476046583424
  O   1.26389416175348     -2.03242510635994     -1.85351809204914
