16
Coordinates from ORCA-job run
  C   -0.58063247483128      0.15928624241344     -0.23677098277189
  C   0.53511887963680     -0.52995971819128     -1.02692622034997
  Cl  -1.91763630953939      0.32354125026709     -1.44076489277339
  H   0.85447724891470      0.09057737851471     -1.86296605355553
  H   0.21363092477160     -1.51280118176555     -1.36856277733858
  C   -1.08668653006209     -0.69608246349140      0.91191434337091
  H   -1.95374347350569     -0.21918110192208      1.37209227306043
  H   -1.37935671180853     -1.68821087301729      0.56442878931773
  H   -0.30935334892716     -0.81205006386336      1.67016907318814
  C   -0.18733687759779      1.55349822174106      0.22004678201704
  H   -1.04731477522671      2.04795660481750      0.67499287634890
  H   0.61469961101282      1.49931035039702      0.95924463870546
  H   0.15833459494602      2.15956117268645     -0.61895280413555
  N   1.73215149096274     -0.74233138953384     -0.16358879101927
  O   2.56692839471908      0.16106365805017     -0.12787587978688
  O   1.78571935653488     -1.79317808710265      0.47451962572243
