16
Coordinates from ORCA-job run
  C   -0.48036148862979      0.03990163331977     -0.07851536764537
  C   0.73576753294485     -0.87909072180538     -0.17350786407634
  Cl  -1.35609517087884     -0.02807062584280     -1.65073130561283
  H   0.43508115377937     -1.88057237423207     -0.47701266000784
  H   1.25084217926015     -0.89727736472962      0.78875066002633
  C   -1.40336732270939     -0.52515851926556      0.99338342253005
  H   -1.67577220961426     -1.55939810547769      0.77404643197943
  H   -0.91004657887896     -0.48595043406183      1.96903168393124
  H   -2.31912396842843      0.06582913673484      1.04439961859098
  C   -0.12624910621652      1.48948628300756      0.20819862104439
  H   -1.04400573601557      2.06840742221814      0.32580745413962
  H   0.45536347252298      1.55574626528456      1.13167778296341
  H   0.46099813240795      1.93068915320986     -0.59533176081076
  N   1.74081298112928     -0.41785253600306     -1.17139562896472
  O   2.48085359760286      0.50302733391003     -0.82520301131626
  O   1.75530253172429     -0.97971654626675     -2.26359807677133
