16
Coordinates from ORCA-job run
  C   -0.40975064407658      0.22001234500554     -0.14895063336596
  C   1.05320207352843     -0.06714695317750     -0.48037607681331
  Cl  -1.39583389569812     -0.14506589941543     -1.61106086013333
  H   1.67666558689823      0.20119510261801      0.37452787675424
  H   1.35642048617678      0.47656820135684     -1.37364268252996
  C   -0.94533645548285     -0.60830299290454      1.00687342346967
  H   -0.33047138698594     -0.44843122194558      1.89673862995795
  H   -0.94270163619166     -1.67286834931573      0.77911319722019
  H   -1.97004159080002     -0.30246665134462      1.22528253743878
  C   -0.53437483100633      1.71108401514788      0.13630134060644
  H   0.04093628860704      1.96929272589799      1.03024644906478
  H   -1.57988131302018      1.96993758652788      0.31062987252526
  H   -0.17073749474198      2.30519207553976     -0.70439369572980
  N   1.31988028366053     -1.50753338515488     -0.75021293947118
  O   1.41139555626911     -2.24576087899406      0.23069140737355
  O   1.42162897286353     -1.85570571984154     -1.92376784636732
