16
Coordinates from ORCA-job run
  C   -0.48292397684624      0.05139051753588     -0.05105543641277
  C   0.71772443274018     -0.85493102538911     -0.31492881443951
  Cl  -1.42982231084966      0.18315964145948     -1.57725558853153
  H   1.27477947773534     -0.99587630318315      0.61321425833912
  H   0.39259040996979     -1.80944987950801     -0.72564786527089
  C   -1.36256158866510     -0.63712890425511      0.98461156726530
  H   -1.65248505418195     -1.63659915080133      0.65447181192683
  H   -2.27050037371896     -0.05435317669237      1.14732837188184
  H   -0.82650552419343     -0.71729024965859      1.93489720335358
  C   -0.10042701163113      1.45246669848791      0.39589932564319
  H   0.52644133660610      1.40083939615537      1.29020887399603
  H   0.45125797136826      1.98796485729216     -0.37488296202017
  H   -1.00548629979879      2.01573117478767      0.63017120239118
  N   1.68172649682390     -0.27779472908902     -1.29258977107722
  O   1.64100747151342     -0.69928594212509     -2.44570538583067
  O   2.44618454312825      0.58915707498329     -0.86873679121430
