17

C	0.0	0.0	0.0
C	-0.48937	0.000231	-1.453912
Br	2.005954	0.0	0.0
H	-1.597055	0.025804	-1.279119
C	-0.432788	1.269285	0.700178
H	-0.119614	1.22511	1.744431
H	-1.531265	1.278816	0.64401
H	-0.012664	2.158696	0.227846
N	-0.501855	-1.13179	0.70716
H	-1.525307	-0.939487	0.741255
H	-0.395144	-1.935503	0.092118
N	-0.140952	-1.244566	-2.129828
H	-0.730231	-1.360486	-2.945837
H	0.826626	-1.206527	-2.432515
C	-0.091356	1.195767	-2.20769
N	0.193308	2.133044	-2.859559
H	-3.064967	0.0	0.0
