18

C	0.0	0.0	0.0
C	-0.475394	-0.065056	-1.462487
F	1.390574	0.0	0.0
H	-1.57045	-0.155368	-1.418349
N	-0.461888	1.240939	0.562564
H	-1.481835	1.226005	0.476731
H	-0.259075	1.227744	1.557421
C	-0.409969	-1.236622	0.783191
H	-0.023795	-1.144879	1.803512
H	-1.498711	-1.300076	0.809962
H	0.012072	-2.140153	0.336884
C	0.064213	-1.261165	-2.110607
N	0.513231	-2.194074	-2.664691
C	-0.081215	1.179168	-2.263236
H	-0.55716	2.055286	-1.828007
H	1.000663	1.319351	-2.234107
H	-0.39924	1.075683	-3.302996
Cl	-3.665253	0.0	0.0
