18

C	0.0	0.0	0.0
C	-0.470112	-0.243585	-1.441344
F	1.416601	0.0	0.0
H	-1.564324	-0.337408	-1.382323
N	-0.455059	1.298138	0.411609
H	-1.475098	1.280282	0.323761
H	-0.255719	1.400977	1.401627
C	-0.394276	-1.135532	0.928979
H	-0.002531	-0.919311	1.927852
H	0.030115	-2.083751	0.591052
H	-1.482717	-1.201241	0.970186
C	0.079681	-1.504011	-1.941765
N	0.534154	-2.493431	-2.38276
C	-0.088438	0.898547	-2.387116
H	-0.40653	0.666451	-3.405767
H	0.99233	1.050368	-2.375866
H	-0.573028	1.816851	-2.061523
Cl	-3.649705	0.0	0.0
