18

C	0.0	0.0	0.0
C	-0.439666	0.123144	-1.483996
F	1.375517	0.0	0.0
H	-1.53121	0.000886	-1.478818
N	-0.465543	1.075656	0.828814
H	-0.166472	1.964715	0.443517
H	-1.488004	1.044459	0.818844
C	-0.444483	-1.318241	0.604627
H	-0.049415	-2.15499	0.024555
H	-0.045283	-1.362261	1.620405
H	-1.53334	-1.367081	0.636117
C	0.157883	-0.949067	-2.282031
N	0.673325	-1.775613	-2.94024
C	-0.066314	1.475773	-2.100302
H	-0.261754	1.475215	-3.174825
H	0.993561	1.688467	-1.94003
H	-0.668573	2.268713	-1.65571
Cl	-3.710379	0.0	0.0
