18

C	0.0	0.0	0.0
C	-0.22928	-0.203544	-1.540205
F	1.396933	0.0	0.0
H	0.374327	-1.082158	-1.799056
N	-0.481263	1.220955	0.553312
H	-1.488994	1.144378	0.681659
H	-0.293894	1.997723	-0.071144
C	-0.517261	-1.169314	0.800506
H	-1.610329	-1.175258	0.779417
H	-0.177175	-1.058215	1.831776
H	-0.133527	-2.107796	0.39424
C	0.383509	0.935562	-2.233385
N	0.831225	1.870025	-2.786874
C	-1.654656	-0.402216	-2.040432
H	-2.295469	0.441624	-1.799072
H	-2.118512	-1.268194	-1.572395
H	-1.637464	-0.547466	-3.124748
Cl	-4.1391	0.0	0.0
