18

C	0.0	0.0	0.0
C	-0.294648	0.035859	-1.531813
F	1.396975	0.0	0.0
H	0.571573	-0.481082	-1.959576
N	-0.496401	1.171352	0.649672
H	-0.48862	1.025709	1.653801
H	-1.47517	1.286944	0.38648
C	-0.441891	-1.304368	0.633534
H	-0.069485	-1.333652	1.662299
H	-1.533279	-1.348063	0.644337
H	-0.034622	-2.166945	0.099141
C	-0.211202	1.410166	-2.043499
N	-0.14351	2.470146	-2.544009
C	-1.553024	-0.663763	-2.050553
H	-2.46501	-0.293737	-1.582814
H	-1.613683	-0.526892	-3.133557
H	-1.480612	-1.735333	-1.848089
Cl	-4.124867	0.0	0.0
