12

C	0.0	0.0	0.0
C	-0.451161	-0.218797	-1.443286
Br	1.958718	0.0	0.0
H	-0.073302	0.626424	-2.034064
H	-0.345241	0.955106	0.3947
H	-1.542423	-0.170745	-1.410884
C	-0.396957	-1.097482	0.87794
N	-0.629979	-2.018181	1.568396
N	0.004189	-1.513708	-1.925921
H	-0.733418	-1.981014	-2.430266
H	0.818571	-1.433837	-2.516294
Cl	-3.460719	0.0	0.0
