12

C	0.0	0.0	0.0
C	-0.558458	-0.177751	-1.403365
Br	1.959366	0.0	0.0
H	-1.644188	-0.11172	-1.264042
H	-0.317504	0.954272	0.422249
H	-0.230342	0.678913	-2.006624
C	-0.384864	-1.087479	0.897409
N	-0.607452	-1.971819	1.636659
N	-0.189871	-1.470172	-1.957289
H	-0.985818	-1.880698	-2.424634
H	0.574413	-1.390216	-2.6127
Cl	-3.647862	0.0	0.0
