12

C	0.0	0.0	0.0
C	-0.481967	0.322406	-1.446658
Br	1.953	0.0	0.0
H	0.176033	-0.23555	-2.119334
H	-0.344105	0.734332	0.729321
H	-0.274476	1.385794	-1.612845
C	-0.397258	-1.346231	0.391931
N	-0.644693	-2.469562	0.633258
N	-1.842244	0.020493	-1.765628
H	-2.543814	0.433548	-1.150924
H	-2.021572	-0.97512	-1.726564
Cl	-4.500618	0.0	0.0
