12

C	0.0	0.0	0.0
C	-0.492588	-0.187525	-1.446522
Br	1.95535	0.0	0.0
H	0.102549	-0.979776	-1.910961
H	-0.347947	0.945309	0.415231
H	-1.533907	-0.503648	-1.376289
C	-0.378196	-1.108498	0.875063
N	-0.555795	-2.036869	1.57264
N	-0.441897	1.015576	-2.255165
H	0.441775	1.496574	-2.132768
H	-1.192085	1.62606	-1.952073
Cl	-3.417374	0.0	0.0
