13

C	0.0	0.0	0.0
C	-0.329131	-0.612438	-1.404159
Cl	1.823612	0.0	0.0
H	0.540837	-0.379349	-2.02727
H	-0.303407	-0.677056	0.80073
N	-0.474297	1.34094	0.053655
H	-0.236969	1.743871	0.953774
H	-1.498362	1.256077	0.011014
C	-1.444224	-0.066563	-2.194951
N	-2.06431	0.335794	-3.109163
C	-0.386326	-2.074789	-1.329677
N	-0.345732	-3.24783	-1.299038
Cl	-3.313406	0.0	0.0
