13

C	0.0	0.0	0.0
C	-0.440399	-0.503036	-1.415133
Cl	1.823472	0.0	0.0
H	0.475312	-0.666048	-1.994952
H	-0.283788	-0.746593	0.745483
N	-0.44505	1.335986	0.232316
H	-1.471501	1.276663	0.207822
H	-0.175169	1.607032	1.171875
C	-1.199282	0.468141	-2.209305
N	-1.626863	1.217173	-3.006352
C	-1.085141	-1.817522	-1.34853
N	-1.420692	-2.942207	-1.351459
Cl	-3.258831	0.0	0.0
