13

C	0.0	0.0	0.0
C	-0.53616	0.335499	-1.400199
Cl	1.772345	0.0	0.0
H	-1.641513	0.307116	-1.278843
H	-0.311476	-1.02798	0.216702
N	-0.493367	1.000551	0.902599
H	-1.513575	0.905122	0.889145
H	-0.163882	0.796459	1.839638
C	-0.147751	-0.667634	-2.39059
N	0.149047	-1.467237	-3.196819
C	-0.12255	1.66819	-1.83843
N	0.197605	2.730222	-2.221824
Cl	-3.462661	0.0	0.0
