13

C	0.0	0.0	0.0
C	-0.534351	0.331938	-1.401675
Cl	1.772435	0.0	0.0
H	-1.63922	0.296658	-1.279898
H	-0.305506	-1.02937	0.218716
N	-0.493987	0.997805	0.904224
H	-0.180722	0.782345	1.844377
H	-1.516716	0.914565	0.884457
C	-0.13302	-0.669705	-2.388995
N	0.171096	-1.479364	-3.182621
C	-0.129742	1.668222	-1.838304
N	0.174625	2.730492	-2.234397
Cl	-3.460711	0.0	0.0
