13

C	0.0	0.0	0.0
C	-0.453845	-0.214529	-1.487544
Cl	1.776923	0.0	0.0
H	0.458489	-0.252506	-2.094845
H	-0.307076	-0.87196	0.582961
N	-0.456673	1.268381	0.484084
H	-0.18098	1.359107	1.456094
H	-1.482183	1.203766	0.457186
C	-1.223963	0.889158	-2.072109
N	-1.662594	1.775874	-2.704511
C	-1.088754	-1.521719	-1.678956
N	-1.415317	-2.627569	-1.899209
Cl	-3.270897	0.0	0.0
