13

C	0.0	0.0	0.0
C	-0.417476	-0.046555	-1.534573
Cl	1.805261	0.0	0.0
H	0.500031	-0.092301	-2.132115
H	-0.32807	-0.929416	0.460185
N	-0.456728	1.088393	0.78604
H	-0.260749	1.96823	0.321154
H	-1.474817	0.973909	0.847362
C	-1.082639	1.186704	-1.953338
N	-1.424623	2.237833	-2.349742
C	-1.151809	-1.264749	-1.880819
N	-1.537339	-2.312232	-2.245241
Cl	-3.266874	0.0	0.0
