13

C	0.0	0.0	0.0
C	-0.454747	0.291675	-1.474226
Cl	1.776789	0.0	0.0
H	0.457997	0.437005	-2.06317
H	-0.307321	-1.01656	0.257804
N	-0.458308	1.034832	0.87781
H	-1.484544	0.980398	0.834291
H	-0.178671	0.800159	1.824176
C	-1.198344	1.541003	-1.659036
N	-1.660092	2.575125	-1.967291
C	-1.117297	-0.861384	-2.088173
N	-1.455448	-1.825081	-2.66748
Cl	-3.271924	0.0	0.0
