13

C	0.0	0.0	0.0
C	-0.534171	-0.155757	-1.419038
Br	1.958347	0.0	0.0
H	-1.599213	-0.380282	-1.300315
H	-0.324383	0.941115	0.445805
H	-0.031566	-1.00664	-1.889179
C	-0.381776	-1.109164	0.872204
N	-0.594229	-2.009759	1.595541
C	-0.374816	1.115695	-2.239498
H	-0.997957	1.905272	-1.813087
H	0.662836	1.458458	-2.278448
H	-0.715665	0.947239	-3.263818
Cl	-3.568727	0.0	0.0
