13

C	0.0	0.0	0.0
C	-0.51727	-0.208643	-1.422774
Br	1.959007	0.0	0.0
H	-1.575397	0.073355	-1.398582
H	-0.307702	0.971437	0.387155
H	0.023964	0.484926	-2.074347
C	-0.40377	-1.046123	0.936835
N	-0.594838	-1.928033	1.688973
C	-0.383302	-1.646492	-1.905182
H	-1.107091	-2.275187	-1.384149
H	0.619473	-2.048037	-1.737428
H	-0.596672	-1.707449	-2.974596
Cl	-3.523209	0.0	0.0
