15

C	-0.371254	-0.006331	-1.470608
C	0.0	0.0	0.0
Br	-2.32144	0.080357	-1.713678
H	1.096152	0.0	0.0
H	0.00733	0.918518	-1.903215
C	0.205345	-1.224319	-2.1634
H	-0.236696	-2.143555	-1.774082
H	0.01922	-1.173703	-3.237809
H	1.283908	-1.237518	-1.977369
C	-0.512612	-1.148225	0.728552
N	-0.891161	-2.118541	1.271783
N	-0.409919	1.276074	0.675016
O	-0.277935	2.303164	0.017789
O	-0.792393	1.215219	1.839689
Cl	3.167329	0.0	0.0
