15

C	-0.359942	-0.004011	-1.474896
C	0.0	0.0	0.0
Br	-2.306237	0.087669	-1.734692
H	1.096157	0.0	0.0
H	0.022778	0.921861	-1.90173
C	0.223761	-1.220548	-2.1641
H	1.298126	-1.236928	-1.964062
H	-0.224023	-2.141235	-1.786555
H	0.054189	-1.165009	-3.238672
C	-0.51522	-1.152012	0.721464
N	-0.897115	-2.112431	1.279439
N	-0.420516	1.273502	0.668347
O	-0.86364	1.21106	1.810511
O	-0.244668	2.302797	0.025999
Cl	3.165144	0.0	0.0
