15

C	-0.372363	0.004373	-1.470288
C	0.0	0.0	0.0
Br	-2.323116	0.091473	-1.711295
H	1.096123	0.0	0.0
H	0.005263	0.93242	-1.89659
C	0.203797	-1.208862	-2.171854
H	1.282834	-1.222662	-1.98927
H	-0.236059	-2.130876	-1.787009
H	0.014255	-1.1522	-3.245068
C	-0.512324	-1.153849	0.719779
N	-0.897123	-2.127737	1.251875
N	-0.409709	1.270072	0.685433
O	-0.284224	2.302536	0.035688
O	-0.785362	1.199742	1.851285
Cl	3.166811	0.0	0.0
