15

C	-0.464733	-0.062569	-1.455771
C	0.0	0.0	0.0
Br	0.10936	1.544721	-2.404791
H	1.09125	0.0	0.0
H	0.153179	-0.85324	-1.891001
C	-1.935691	-0.335809	-1.714433
H	-2.554043	0.486504	-1.36026
H	-2.100086	-0.469235	-2.785419
H	-2.232283	-1.256397	-1.202134
C	-0.463156	-1.181724	0.722324
N	-0.83426	-2.152664	1.270795
N	-0.488687	1.190294	0.782049
O	-1.454079	1.817208	0.35041
O	0.105931	1.424067	1.825817
Cl	3.195983	0.0	0.0
