15

C	-0.356286	0.000275	-1.474666
C	0.0	0.0	0.0
Br	-2.299923	0.111652	-1.731675
H	1.096184	0.0	0.0
H	0.034425	0.923917	-1.898649
C	0.21919	-1.216545	-2.167819
H	-0.230828	-2.135155	-1.786365
H	0.043212	-1.158727	-3.242766
H	1.294158	-1.23678	-1.971423
C	-0.517288	-1.150274	0.719669
N	-0.8918	-2.122893	1.260743
N	-0.41819	1.276711	0.664448
O	-0.912549	1.214618	1.786632
O	-0.19711	2.306482	0.035723
Cl	3.176185	0.0	0.0
