15

C	-0.532832	0.014449	-1.43652
C	0.0	0.0	0.0
Br	-0.030261	-1.668465	-2.285738
H	1.091595	0.0	0.0
H	-1.624551	0.018637	-1.418094
C	0.033173	1.191928	-2.208316
H	-0.265642	1.135835	-3.256056
H	1.122152	1.194729	-2.130945
H	-0.35182	2.128157	-1.793384
C	-0.537253	-1.100941	0.78965
N	-0.967183	-1.984647	1.432588
N	-0.489033	1.289198	0.622847
O	-1.703682	1.378641	0.810557
O	0.332434	2.168909	0.842909
Cl	3.247738	0.0	0.0
