15

C	-0.372301	-0.007164	-1.47018
C	0.0	0.0	0.0
Br	-2.324165	0.077155	-1.710783
H	1.096177	0.0	0.0
H	0.004616	0.917659	-1.904186
C	0.203974	-1.225664	-2.163724
H	0.013415	-1.177185	-3.237555
H	1.283771	-1.237716	-1.982439
H	-0.235408	-2.145154	-1.771874
C	-0.512752	-1.148229	0.728351
N	-0.894908	-2.11038	1.283251
N	-0.407972	1.276489	0.676456
O	-0.785274	1.215644	1.843233
O	-0.278754	2.303669	0.01811
Cl	3.165952	0.0	0.0
