14

C	-0.414195	0.012979	-1.453112
C	0.0	0.0	0.0
F	-1.794705	0.346753	-1.543911
H	1.093383	0.0	0.0
H	0.118598	0.815027	-1.962995
N	-0.138355	-1.23205	-2.061572
H	-0.378546	-1.204761	-3.042262
H	-0.648663	-1.979556	-1.608219
C	-0.517247	-1.145831	0.709585
N	-0.882971	-2.150907	1.200307
N	-0.332383	1.243472	0.675097
O	-0.550433	1.211635	1.894029
O	-0.204988	2.28277	0.012431
H	2.420032	0.0	0.0
