14

C	-0.391896	0.011737	-1.460575
C	0.0	0.0	0.0
F	-1.747823	0.422314	-1.587502
H	1.092295	0.0	0.0
H	0.199214	0.771586	-1.971483
N	-0.177295	-1.258051	-2.042003
H	-0.75552	-1.962127	-1.599276
H	-0.37295	-1.232156	-3.032942
C	-0.533183	-1.137267	0.710552
N	-0.935737	-2.129874	1.197787
N	-0.335198	1.249807	0.661621
O	-0.59356	1.226689	1.872814
O	-0.17524	2.281244	-0.002808
H	2.426765	0.0	0.0
