14

C	-0.390666	-0.121485	-1.471911
C	0.0	0.0	0.0
F	-0.17569	-1.470701	-1.828759
H	1.094382	0.0	0.0
H	-1.459921	0.045347	-1.641869
N	0.4028	0.789952	-2.189091
H	0.301826	0.666554	-3.186605
H	1.37815	0.694971	-1.898777
C	-0.537573	-1.064356	0.824227
N	-0.895157	-1.938575	1.523029
N	-0.510437	1.313633	0.496592
O	0.26416	2.263482	0.501002
O	-1.696391	1.361843	0.841634
H	2.670292	0.0	0.0
