13
Coordinates from ORCA-job run
  C   0.52661090557401      0.17960349737252      0.01401711024884
  C   -0.62905751104490     -0.49869578194903      0.09154091952416
  N   0.68731539526224      1.43741480665723     -0.71554082147235
  O   1.49089496599039      1.38117634457262     -1.63809647170825
  O   0.03700252887129      2.39527005667297     -0.32052070932735
  N   1.75638048202394     -0.23948554107675      0.69871375189346
  O   2.46461788293046      0.68248072475186      1.08945381099618
  O   1.94452657102836     -1.44306808146802      0.81998298818651
  N   -1.83835475649347      0.04664944996653     -0.58299004231780
  O   -2.87515725469390     -0.03940094433370      0.06094149611853
  O   -1.67728494459166      0.51467897091398     -1.70216236161458
  C   -0.83100441384764     -1.70610621372154      0.80416505549216
  N   -1.05448985100911     -2.70951728835868      1.38149527398048
