13
Coordinates from ORCA-job run
  C   0.48291791144854      0.27535465249164      0.02707084332265
  C   -0.74691282827896     -0.23377132274919      0.19959701942043
  N   0.95851405800836      1.48496531462052      0.71072766636669
  O   1.72385689687853      2.17901489054165      0.04980401261805
  O   0.54365990363693      1.68395308920233      1.84520661361570
  N   1.47427557035210     -0.27896213896474     -0.89480674823638
  O   2.49946651308391     -0.67043135420830     -0.35094617456950
  O   1.19175042753667     -0.26924676462965     -2.08505804983534
  N   -1.15930787919440     -1.42368063547997     -0.59313183547509
  O   -2.29941279452347     -1.38332271955585     -1.03527801247065
  O   -0.32884555710922     -2.31398428957286     -0.71660544267240
  C   -1.74042525022417      0.28574806747479      1.06547337896583
  N   -2.60053697161484      0.66536321082963      1.77694672894998
