13
Coordinates from ORCA-job run
  C   0.52216048123833      0.19208287711655      0.00368105210778
  C   -0.61567591766896     -0.51195376594675      0.10719239088007
  N   0.64095891782086      1.44648544035838     -0.73994667853916
  O   -0.02966276172527      2.39050711947188     -0.34521469309243
  O   1.43438891819586      1.40328143358466     -1.67180931730104
  N   1.77222274948969     -0.19137805220484      0.67178450809892
  O   1.99415146467632     -1.38922811743437      0.79368819350412
  O   2.46039469397300      0.75058171137828      1.05035024111953
  N   -1.84913080241606     -0.00175344281985     -0.55149780748063
  O   -1.71843483940950      0.45712063834285     -1.67830756688937
  O   -2.87181796550921     -0.10339746823044      0.11228721872430
  C   -0.77731187059690     -1.71698298725849      0.83395674955228
  N   -0.96424306806814     -2.72636538635787      1.41383570931562
