13
Coordinates from ORCA-job run
  C   0.46464352525811      0.30620758399589     -0.00400968113809
  C   -0.76660164683722     -0.20505307104629      0.15164241569517
  N   0.96041365840794      1.46272106341842      0.75338138888516
  O   2.15720594352638      1.42602773488960      1.01912367307922
  O   0.14484142734028      2.32634386807959      1.04949949889713
  N   1.47309196727364     -0.25411131090380     -0.90357641060600
  O   1.82591314466689      0.50677768928672     -1.79603403217810
  O   1.86637327432456     -1.38647635167203     -0.65929525924805
  N   -1.15038223874646     -1.42269031852561     -0.61317116711941
  O   -0.79927954553041     -1.46707819147756     -1.78461980515389
  O   -1.78747705892200     -2.25383637312607      0.01953002441059
  C   -1.76239770894416      0.29333017822286      1.02724294892858
  N   -2.62634474181754      0.66683749885826      1.73728640554770
