13
Coordinates from ORCA-job run
  C   0.51608367686993      0.20805824336113      0.00416108404015
  C   -0.62569658530217     -0.46964629336989      0.20002689773099
  N   1.82021497738370     -0.24856848237185      0.50197815302146
  O   1.83144766340672     -0.84828439487313      1.56916265034516
  O   2.76839572463249      0.01786950326122     -0.22897759278601
  N   0.60875231346423      1.44771526679076     -0.76708496777941
  O   0.99555021522447      2.41243305856834     -0.11929172717227
  O   0.32095702965320      1.38523104467353     -1.95445264033444
  N   -1.88725747433917      0.03888629165351     -0.40370836412536
  O   -2.60983530599266     -0.81724854558591     -0.89542136243993
  O   -2.07517088545015      1.24661338296013     -0.34304143122337
  C   -0.75069365277920     -1.68287674410831      0.92069000829260
  N   -0.91274769677137     -2.68818233095953      1.51495929243043
