13
Coordinates from ORCA-job run
  C   0.50459029644073      0.23342643943170      0.02845083759280
  C   -0.57630158118804     -0.56111800813673      0.07291010950814
  N   0.55669388583431      1.50092611848053     -0.70002563226199
  O   1.39379158940511      1.52975717096772     -1.59365830966534
  O   -0.20472957875070      2.38471340804134     -0.33189742749422
  N   1.74873716847327     -0.05641448210961      0.75316015203966
  O   2.34067783739997      0.93392465801438      1.16931182094038
  O   2.06009914639123     -1.23359350754348      0.87840765212467
  N   -1.81412356385539     -0.14635645748604     -0.64126849002388
  O   -1.66712884839088      0.33602898849714     -1.75632975083556
  O   -2.85626358420398     -0.34072987477443     -0.03044078943473
  C   -0.67271677195796     -1.78197003191725      0.78502034386200
  N   -0.81332599559765     -2.79859442146529      1.36535948364807
