13
Coordinates from ORCA-job run
  C   0.47487310349416      0.26488296612812      0.11573510821047
  C   -0.79348446219388     -0.15162649724565     -0.02284130671833
  N   1.60675233500052     -0.30807501484064     -0.61287446793615
  O   1.86424372479749     -1.48522022289664     -0.40187506849923
  O   2.18642269549187      0.48730295824045     -1.34181159997205
  N   0.88117397691563      1.31566048354977      1.05789574066554
  O   1.98990842340000      1.15505649029296      1.55705330535067
  O   0.08487921369639      2.22396358412363      1.25716567107648
  N   -1.09412140283363     -1.27123065940636     -0.95597002806408
  O   -0.51347512246697     -1.25742348113668     -2.03301380739863
  O   -1.90330159341220     -2.08987645537954     -0.54120693050574
  C   -1.91088568966122      0.36178457466952      0.68044179278800
  N   -2.87198520222818      0.75280127390107      1.24030159100305
