13
Coordinates from ORCA-job run
  C   0.49333087076202      0.24326868716186      0.08623762987809
  C   -0.55325083400942     -0.58642933341462     -0.04693789775968
  N   0.50771578745647      1.62324710669381     -0.39869669657221
  O   1.36086320001530      1.84661630663858     -1.24851877654212
  O   -0.29790531614523      2.39559825677034      0.10253690222779
  N   1.73179074692112     -0.12581008965311      0.78362711364318
  O   2.27163553979100      0.79470387806615      1.38839381438016
  O   2.08969149755652     -1.29385629764220      0.70523856329702
  N   -1.79112363443171     -0.09537262829422     -0.71061908599624
  O   -1.63993023411201      0.58805517780117     -1.71452070530993
  O   -2.83759758737637     -0.43736518480929     -0.17676701480739
  C   -0.61382176038524     -1.91957576194789      0.42823693586534
  N   -0.72039827604246     -3.03308011737055      0.80078921769601
