13
Coordinates from ORCA-job run
  C   0.49316371327255      0.24680550198073      0.07733126936521
  C   -0.60184430072327     -0.52889576911496      0.09951792969572
  N   1.76602834166355     -0.13709186041034      0.70104777551262
  O   2.76577442156877      0.25137542245464      0.10625837954528
  O   1.70567343317801     -0.80400004510568      1.72601151519113
  N   0.56691819144773      1.53611670689925     -0.60992012023898
  O   0.79541150589816      2.48470117493573      0.13044824380944
  O   0.42199881612935      1.52723183300259     -1.82456842200836
  N   -1.82444542225602     -0.08224369384456     -0.62261476996000
  O   -2.40747209358992     -0.95826108582620     -1.24674153890340
  O   -2.12255738530957      1.09969206718716     -0.51573049891679
  C   -0.70662082095446     -1.79083313390637      0.73438856586309
  N   -0.85302840032489     -2.84459711825198      1.24257167104504
