13
Coordinates from ORCA-job run
  C   0.46504921756357      0.27164388613602      0.14095290056525
  C   -0.55310895326558     -0.58825605674273     -0.01815421325702
  N   1.74444629018530     -0.09705409254708      0.76046025138448
  O   1.71010943900225     -0.92711243409648      1.65959658018433
  O   2.72389824911829      0.47119605686457      0.28914105077404
  N   0.44193733678684      1.65771780532976     -0.32642443879817
  O   0.34375898485604      1.83486881772991     -1.53292695877423
  O   0.55136284755425      2.48893015011075      0.56640138103314
  N   -1.78374692985927     -0.13608335524273     -0.72209901316542
  O   -2.19631888936685      0.98113405314998     -0.44093143606266
  O   -2.25700965996747     -0.94347333024928     -1.51018571128620
  C   -0.56265877247512     -1.94166305195147      0.40016573791014
  N   -0.62771916013226     -3.07084844849120      0.73300386949231
