13
Coordinates from ORCA-job run
  C   0.51795523723247      0.20324691816452      0.02674951775784
  C   -0.60750256422297     -0.52633618793310      0.07468896623805
  N   1.74793322800065     -0.16319271859421      0.74067251563279
  O   1.98771988189370     -1.35776660572588      0.86055190626866
  O   2.40280142274640      0.78762443252902      1.15442604693175
  N   0.63988744340731      1.46940830604409     -0.69583210813912
  O   1.47100003386843      1.45506067732075     -1.59516131397514
  O   -0.06627913625087      2.39389861282845     -0.31705689943629
  N   -1.82376882956332     -0.03509854756075     -0.62855313539172
  O   -2.87094074985175     -0.16860500510606     -0.01017115599501
  O   -1.65642831175311      0.44163557287138     -1.74313602646626
  C   -0.77221047315591     -1.74341679935932      0.78063339695180
  N   -0.97016718235104     -2.75545865547891      1.35218828962268
