13
Coordinates from ORCA-job run
  C   0.44297309890632      0.33314082172951     -0.05743698200304
  C   -0.74391942635206     -0.23426376349666      0.20856166804872
  N   0.88871914565329      1.59427234224232      0.54867776667625
  O   2.09484257013723      1.66256088577484      0.76071419683596
  O   0.02873339527391      2.43158597019660      0.78969879476939
  N   1.45017198781861     -0.25789435890151     -0.93851321731393
  O   1.71831539932274      0.42361662297422     -1.92014276825322
  O   1.92453772651870     -1.33247693971049     -0.59657787999304
  N   -1.07358208360479     -1.55031107533829     -0.40327919293104
  O   -0.77343938056727     -1.69751013610587     -1.58043847342558
  O   -1.62047809439803     -2.34837340322472      0.34564425309996
  C   -1.73670904221163      0.29338859845857      1.07024731119313
  N   -2.59916529649703      0.68226443540148      1.77384452329646
