13
Coordinates from ORCA-job run
  C   0.52609915494896      0.17580322147078     -0.05277500594202
  C   -0.61522912100340     -0.49708337889295      0.16099162726049
  N   0.59887823077269      1.45540647940907     -0.75814621364084
  O   1.27474260625337      1.42676028676257     -1.77907185070676
  O   0.01183252500936      2.40193040549071     -0.25196528771735
  N   1.83303205040948     -0.27353374144148      0.44441200471798
  O   2.59693494723985      0.63051629585274      0.76586215375429
  O   2.02318406341365     -1.48160164496412      0.49954336028421
  N   -1.89989494313308      0.07665082112927     -0.32444001307653
  O   -1.88917741584570      0.57424883834064     -1.44238517588333
  O   -2.83838605847166     -0.01871549505048      0.45455992355670
  C   -0.73084575753603     -1.72552176247508      0.85686750918587
  N   -0.89017028205747     -2.74486032563168      1.42754696820730
