13
Coordinates from ORCA-job run
  C   0.47339366923010      0.29632192660474      0.06903815885087
  C   -0.71912718408974     -0.31606272995759      0.06800458633250
  N   1.50933625409776      0.12553860941059     -0.95419479186484
  O   2.36939370382830      0.99874185982970     -0.98220468527221
  O   1.40475436492436     -0.85513095444826     -1.67974253229615
  N   0.85345863072521      1.22102363723836      1.13747136333555
  O   0.28847418973980      2.30831079452233      1.15341437120719
  O   1.71360883986028      0.79289665618235      1.89894005512439
  N   -1.11500171806774     -1.28406644563404     -0.98647263690773
  O   -1.04623253880062     -2.45799085014386     -0.65734402351062
  O   -1.51316990617347     -0.79812353180966     -2.03348330830595
  C   -1.69684479037323     -0.09905442117353      1.07086300934045
  N   -2.52304351490103      0.06759544937886      1.89571043396655
