13
Coordinates from ORCA-job run
  C   0.47433899569603      0.25189931571201      0.14470084944712
  C   -0.57606698873164     -0.56557248085458     -0.02807977120055
  N   1.74339526191875     -0.18239350158671      0.74335088168041
  O   1.68257070741601     -1.02701106586596      1.62734293767673
  O   2.74107711408649      0.35232885827653      0.27136166819358
  N   0.50205563503935      1.64938065723487     -0.28598560904381
  O   0.40224026455358      1.86283599692675     -1.48639684569708
  O   0.65068731899472      2.45134465068955      0.62786506498787
  N   -1.79714634745285     -0.05041925850342     -0.70479098076460
  O   -2.31575579641254     -0.82258673059081     -1.49967475371484
  O   -2.15871047397676      1.07764427424311     -0.39751236588332
  C   -0.62940416257688     -1.92909177828201      0.35262017286820
  N   -0.72028152855425     -3.07035893739932      0.63419875145029
