13
Coordinates from ORCA-job run
  C   0.47292620330488      0.26134195832922      0.13166876317888
  C   -0.57049657552509     -0.57213564569258     -0.00254630692714
  N   1.74792263208000     -0.13443749431908      0.74374068661608
  O   2.73847235578236      0.39330284275967      0.24909144520660
  O   1.69904326713478     -0.94412214107209      1.66060929908316
  N   0.48584498095428      1.63983105291727     -0.35786406007543
  O   0.62749330658309      2.48139030190388      0.52061587445557
  O   0.38246749471600      1.80062429818662     -1.56616017316002
  N   -1.79659649068627     -0.09700839739646     -0.69918047983057
  O   -2.16932961078810      1.03903000488408     -0.43832493954267
  O   -2.30726162437124     -0.90632241764234     -1.46160946924950
  C   -0.61161666702840     -1.91817597017414      0.43705269032171
  N   -0.69786927215629     -3.04231839268406      0.78190666992334
