13
Coordinates from ORCA-job run
  C   0.50542271989684      0.22183243770691      0.06268768674405
  C   -0.61097222831724     -0.52285551076685      0.08544375923933
  N   0.56153019394317      1.59463354277868     -0.43956736471090
  O   0.89461589597770      2.42115509443789      0.40069534636990
  O   0.30160529176814      1.76409059914513     -1.62285110076395
  N   1.81723563734146     -0.27770540970958      0.49440663020905
  O   1.83184411800143     -1.07979243653532      1.41913262081061
  O   2.76804685738437      0.16577600707521     -0.14088807986810
  N   -1.88047120485454      0.05262993394610     -0.43615473226761
  O   -2.11818538997543      1.21530672352465     -0.13747941560101
  O   -2.55856053710286     -0.71105889441635     -1.10992405026090
  C   -0.69892365382095     -1.86187367980909      0.53937024067887
  N   -0.81418770024209     -2.98313840737739      0.88512845942066
