13
Coordinates from ORCA-job run
  C   0.50992582636656      0.22262073573227      0.01477976966025
  C   -0.63071098128149     -0.45488711650714      0.21793151324153
  N   1.77749080860668     -0.11585245183403      0.67517246438460
  O   1.71158698185792     -0.55925823026178      1.81431693564467
  O   2.77800951672979      0.07736591816438     -0.00741183720739
  N   0.64132556265998      1.33948410148906     -0.92096912583977
  O   0.95185376186981      2.40018564851854     -0.39317926070101
  O   0.45724741222044      1.09579705128543     -2.10548217344069
  N   -1.84811158135144     -0.07781160895879     -0.55061139029821
  O   -2.51277639698140     -1.01763648714295     -0.96516200000102
  O   -2.06199101029009      1.11968989775107     -0.68425509197766
  C   -0.79081532848139     -1.55480460268687      1.09621554246519
  N   -0.98303457192537     -2.47589285554920      1.80665465406950
