13
Coordinates from ORCA-job run
  C   0.52389127324229      0.18818072193561      0.00888353734184
  C   -0.62045190306199     -0.50741131468211      0.09860790879798
  N   1.76233154920261     -0.20395878732943      0.69374518685691
  O   1.97254341609625     -1.40314176738114      0.82234857261632
  O   2.45415052751779      0.73334992020476      1.07727596804838
  N   0.66176131652551      1.44024719397948     -0.73488579358156
  O   1.46625586465829      1.38827166019986     -1.65695674756379
  O   -0.00582870097097      2.39063644425669     -0.35065929703011
  N   -1.84118985537719      0.00907197522651     -0.57782734175250
  O   -1.69142079364077      0.46749367983710     -1.70254617259443
  O   -2.87441838685402     -0.08782924630444      0.07023213284183
  C   -0.79921752268791     -1.70924577919089      0.82695251812025
  N   -1.00840678464991     -2.70366470075199      1.42482952789888
