13
Coordinates from ORCA-job run
  C   0.51041128256778      0.21506964415657      0.05347821881395
  C   -0.58723537162184     -0.55494006575709     -0.00722802876052
  N   1.76566409458465     -0.21658245194967      0.68150058090509
  O   2.05170144679079     -1.40395655767075      0.59720235592052
  O   2.39216988518223      0.67721212313950      1.24087865922290
  N   0.57315442480731      1.58744964659313     -0.44933819514099
  O   1.38667363242492      1.75332558102867     -1.34975785511879
  O   -0.15712878038428      2.40923603506400      0.08714511867785
  N   -1.83264130440685      0.00043200172801     -0.60336403050971
  O   -2.86272957933165     -0.27351541246565     -0.00272342768148
  O   -1.70313120423167      0.66190316596162     -1.62476333154223
  C   -0.69520656788091     -1.87783802719792      0.48755842058354
  N   -0.83970195850051     -2.97679568263046      0.88941151462987
