13
Coordinates from ORCA-job run
  C   0.43467359234118      0.34280601740393      0.06020735609399
  C   -0.73329377278525     -0.31535545804924      0.12320817190187
  N   1.42092146189078      0.15376830468027     -1.00361351618297
  O   1.64702759954235      1.16164835029700     -1.66157815813700
  O   1.92162872216754     -0.95791849063636     -1.10458341545930
  N   0.88031462305433      1.29637960890386      1.08423150377427
  O   2.09146832636153      1.31262395373707      1.27674315356068
  O   0.01571210767142      1.95958950279107      1.64229012862596
  N   -1.06253916962156     -1.31413842074719     -0.93008770552235
  O   -0.80289846743601     -0.99914271790294     -2.08367618310787
  O   -1.56827798949851     -2.35077248454558     -0.52220151719070
  C   -1.70444144974330     -0.17697898914785      1.14501144812823
  N   -2.54129558394449     -0.11250917678404      1.97304873351520
