13
Coordinates from ORCA-job run
  C   0.47113895139770      0.25942458866403      0.14197703838380
  C   -0.56961162219832     -0.57252769252543     -0.01932116339759
  N   1.73792205362941     -0.14456237097092      0.76584486832385
  O   2.73452136795708      0.39288911311861      0.29442192171370
  O   1.67719760538130     -0.96958693582943      1.66816805101305
  N   0.48917092210416      1.64509089824884     -0.32647242397932
  O   0.61734039081773      2.47385769316611      0.56603800463648
  O   0.40250059034721      1.82343849445256     -1.53371088153377
  N   -1.78591952028184     -0.08774656048659     -0.72631339762041
  O   -2.28403296313621     -0.88521826764357     -1.50922359881447
  O   -2.16404140663491      1.04349123324163     -0.45263085992785
  C   -0.61629842051706     -1.92490611719362      0.39993215507617
  N   -0.71188794886624     -3.05264407624222      0.73029028612635
