13
Coordinates from ORCA-job run
  C   0.44055361371502      0.33148002557943      0.05891602105518
  C   -0.73854992992786     -0.30648337983970      0.12446532738548
  N   0.91786233449445      1.25186807480621      1.09909570612865
  O   2.12957644333769      1.22660665810025      1.28736685836892
  O   0.07600818997650      1.93224551983760      1.67103264563303
  N   1.40888691826106      0.15280555264361     -1.02290257454268
  O   1.89079001014631     -0.96343785285556     -1.15800110950648
  O   1.64281982294782      1.17344660061878     -1.65824836470735
  N   -1.10726847871706     -1.27028850321325     -0.94786149701001
  O   -1.64566919108605     -2.29823447372017     -0.55992322485480
  O   -0.84241345538003     -0.93943299259616     -2.09592026921842
  C   -1.68648710227873     -0.17734536482634      1.16938159090138
  N   -2.48610917548911     -0.11422986453469      2.03359889036710
