13
Coordinates from ORCA-job run
  C   0.51851064329555      0.20234840429815      0.01632025154437
  C   -0.63241133184749     -0.46796334006375      0.18212608420831
  N   1.81215167603644     -0.28022752473906      0.51652858056395
  O   1.80472008236087     -0.91012491452352      1.56613715823729
  O   2.77171456130690     -0.00171974869080     -0.19490724392041
  N   0.63120824911185      1.46033216343672     -0.72171926660759
  O   1.02004460621749      2.40414225186151     -0.04484679237010
  O   0.35632612387094      1.43144580832485     -1.91339696513189
  N   -1.88158106072303      0.07022338787012     -0.42162298903237
  O   -2.60604095237412     -0.76421440425201     -0.94679085039793
  O   -2.05881736345490      1.27745874765577     -0.32805764815625
  C   -0.77802664812345     -1.69822650311665      0.86916616728909
  N   -0.95779858567704     -2.72447432806134      1.42106351377355
