13
Coordinates from ORCA-job run
  C   0.52165126930142      0.18684889403449     -0.05342354826318
  C   -0.62915193317895     -0.40116377816073      0.30896399370017
  N   0.61501415326393      1.25300925640255     -1.05093612355495
  O   1.05226551513231      2.31017513383330     -0.61371445153455
  O   0.27860846638798      0.97474253675106     -2.19365465883364
  N   1.83224175350160     -0.21082020679824      0.47588290751472
  O   2.75707154303424     -0.11724105386448     -0.32450717365626
  O   1.87104914947628     -0.59993150705438      1.63594210197309
  N   -1.89993541661753      0.02720424851582     -0.33658300998539
  O   -2.05281315386693      1.23017582257499     -0.50046938915837
  O   -2.66445246860694     -0.88155173029194     -0.63103531203531
  C   -0.75810750711520     -1.44959580472112      1.25278261984451
  N   -0.92344137071223     -2.32085181122133      2.02975204398916
