13
Coordinates from ORCA-job run
  C   0.48804842602105      0.25436280303741      0.08193859045934
  C   -0.60119981606010     -0.52954301506736      0.10318058178109
  N   1.74542321693752     -0.09380372935361      0.75627725045860
  O   2.75831003635013      0.27902569049320      0.17352334130297
  O   1.66167038008704     -0.71897336971016      1.80533429247176
  N   0.57105883148046      1.51724834225891     -0.65163278646421
  O   0.76849509689226      2.49603572783299      0.05755136120216
  O   0.46276135654297      1.45984279533720     -1.86882604523782
  N   -1.80711652052294     -0.12176301697496     -0.66748335321119
  O   -2.11491933461186      1.06160859473402     -0.61619652586697
  O   -2.36882518193058     -1.02597673905613     -1.27053820653839
  C   -0.71106282613469     -1.76856672602075      0.78128717250789
  N   -0.85264366505124     -2.81049735751078      1.31458432713478
