13
Coordinates from ORCA-job run
  C   0.51019277687391      0.22225935359527      0.02004687498965
  C   -0.58502459373111     -0.55158960411284      0.07645254945447
  N   1.76905109487619     -0.10961135710982      0.69952603859091
  O   2.05634168513963     -1.29600270655248      0.79246843039865
  O   2.39694511899191      0.85822437849114      1.11588417279598
  N   0.56574802124669      1.50670443887865     -0.67791276282498
  O   -0.16594071003434      2.39531756135011     -0.26365741768511
  O   1.37469442652684      1.54245929363604     -1.59678751066938
  N   -1.83426719335833     -0.09284387475051     -0.58991071367294
  O   -2.86136831114436     -0.27858029550117      0.04848134918027
  O   -1.71055100928129      0.41214804666482     -1.69767182073591
  C   -0.68752383556224     -1.78841898794649      0.75928261653025
  N   -0.83029747054347     -2.81906624664270      1.31379819364814
