13
Coordinates from ORCA-job run
  C   0.52018064323362      0.19772611762669     -0.01154081255626
  C   -0.60484423448740     -0.52516988633808      0.10261434586735
  N   1.80617980217559     -0.21654696064298      0.56376203718181
  O   2.50332705500488      0.70500276507375      0.97493149485964
  O   2.04610308057297     -1.41682392389215      0.58686567880313
  N   0.59063060025235      1.50090821528947     -0.67263081804800
  O   -0.07038489355989      2.40740689045995     -0.18507324602069
  O   1.33962379522548      1.53025436556595     -1.64126063033501
  N   -1.87502613769247      0.01211657657674     -0.45627668583256
  O   -2.86183084565476     -0.14820357868746      0.24901741936601
  O   -1.80629971253350      0.54839445060824     -1.55411774832455
  C   -0.71633798250435     -1.77772384553972      0.75479896774462
  N   -0.87132117003250     -2.81734118610039      1.28890999729452
