13
Coordinates from ORCA-job run
  C   0.45739364657794      0.27891382927991      0.15122197227577
  C   -0.54907847382121     -0.59173808592346     -0.02284525388077
  N   1.71457995795316     -0.06585989086556      0.82756191286279
  O   2.70867834144291      0.49230486383214      0.37538390633963
  O   1.64991987535089     -0.86903365854198      1.74919489028010
  N   0.44568245171449      1.65206263777789     -0.35325026810593
  O   0.51759137584309      2.50709072100728      0.52066828834253
  O   0.39247501449194      1.79671349830290     -1.56687413992455
  N   -1.75586794467549     -0.16691997747928     -0.78331134520278
  O   -2.18227239494058      0.95629450362015     -0.55102934490442
  O   -2.19788535292236     -0.99986686379116     -1.56288013871093
  C   -0.56591745553060     -1.93385291133117      0.43016841786111
  N   -0.63529904148420     -3.05510866588768      0.78799110276745
