13
Coordinates from ORCA-job run
  C   0.50175882049653      0.23374673249395      0.05958366818837
  C   -0.61783896741338     -0.50253166686681      0.13383832345094
  N   1.77004947515634     -0.16093479475520      0.68641578990624
  O   2.77361730726746      0.16600281847415      0.06188511246779
  O   1.70185681566809     -0.77540863454213      1.74307826808432
  N   0.60833038330558      1.48407644058505     -0.69230279016906
  O   0.87596544985785      2.46121369315832     -0.00426143072368
  O   0.44790186707523      1.41801360151853     -1.90336928819627
  N   -1.83552712016906     -0.05049610629082     -0.59291569603356
  O   -2.09095287392332      1.14521104793708     -0.54218933559232
  O   -2.45825888897572     -0.93554254987769     -1.16362752029664
  C   -0.75415085928650     -1.72844085662519      0.83051105521487
  N   -0.92375140905911     -2.75590972520923      1.38335384369900
