13
Coordinates from ORCA-job run
  C   0.44115421783815      0.31665693123138      0.12121680218106
  C   -0.71731106676544     -0.36017956911740      0.09042110506172
  N   1.53631103747312      0.10510916533187     -0.82538027606398
  O   1.30694710262336      0.34962560640170     -2.00199543146522
  O   2.57931227600059     -0.27485534409739     -0.30812770386497
  N   0.72341522364739      1.38985529425500      1.08346347132313
  O   1.41921346728249      2.29997926859415      0.64574078784694
  O   0.23635693634093      1.27870253309024      2.20113736253788
  N   -0.93411986749351     -1.38421371142247     -0.96744663339686
  O   0.01253880323739     -2.11673088116601     -1.22218971003367
  O   -2.05017444539129     -1.38524177629727     -1.46868217085087
  C   -1.80817875460004     -0.16760892149002      0.97350065322561
  N   -2.74546493019313     -0.05209859531379      1.67934174349924
