13
Coordinates from ORCA-job run
  C   0.53265218283192      0.16154735004987     -0.01142910300501
  C   -0.63980431851022     -0.47928937758667      0.11513434384443
  N   0.69544823004295      1.43358783915471     -0.71552953342902
  O   1.44501596048628      1.37738441906542     -1.68246835117808
  O   0.10043446903154      2.40043626320481     -0.25990232151876
  N   1.78353533241855     -0.31819669128373      0.58982128163419
  O   1.93815138091196     -1.53048814307157      0.66217009276060
  O   2.54185076682669      0.56770929327386      0.96970978267747
  N   -1.86618949579856      0.12655892301511     -0.47243428950349
  O   -1.75319280298052      0.61930939078099     -1.58675730644779
  O   -2.86583800649020      0.05925827131475      0.22958635289957
  C   -0.84370994162114     -1.69949045708523      0.80504110520939
  N   -1.06835375714924     -2.71732708083228      1.35605794605652
