13
Coordinates from ORCA-job run
  C   0.51146781969551      0.21987056904073      0.02309675972107
  C   -0.58775010731139     -0.54888591562317      0.07187916771491
  N   1.76396864616408     -0.11798591541010      0.71092785954493
  O   2.39309115416803      0.84621443641230      1.13353377019553
  O   2.04543997121683     -1.30593445093239      0.80367823320412
  N   0.57748999930011      1.50476748782890     -0.67339829826287
  O   1.39170852724267      1.53726769454436     -1.58770476399192
  O   -0.15134710928209      2.39691103056219     -0.26179571092661
  N   -1.83072550816422     -0.08575392013608     -0.60338513847968
  O   -2.86367898355527     -0.27345817335239      0.02487914264981
  O   -1.69666165236894      0.42402779884217     -1.70772454403277
  C   -0.69988724162474     -1.78517389607878      0.75442224979734
  N   -0.85311551548058     -2.81286674569774      1.31159127286614
