13
Coordinates from ORCA-job run
  C   0.49859452942887      0.23718212187676      0.07125465218810
  C   -0.61691380090656     -0.50775932312574      0.11682005646289
  N   1.75485905849104     -0.15046124436498      0.72563062271174
  O   1.66786118195555     -0.76633668137805      1.78002630611114
  O   2.76974571637325      0.18299558233679      0.12290249024623
  N   0.61296368340071      1.49111477128387     -0.67353596559090
  O   0.85857674406633      2.46716287755221      0.02435417794480
  O   0.47977887222572      1.42929969749256     -1.88805075196144
  N   -1.81992795675947     -0.06302621533386     -0.63768808770908
  O   -2.08743906180144      1.13008626088556     -0.58738405176388
  O   -2.42015402461098     -0.95068565032982     -1.22811054765347
  C   -0.75995651155814     -1.73656768787980      0.80698252101774
  N   -0.93798843030486     -2.76100450901551      1.36279857799610
