13
Coordinates from ORCA-job run
  C   0.48743395937673      0.23381332084335      0.12843193173803
  C   -0.60631632800959     -0.53458077162584      0.00732561534383
  N   0.58538345961774      1.60154462929595     -0.38155301109026
  O   0.48307604221038      1.75159579181831     -1.59131044993910
  O   0.78744322814046      2.44470155730921      0.48352048766855
  N   1.73625730732985     -0.23224719678430      0.74428979701609
  O   1.63828029707274     -1.01684175726411      1.67896668060063
  O   2.75700438730479      0.21785566358374      0.23461445323202
  N   -1.80310391872915      0.00643276991459     -0.69201785748553
  O   -2.36538636253763     -0.77919702817713     -1.44276235512547
  O   -2.10442468421076      1.16630873296648     -0.44401110346279
  C   -0.72832957781750     -1.86979384945708      0.46475187425797
  N   -0.86731780974804     -2.98859186242316      0.80975393724601
