16

C	-0.559511	-0.126063	-1.398975
C	0.0	0.0	0.0
F	-0.057006	-1.273603	-2.00726
H	1.094516	0.0	0.0
H	-1.64303	-0.317356	-1.312916
N	-0.221903	0.97932	-2.256935
H	-0.597332	1.834349	-1.874441
H	-0.644886	0.828102	-3.163201
N	-0.514726	-1.164097	0.758419
H	0.014579	-1.196298	1.62348
H	-0.214929	-1.990315	0.24651
C	-0.491959	1.277056	0.665445
H	-0.013785	2.155135	0.225069
H	-0.221716	1.267569	1.723746
H	-1.582585	1.366114	0.596836
Cl	3.645404	0.0	0.0
