16

C	-0.514017	-0.00841	-1.436344
C	0.0	0.0	0.0
F	-0.145398	1.17452	-2.058275
H	1.101207	0.0	0.0
H	-0.036217	-0.826158	-1.987102
N	-1.953423	-0.132472	-1.580356
H	-2.360841	0.732681	-1.23908
H	-2.223098	-0.859675	-0.922347
N	-0.496614	-1.255532	0.616282
H	0.15029	-1.992015	0.345385
H	-0.378986	-1.165719	1.620383
C	-0.512565	1.19232	0.784766
H	-0.021437	1.229726	1.760651
H	-1.594179	1.130921	0.945187
H	-0.275865	2.11907	0.260953
Cl	3.569447	0.0	0.0
