17

C	0.0	0.0	0.0
C	-0.530191	-0.06618	-1.421348
F	1.399245	0.0	0.0
H	-0.236075	0.819947	-1.982723
H	-1.631578	-0.160655	-1.323914
C	-0.490465	1.305557	0.588893
H	-0.114918	2.155222	0.010018
H	-0.13743	1.397787	1.619841
H	-1.58994	1.277791	0.569269
C	-0.465058	-1.169298	0.840241
H	-0.073413	-2.110886	0.45407
H	-1.562351	-1.17485	0.815623
H	-0.113965	-1.030445	1.867018
N	0.017508	-1.213069	-2.18182
O	0.887989	-0.977168	-3.025887
O	-0.420455	-2.338327	-1.937652
H	-3.270205	0.0	0.0
