17

C	0.0	0.0	0.0
C	-0.525883	0.04753	-1.425775
F	1.399244	0.0	0.0
H	-1.627912	0.023284	-1.347476
H	-0.108656	-0.772095	-2.011857
C	-0.479492	1.197142	0.790494
H	-1.576689	1.206202	0.737565
H	-0.156456	1.098147	1.83068
H	-0.071385	2.125137	0.383685
C	-0.492773	-1.28933	0.619513
H	-0.117628	-1.367633	1.643855
H	-1.592007	-1.252568	0.620736
H	-0.137694	-2.153098	0.048384
N	-0.119652	1.295196	-2.118872
O	0.988566	1.311074	-2.663351
O	-0.897379	2.250213	-2.097353
H	-3.309566	0.0	0.0
