17

C	0.0	0.0	0.0
C	-0.528542	0.07366	-1.422221
F	1.399191	0.0	0.0
H	-0.191888	-0.786841	-2.000367
H	-1.631341	0.130425	-1.329979
C	-0.469718	1.174452	0.830149
H	-1.567236	1.179811	0.798172
H	-0.124935	1.045664	1.860221
H	-0.076086	2.114493	0.440044
C	-0.493139	-1.30347	0.589643
H	-1.592674	-1.270926	0.575694
H	-0.124615	-2.154369	0.008008
H	-0.134338	-1.398236	1.618431
N	-0.020177	1.264016	-2.143652
O	0.96613	1.113527	-2.872237
O	-0.598505	2.338876	-1.973386
H	-3.279107	0.0	0.0
