16

C	0.0	0.0	0.0
C	-0.538817	0.020135	-1.417514
F	1.360109	0.0	0.0
H	-1.624392	0.17625	-1.369788
H	-0.287089	-0.898579	-1.934182
C	-0.504089	1.081655	0.907406
H	-1.590838	1.006677	0.981003
H	-0.235595	2.044778	0.474812
H	-0.041709	0.96806	1.886335
N	-0.33426	-1.383009	0.601114
O	-0.491272	-2.323468	-0.170254
O	-0.28866	-1.466802	1.822769
N	0.098328	1.11776	-2.19032
O	0.869499	0.792761	-3.093516
O	-0.185547	2.277834	-1.89681
Br	-3.825178	0.0	0.0
