16

C	0.0	0.0	0.0
C	-0.579492	0.123306	-1.385915
F	1.359733	0.0	0.0
H	-1.64207	-0.157998	-1.352042
H	-0.505682	1.154257	-1.729287
C	-0.528757	1.071425	0.914698
H	-0.124806	0.907267	1.913512
H	-1.621929	1.025235	0.927137
H	-0.200221	2.04541	0.545203
N	-0.358889	-1.364428	0.612745
O	-1.096803	-2.120832	-0.001841
O	0.153867	-1.580548	1.708443
N	0.117691	-0.69211	-2.419673
O	0.737991	-1.69383	-2.07531
O	0.000917	-0.295478	-3.579033
Br	-3.907586	0.0	0.0
