14

C	0.0	0.0	0.0
C	-0.53732	-0.062449	-1.430724
Br	1.947432	0.0	0.0
H	-1.645438	-0.197946	-1.153884
H	-0.335497	-0.882056	0.544107
C	-0.449134	1.220045	0.667665
N	-0.559438	2.266416	1.196099
N	-0.0298	-1.302673	-2.057948
O	-0.124878	-2.329153	-1.37202
O	0.413452	-1.274852	-3.208896
N	-0.352826	1.077446	-2.253508
H	0.567441	1.488084	-2.147121
H	-1.062865	1.758633	-2.015453
H	-2.668031	0.0	0.0
