14

C	0.0	0.0	0.0
C	-0.425868	-0.000806	-1.489628
Br	1.94168	0.0	0.0
H	0.463307	0.136632	-2.114349
H	-0.285604	-0.957431	0.421554
C	-0.48603	1.057975	0.87524
N	-0.557816	1.88518	1.715633
N	-1.224361	1.24412	-1.876165
O	-0.801163	2.322521	-1.467866
O	-2.087825	1.106821	-2.741429
N	-1.045325	-1.230266	-1.840247
H	-1.311907	-1.195717	-2.817911
H	-1.895058	-1.232236	-1.26277
H	-2.246886	0.0	0.0
