14

C	0.0	0.0	0.0
C	-0.404361	0.131816	-1.514299
Br	1.946311	0.0	0.0
H	0.523224	0.184054	-2.090813
H	-0.293103	-0.988567	0.339162
C	-0.469746	0.984942	0.958431
N	-0.567337	1.766453	1.839006
N	-1.008276	1.490799	-1.790014
O	-0.357889	2.436925	-1.347607
O	-2.00501	1.582717	-2.491649
N	-1.196148	-0.907703	-2.086162
H	-0.639234	-1.755074	-2.124197
H	-1.979932	-1.015902	-1.43606
H	-2.214917	0.0	0.0
