17

C	-0.22423	0.005623	-1.521052
C	0.0	0.0	0.0
Br	-2.143936	-0.380459	-1.933323
H	1.095262	0.0	0.0
C	0.104664	1.390875	-2.045048
H	1.133536	1.62009	-1.739195
H	0.046307	1.365909	-3.13412
H	-0.567177	2.153373	-1.652312
N	0.586599	-0.952902	-2.229782
H	1.541655	-0.753898	-1.910372
H	0.372018	-1.870515	-1.856537
N	-0.386868	-1.218292	0.710378
O	-0.745405	-1.117025	1.888546
O	-0.22662	-2.297825	0.128933
C	-0.519747	1.159145	0.687228
N	-0.875484	2.152317	1.208492
H	2.46796	0.0	0.0
