17

C	-0.433088	0.009992	-1.466449
C	0.0	0.0	0.0
Br	0.310258	1.816717	-2.164131
H	1.106478	0.0	0.0
C	0.240282	-1.021805	-2.347231
H	0.065117	-0.771977	-3.396948
H	1.31144	-1.023599	-2.140551
H	-0.17553	-2.00229	-2.124388
N	-1.841982	-0.021115	-1.5895
H	-2.275938	0.710218	-1.036764
H	-2.122008	0.084171	-2.558479
N	-0.334137	-1.239008	0.693639
O	-0.815741	-1.175535	1.836205
O	0.031413	-2.293265	0.155067
C	-0.540439	1.124308	0.733841
N	-0.943912	2.073804	1.299208
H	2.403325	0.0	0.0
