17

C	-0.449798	-0.046046	-1.480123
C	0.0	0.0	0.0
Br	-0.081998	1.77386	-2.181316
H	1.097323	0.0	0.0
C	0.412794	-0.993475	-2.297102
H	1.46459	-0.77977	-2.096701
H	0.203085	-2.021083	-2.002701
H	0.182556	-0.859931	-3.355034
N	-1.855331	-0.29823	-1.714357
H	-2.406552	0.347954	-1.157378
H	-2.029551	-1.23741	-1.367064
N	-0.33416	-1.202826	0.745786
O	-0.647788	-2.240287	0.126436
O	-0.134284	-1.168087	1.969208
C	-0.492018	1.135656	0.747232
N	-0.887349	2.068579	1.346387
H	2.397367	0.0	0.0
