14

C	0.0	0.0	0.0
C	-0.521341	0.23407	-1.421132
Br	1.96173	0.0	0.0
H	-1.622135	0.223716	-1.339852
H	-0.198384	-0.600539	-2.050893
C	-0.380869	1.102314	0.884559
N	-0.614864	2.005976	1.598621
C	-0.477941	-1.343881	0.532743
H	-0.096026	-1.508782	1.54139
H	-0.108547	-2.139398	-0.11963
H	-1.571569	-1.326897	0.537912
C	-0.059638	1.484082	-2.013801
N	0.315659	2.479148	-2.511376
Cl	-3.606817	0.0	0.0
