14

C	0.0	0.0	0.0
C	-0.259673	0.390588	-1.487674
Br	1.96509	0.0	0.0
H	0.281558	-0.355903	-2.077466
H	0.253005	1.341887	-1.656424
C	-0.403538	1.056147	0.924921
N	-0.610021	1.938372	1.673704
C	-0.521114	-1.368875	0.383644
H	-1.615085	-1.310433	0.344454
H	-0.194662	-1.632185	1.391496
H	-0.145742	-2.112611	-0.323683
C	-1.579565	0.525818	-2.119963
N	-2.352936	0.78748	-2.968402
Cl	-3.557524	0.0	0.0
