14

C	0.0	0.0	0.0
C	-0.551752	-0.247994	-1.409385
Br	1.962865	0.0	0.0
H	-0.23685	0.547727	-2.089504
H	-1.651906	-0.215597	-1.298263
C	-0.368286	1.352975	0.423866
N	-0.588249	2.451563	0.778574
C	-0.490646	-1.044655	0.992399
H	-0.113655	-0.824885	1.992675
H	-1.584192	-1.009861	0.98562
H	-0.13897	-2.032558	0.686737
C	-0.134319	-1.537814	-1.946223
N	0.192946	-2.572568	-2.394751
Cl	-3.65387	0.0	0.0
