14

C	0.0	0.0	0.0
C	-0.549571	-0.166526	-1.422535
Br	1.963194	0.0	0.0
H	-1.650554	-0.138997	-1.31553
H	-0.232877	0.668564	-2.053551
C	-0.375178	1.325028	0.497972
N	-0.600884	2.402601	0.909763
C	-0.492038	-1.100437	0.929576
H	-0.130323	-2.067438	0.574693
H	-0.124488	-0.931989	1.943326
H	-1.587292	-1.074576	0.916213
C	-0.12886	-1.421559	-2.033975
N	0.205279	-2.429692	-2.535194
Cl	-3.653394	0.0	0.0
