14

C	0.0	0.0	0.0
C	-0.551206	-0.200639	-1.418226
Br	1.962609	0.0	0.0
H	-0.234073	0.61823	-2.069863
H	-1.651791	-0.169056	-1.307929
C	-0.368154	1.339775	0.466376
N	-0.58493	2.429055	0.850868
C	-0.493079	-1.074806	0.958722
H	-0.147322	-2.053761	0.619842
H	-0.112946	-0.890008	1.964861
H	-1.587186	-1.035455	0.955445
C	-0.133858	-1.472649	-1.996093
N	0.195554	-2.496677	-2.46652
Cl	-3.653238	0.0	0.0
