14

C	0.0	0.0	0.0
C	-0.526786	-0.236425	-1.421217
Br	1.963033	0.0	0.0
H	-1.627818	-0.203397	-1.335939
H	-0.191158	0.560826	-2.089379
C	-0.381445	1.341163	0.445022
N	-0.605545	2.432386	0.819619
C	-0.476657	-1.073319	0.96974
H	-0.084365	-2.043303	0.657018
H	-1.570448	-1.074845	0.946374
H	-0.123412	-0.85491	1.978779
C	-0.093369	-1.524834	-1.95043
N	0.257611	-2.560881	-2.377564
Cl	-3.615022	0.0	0.0
