14

C	0.0	0.0	0.0
C	-0.522251	-0.259675	-1.418908
Br	1.962884	0.0	0.0
H	-1.623165	-0.221517	-1.340042
H	-0.178866	0.523776	-2.099615
C	-0.384079	1.346533	0.425312
N	-0.606651	2.442819	0.785611
C	-0.475127	-1.060945	0.984065
H	-1.5686	-1.070682	0.954813
H	-0.074109	-2.032747	0.688108
H	-0.128997	-0.824866	1.991513
C	-0.090597	-1.558831	-1.923362
N	0.255789	-2.601475	-2.337701
Cl	-3.610661	0.0	0.0
