18

C	-0.561766	-0.032185	-1.423214
C	0.0	0.0	0.0
Cl	0.264948	-1.291056	-2.370798
H	1.094153	0.0	0.0
C	-2.056946	-0.266408	-1.525339
H	-2.38495	-0.182259	-2.563681
H	-2.274008	-1.271886	-1.163794
H	-2.600275	0.460462	-0.922505
N	-0.233894	1.322814	-2.057899
O	0.874894	1.498727	-2.53393
O	-1.121142	2.174018	-1.974766
C	-0.465623	-1.183935	0.69889
N	-0.853359	-2.128287	1.284631
C	-0.356723	1.265559	0.783853
H	-1.428142	1.474211	0.840196
H	0.160598	2.119822	0.343161
H	0.039041	1.144496	1.794777
H	2.667685	0.0	0.0
