18

C	-0.374441	0.121576	-1.463737
C	0.0	0.0	0.0
Cl	-2.155129	0.332439	-1.732511
H	1.094769	0.0	0.0
C	0.379688	1.246671	-2.128154
H	-0.011572	2.200467	-1.77463
H	1.434402	1.148018	-1.846434
H	0.266558	1.199297	-3.210677
N	-0.007079	-1.198158	-2.154435
O	-0.713943	-2.173668	-1.923404
O	0.998562	-1.190813	-2.859756
C	-0.532194	-1.176476	0.662191
N	-0.953155	-2.072278	1.298943
C	-0.349693	1.248447	0.814429
H	0.22092	2.100894	0.442636
H	-0.031804	1.079574	1.8451
H	-1.418211	1.475463	0.800964
H	2.654999	0.0	0.0
