18

C	-0.562785	0.007744	-1.423735
C	0.0	0.0	0.0
Cl	0.249214	-1.23861	-2.399065
H	1.094145	0.0	0.0
C	-2.060965	-0.20826	-1.527357
H	-2.288141	-1.217608	-1.187187
H	-2.5957	0.511426	-0.910832
H	-2.38886	-0.100458	-2.563226
N	-0.226697	1.376338	-2.025574
O	0.871392	1.553631	-2.5277
O	-1.099139	2.236177	-1.889777
C	-0.465503	-1.203914	0.664321
N	-0.849366	-2.169544	1.217431
C	-0.349947	1.242183	0.823464
H	0.047168	1.086832	1.828549
H	-1.419454	1.454817	0.888051
H	0.172107	2.105855	0.408483
H	2.665391	0.0	0.0
