18

C	-0.526507	-0.131995	-1.431959
C	0.0	0.0	0.0
Cl	0.079635	-1.642885	-2.142433
H	1.106014	0.0	0.0
C	-2.037007	-0.10644	-1.573994
H	-2.452075	-0.959915	-1.035352
H	-2.318923	-0.181934	-2.628251
H	-2.439387	0.818353	-1.16405
N	0.03707	1.042054	-2.251772
O	1.015016	0.879121	-2.962106
O	-0.569839	2.104797	-2.101404
C	-0.486558	-1.125175	0.772942
N	-0.869047	-2.014907	1.442797
C	-0.345879	1.311358	0.712614
H	0.050164	1.23601	1.72814
H	-1.417083	1.525987	0.762935
H	0.169773	2.14011	0.22835
H	2.645745	0.0	0.0
