12
Coordinates from ORCA-job run
  C   0.68648034085230     -0.57222352363564      0.55241391075844
  C   -0.34452618955468     -0.02060953210255     -0.12800045410160
  H   0.60977945593913     -1.58912443156039      0.91815022863976
  N   1.80759637610767      0.12868558389670      0.87483571681825
  H   2.64453869620378     -0.39489444477533      1.06241348986208
  H   1.92129675262828      0.99643126373421      0.37139371022990
  N   -1.53804171435786     -0.82154940923691     -0.36974467283830
  O   -1.59326859981119     -1.96797914353520      0.07479898195122
  O   -2.42946246310021     -0.28291414427976     -1.03369603459351
  N   -0.28434287022882      1.29960741926651     -0.61383685338948
  H   -0.93456646925989      1.89833849411693     -0.11689821534188
  H   -0.54748331541849      1.32723186811141     -1.59182980799488
