12
Coordinates from ORCA-job run
  C   0.99524603871344      0.28684499195787      0.21595761805434
  C   -0.32242374628587      0.32709273803550     -0.13075187603461
  H   1.47425054045499      1.25965378137698      0.26270540799691
  N   1.79279392664890     -0.77755306920169      0.44928999480875
  H   2.68238930216608     -0.61941328401972      0.88604900205468
  H   1.35583500124590     -1.67993298477073      0.54398101888311
  N   -1.10972748315173     -0.88482808603261     -0.21447965311489
  O   -2.30197282113976     -0.76862952248237     -0.50905130802939
  O   -0.55833915148981     -1.97306553676301      0.01506964292455
  N   -0.95230633075235      1.55828399747526     -0.39481201320282
  H   -1.30787392429310      1.58220541226685     -1.34330799441998
  H   -1.74687135211668      1.69134156215766      0.21935016007934
