12
Coordinates from ORCA-job run
  C   0.77535123666925     -0.50096000890013      0.46405258096842
  C   -0.35392701281965     -0.06389045979789     -0.13633386613358
  H   0.84595289258980     -1.52928857364970      0.79530173084117
  N   1.86056415883948      0.33036123169691      0.64952665741344
  H   1.60180153370641      1.30639442912320      0.69274295823549
  H   2.48325079345676      0.01570048269930      1.37475989235822
  N   -1.46551959434705     -0.98771075813195     -0.30259759903680
  O   -1.31492189016945     -2.17190304874916      0.00113658148961
  O   -2.55551910729418     -0.48126063426707     -0.58638408590216
  N   -0.44896257396876      1.23532082697762     -0.65942589252638
  H   -1.40927926740429      1.54157698650163     -0.72061170505606
  H   -0.01779116925832      1.30365952649725     -1.57116725265138
