12
Coordinates from ORCA-job run
  C   0.88519444172600      0.32146275605627      0.28793929004196
  C   -0.37643154829282      0.27891720629907     -0.18229576303016
  H   1.38079073436170      1.29082160406716      0.29439412629155
  N   1.59359686423930     -0.77480240669243      0.78325841335163
  H   1.59864918420932     -1.58332582593696      0.18225066447964
  H   2.50900336404224     -0.53409031766974      1.12252240171962
  N   -1.12214969049476     -0.97294121509402     -0.12252476915014
  O   -2.31294899676735     -0.87527533951252      0.17661777357497
  O   -0.52907430775809     -2.02682168967890     -0.35311228129024
  N   -1.09358547712766      1.28040543227498     -0.85270641099173
  H   -1.97954262824789      1.46812649209190     -0.39946448651801
  H   -0.55250193988999      2.12952330379519     -0.93787895847908
