12
Coordinates from ORCA-job run
  C   0.75580363840367     -0.57127454824905      0.45463365174908
  C   -0.34886340281116     -0.03465992225740     -0.11253201069442
  H   0.71809691140603     -1.57089437868385      0.87068726784400
  N   1.95838886613076      0.06618802073589      0.45836640230464
  H   2.62306508658118     -0.20241755036930      1.16261990133242
  H   1.91285815386288      1.04948053004403      0.23331640604659
  N   -1.58006547358936     -0.81433957503402     -0.13293707842581
  O   -2.56970754561145     -0.25565052999704     -0.61675905460359
  O   -1.57800312519607     -1.95423995051833      0.33122695715319
  N   -0.33775945791645      1.26043267404598     -0.66500627424766
  H   -0.43802224582640      1.22543807115242     -1.67342042561677
  H   -1.11779140543363      1.80093715913067     -0.31019574284168
