12
Coordinates from ORCA-job run
  C   0.84032480360765      0.29430409517865      0.51320529233656
  C   -0.35256830146423      0.30871341086404     -0.16435758131066
  H   1.16957491265155      1.30623203996785      0.73529162615542
  N   1.69400298199428     -0.71585339660020      0.85825689708885
  H   2.37632768514969     -0.54104986988901      1.58285157260595
  H   1.31604403849767     -1.65257003356753      0.82558491649006
  N   -1.08232246939063     -0.94542553181213     -0.43273829730570
  O   -2.18595113393431     -0.90956705725500     -1.00709036739591
  O   -0.54697698481441     -2.02831440998884     -0.10399807322582
  N   -0.92128462185906      1.55441157031977     -0.57380747515729
  H   -1.88480584608572      1.39639184625103     -0.86306347166020
  H   -0.42236506435249      1.93172733653138     -1.37113503862126
