12
Coordinates from ORCA-job run
  C   0.90243983322589     -0.53831480841500      0.01282253875532
  C   -0.35040141582536     -0.04160902465684     -0.10459005874970
  H   1.13994362356529     -1.50929918643408     -0.40497464791547
  N   1.87954361757258      0.10091024573269      0.71231210178156
  H   1.68016359569502      1.06789804553132      0.92401122294637
  H   2.83307619023254     -0.12010794924649      0.48446296596830
  N   -1.35610259861413     -0.82574855607229     -0.81030516042240
  O   -1.05133642132676     -1.93046704883694     -1.25928397027653
  O   -2.47095157258318     -0.30597844580762     -0.92242748751197
  N   -0.69730380748464      1.21433794504724      0.42919439254014
  H   -1.33918453223268      1.11323285256870      1.20769382340132
  H   -1.16988651222458      1.77514593058930     -0.26991572051693
