12
Coordinates from ORCA-job run
  C   0.65842159482476     -0.43386316900633      0.69477922929412
  C   -0.35380232807726     -0.01610575192408     -0.09966051001758
  H   0.49329493258875     -1.23791051134321      1.40189304594984
  N   1.87717008239464      0.17143683707483      0.70435917676221
  H   2.04843755244216      0.78437430019934     -0.07948216557118
  H   2.66013457506445     -0.36418719542984      1.03571571515893
  N   -1.64973988963687     -0.67461191365716      0.00524146232148
  O   -1.80273705464181     -1.57314410540101      0.83237965050247
  O   -2.52395740313619     -0.28217841541506     -0.77409396273858
  N   -0.17903166496969      1.02955814846098     -1.02631359537277
  H   -0.71260064800921      1.84778654021234     -0.75436534734709
  H   -0.51458974884374      0.74984523622920     -1.94045269894185
