12
Coordinates from ORCA-job run
  C   0.87227829082288      0.25039531827711      0.54432786957479
  C   -0.28769775705376      0.34291491195234     -0.16563045343520
  H   1.32603571278418      1.20672187041424      0.78393992491575
  N   1.49740526681366     -0.84192401370295      1.03275581271258
  H   1.17759589990937     -1.74547728893107      0.72391555266908
  H   2.43946618476047     -0.74519013297941      1.36462224395433
  N   -1.00509902005498     -0.84234522446252     -0.58249571177705
  O   -0.55701092879275     -1.95541929797558     -0.26388751218900
  O   -2.03379027679810     -0.68099833855899     -1.24414529506670
  N   -0.80185302215136      1.60316906266659     -0.52718928652680
  H   -0.90082267746215      1.67184194327926     -1.53315692159640
  H   -1.72550767277747      1.73831119002097     -0.13305622323537
