12
Coordinates from ORCA-job run
  C   1.02274812264359      0.25065425120065      0.10014449770614
  C   -0.32128062275973      0.33523999738164     -0.11388123268507
  H   1.55827161813393      1.18190858368622     -0.05417880339896
  N   1.76337052470082     -0.79980873668811      0.50712087636838
  H   2.76336835374101     -0.73447440300653      0.46818500731185
  H   1.32357393594405     -1.70343592370210      0.56395668266126
  N   -1.17521113570744     -0.82269798289513      0.03548707431891
  O   -2.37910563274962     -0.67460138760521     -0.19059723404928
  O   -0.66523770957731     -1.90261377523072      0.37541703947041
  N   -0.90537069428688      1.55837769901538     -0.49606091509594
  H   -1.39021578043914      1.45995777954889     -1.38018813140608
  H   -1.59591097964329      1.85249389829501      0.18459513879840
