12
Coordinates from ORCA-job run
  C   0.84201146743183      0.33175670841024      0.41066908432218
  C   -0.31522759543529      0.24110527539971     -0.30043322376790
  H   1.23241575320722      1.33524955176364      0.56421427960510
  N   1.65910024650465     -0.67192036785169      0.86268831134027
  H   1.24649443450415     -1.59184898175326      0.87168957138419
  H   2.23878174482109     -0.43788223946727      1.65070843262574
  N   -0.99586653155700     -1.01432311458141     -0.47052255531822
  O   -2.14432857411185     -0.97094291968440     -0.92080430965747
  O   -0.42560084270137     -2.05889895165523     -0.11969221882927
  N   -0.93654745927183      1.30115127056392     -0.97893146962847
  H   -1.92564035879468      1.35429224245863     -0.77608453982468
  H   -0.47659228459691      2.18126152639712     -0.79650136225147
