12
Coordinates from ORCA-job run
  C   0.80770842435321     -0.57836389012250      0.34315800086823
  C   -0.34405549378420     -0.04290477843747     -0.12288039827328
  H   0.92339652343011     -1.65461121732096      0.38852162922373
  N   1.81935675833380      0.18406876225150      0.84002082116239
  H   2.74182003013290     -0.21430353392121      0.84850604190331
  H   1.75404979847035      1.16697358606180      0.61869837862691
  N   -1.40584537090019     -0.93577802019970     -0.56987343401620
  O   -1.24241481999608     -2.15296296898270     -0.48816563548679
  O   -2.41818137369068     -0.39273842659431     -1.02360053473281
  N   -0.53366627720576      1.35059411016137     -0.19175079853602
  H   -0.86086193762613      1.61647378301602     -1.11300683371525
  H   -1.23930626151734      1.65355259408815      0.47037276297579
