12
Coordinates from ORCA-job run
  C   0.67324306351905     -0.29520309234151      0.75108915130957
  C   -0.35980500617797     -0.01514817449637     -0.07645881857102
  H   0.50518697024598     -0.88117538789460      1.64668471032087
  N   1.92541574144388      0.19726254040843      0.54797083451772
  H   2.69330911299783     -0.29521013682616      0.96930354430683
  H   2.08408031965226      0.57742524101627     -0.37379584480126
  N   -1.68555411037754     -0.52142588342823      0.25452110714772
  O   -1.84084314489801     -1.16972975054423      1.28925464920228
  O   -2.58231127378759     -0.27025972438871     -0.55692642443018
  N   -0.17965820381092      0.74847709950435     -1.24581808774455
  H   -0.59415495045743      0.27711484899760     -2.04110118989659
  H   -0.63890851834952      1.64887241999316     -1.16472363136139
