12
Coordinates from ORCA-job run
  C   0.88697001142668      0.29918832748600      0.44334523268793
  C   -0.33520448490557      0.31239508521582     -0.15729274717571
  H   1.32152948273437      1.27860229406438      0.62641457578761
  N   1.68748990311412     -0.76011933318766      0.75362602412807
  H   2.41102528643698     -0.58611213583036      1.42916957187103
  H   1.23427028712259     -1.65933525596702      0.79170331953958
  N   -1.07667113179549     -0.90311474793731     -0.36523815080803
  O   -2.19656221396027     -0.81199563887953     -0.88270888143109
  O   -0.57532862357469     -1.97827354733278     -0.00020951163595
  N   -0.98346763809153      1.50693125355177     -0.52835538300586
  H   -1.90943196922588      1.29476416201511     -0.87420794782446
  H   -0.46461890928130      2.00706953680158     -1.23624610213312
