12
Coordinates from ORCA-job run
  C   0.83379026443118     -0.50845813152617     -0.10162523183295
  C   -0.43461002416371     -0.04906743597668     -0.13891777934736
  H   1.03110439884432     -1.53159513471302     -0.39403015901978
  N   1.92875633058911      0.30600029114444      0.16649157469735
  H   2.76679116956191     -0.20600075554866      0.39034926426750
  H   1.74874946025854      1.02967474559350      0.84873599862211
  N   -1.51360729810396     -1.00260656962204     -0.37636383488839
  O   -2.65294818301782     -0.58993786619249     -0.15064825617430
  O   -1.23519338615388     -2.14691001246040     -0.73064230664727
  N   -0.85060453580969      1.27254839899614     -0.05055239373817
  H   -0.10578922565135      1.94448409148374     -0.13697875677210
  H   -1.51743897078465      1.48286837882163      0.67518188083335
