12
Coordinates from ORCA-job run
  C   0.85064923030779     -0.54673655147684      0.28589385824685
  C   -0.34426872670906     -0.05758632033830     -0.11775381914870
  H   0.98372434687262     -1.61457262306749      0.41118810034267
  N   1.93930696197083      0.24806639435516      0.47132199637478
  H   1.73618872716740      1.23579652435634      0.52098794427285
  H   2.66900112977596     -0.09314812963039      1.07185436341271
  N   -1.44123281911703     -0.98577694455252     -0.35822015664579
  O   -1.24614030580302     -2.19404365643981     -0.22842486944035
  O   -2.52346158994906     -0.47939675349083     -0.67141321252617
  N   -0.55141060722148      1.32410387780594     -0.29540100305536
  H   -1.39400947544186      1.61668251017406      0.18518933933635
  H   -0.67934687185309      1.54761167230468     -1.27622254116985
