12
Coordinates from ORCA-job run
  C   0.77957702100710     -0.64501169386656      0.28319671499287
  C   -0.34118798116353     -0.01467922874324     -0.13698915657135
  H   0.80237766003260     -1.72680447417828      0.33746193215367
  N   1.92895939302583      0.02341201686191      0.57342642656579
  H   1.81819785544522      1.02055979052854      0.68707152642037
  H   2.58709505696617     -0.42769462168549      1.18430028790898
  N   -1.50698822152631     -0.81355401752869     -0.49410943250579
  O   -2.51654671509985     -0.18414726254281     -0.82604407058442
  O   -1.43563279908578     -2.04094467630411     -0.43690013625594
  N   -0.40827229836325      1.38886603980866     -0.22440297046695
  H   -1.23805937202418      1.73209037466826      0.24466655250553
  H   -0.46951959921401      1.68990775298181     -1.19067767416277
