12
Coordinates from ORCA-job run
  C   1.00813051797086      0.27017228939168      0.17604305084814
  C   -0.32125979533955      0.33214513560254     -0.11960388027492
  H   1.50572705366556      1.23434608861471      0.20094139441216
  N   1.79374650942127     -0.80801016479131      0.38341603944446
  H   1.34604160062485     -1.70332340769688      0.49301864480868
  H   2.70560625876282     -0.66619536272092      0.77755012739860
  N   -1.13260960250562     -0.86495542098660     -0.16635102365853
  O   -2.33390094922301     -0.72813095552293     -0.41211712843980
  O   -0.59231876032531     -1.96256091776252      0.04519634362864
  N   -0.93927110399567      1.57404876265405     -0.36227536038952
  H   -1.70777097736529      1.72038141169515      0.28147538013167
  H   -1.33112075169091      1.60208254152303     -1.29629358790960
