12
Coordinates from ORCA-job run
  C   0.73025200559715     -0.55699025736500      0.34836920420374
  C   -0.45430345792877     -0.04586156577376     -0.04745779517852
  H   0.80406418860284     -1.61648428940258      0.55632305467657
  N   1.83996900668348      0.23246494213368      0.63008231861538
  H   2.70146371035701     -0.28654023600889      0.68444078570012
  H   1.93563963764016      1.04006636282642      0.02991030781360
  N   -1.53797595405663     -0.96789658087597     -0.37112972735810
  O   -2.50144266024834     -0.47609151665659     -0.96205022633952
  O   -1.41517222591238     -2.15913718556503     -0.09149508395417
  N   -0.80619122153877      1.29514118777189     -0.11554497965167
  H   -0.15962944462478      1.91441594643135      0.34493519281952
  H   -1.13767358457096      1.62691319248446     -1.00738305134694
