12
Coordinates from ORCA-job run
  C   0.78555516485466     -0.59857162907576      0.23192231849772
  C   -0.40295988021241     -0.03573580074447     -0.08673672403214
  H   0.88700350741911     -1.67654778137888      0.24602823005437
  N   1.91657368105668      0.13791375625995      0.46223630649722
  H   2.64336327159282     -0.30593112985107      0.99623369493622
  H   1.74948651409164      1.10897739409343      0.67929034403584
  N   -1.51799277064604     -0.94512936513557     -0.41523924230601
  O   -2.52433143171322     -0.44070999917507     -0.91032747793998
  O   -1.38719700704160     -2.14169252037028     -0.15490360967244
  N   -0.59481872543908      1.31805646011570     -0.25613599407496
  H   -1.25211836612099      1.81496255840175      0.31429384300622
  H   -0.30356395784157      1.76440805686025     -1.10566168900204
