12
Coordinates from ORCA-job run
  C   0.86840291656271     -0.49406014771952      0.32503778547706
  C   -0.33873155818788     -0.07766752374777     -0.12200864515486
  H   1.10337974201066     -1.55163342263477      0.33780288710564
  N   1.79092128588648      0.36129107261732      0.84386811802759
  H   2.75187267411741      0.06735735460992      0.83574561248001
  H   1.61641265386328      1.33669260535155      0.64988768928984
  N   -1.29517700819739     -1.06981372765052     -0.59634872653922
  O   -2.36321722536731     -0.63011185560414     -1.03380659527249
  O   -0.99621049789113     -2.26292860012270     -0.55169299725698
  N   -0.68216859442259      1.28758286044285     -0.15022757003849
  H   -1.41071827347056      1.49270480910605      0.52449330696886
  H   -1.04476611490369      1.54058657535173     -1.06175086508698
