12
Coordinates from ORCA-job run
  C   0.87639426670741      0.30523274570515      0.41634350905153
  C   -0.30531022938490      0.27669421012270     -0.25943933144513
  H   1.36688250886269      1.27426583146601      0.46983532173420
  N   1.49443021728100     -0.69136200685298      1.12176819965764
  H   1.19474224167071     -1.62871757274865      0.90483174603244
  H   2.47826310922710     -0.56292692263882      1.28476866236270
  N   -1.03372904068710     -0.94557412982642     -0.44006013820246
  O   -2.11201408367715     -0.88293532483644     -1.04331730672324
  O   -0.55914788100301     -1.99837321907989      0.01507775478004
  N   -0.85126582468280      1.38328097107825     -0.93992327176871
  H   -0.71286718814272      2.23846942487892     -0.42098239607274
  H   -1.83637809617124      1.23094599273216     -1.10890274940627
