12
Coordinates from ORCA-job run
  C   0.84943587527210      0.30412802291377      0.41489681462170
  C   -0.38099608519348      0.27425813190685     -0.16641915678737
  H   1.34929344322788      1.27009258999933      0.42621112159998
  N   1.50824447181479     -0.68508356347611      1.09719843246504
  H   1.14606589956042     -1.61672410183014      0.96574888383280
  H   2.50973215609697     -0.59794836872996      1.12964428305150
  N   -1.09278531655804     -0.96168092071946     -0.35376205826273
  O   -2.08244823678054     -0.93095615803908     -1.09065500139631
  O   -0.65869265154262     -1.99127898257990      0.18560828637015
  N   -1.10918175030849      1.39823887737177     -0.58678338451604
  H   -1.46864126587609      1.28873652557179     -1.52548881610319
  H   -0.57002653971289      2.24721794761112     -0.49719940487553
