12
Coordinates from ORCA-job run
  C   1.02739151148537      0.23170021773937      0.10434173009633
  C   -0.31205126847447      0.33882853726805     -0.12482586436922
  H   1.56911964684203      1.16941441921255      0.03306499930292
  N   1.77322349796526     -0.86680572984770      0.34894306528481
  H   2.71093222485516     -0.74275071230917      0.68399849929016
  H   1.29154513741476     -1.72832801085201      0.54842367746248
  N   -1.17854022354207     -0.81747032293513     -0.04533943315551
  O   -0.67867295310291     -1.92247582693486      0.21970493243674
  O   -2.38331369245609     -0.63922172011277     -0.24244178711098
  N   -0.88464566495350      1.58937098970859     -0.42765925071356
  H   -1.32464344290388      1.56879890535122     -1.34024312426974
  H   -1.61034477312965      1.81893925371185      0.24103255574558
