12
Coordinates from ORCA-job run
  C   0.96693835809744      0.27033382898330      0.33414529655246
  C   -0.28402535553911      0.32463217062118     -0.20476678555052
  H   1.48070098256909      1.22577821719809      0.36702657927938
  N   1.66864351822022     -0.79547008187138      0.77498804276921
  H   1.18112472314085     -1.67052346209839      0.87833916921360
  H   2.49660638624693     -0.63129956488956      1.31767769647665
  N   -1.10931126890864     -0.86040099084446     -0.29758912448932
  O   -0.65019112940947     -1.94204732518656      0.10306809600583
  O   -2.24079243918232     -0.72921477809947     -0.77154947206352
  N   -0.80896478574732      1.54816277052347     -0.66340607402901
  H   -1.02484847654528      1.49646788884189     -1.65204953569416
  H   -1.67588051294239      1.76458132682186     -0.18588388847061
