12
Coordinates from ORCA-job run
  C   0.91110724593917      0.28059667515363      0.45880967774481
  C   -0.30639732309455      0.33339100277290     -0.15144167979139
  H   1.31378930010279      1.24917751430261      0.73748318871716
  N   1.70327593197487     -0.78399637507132      0.71013265843409
  H   1.30869251249229     -1.70239530518107      0.58720803037117
  H   2.47123462937636     -0.66561168651445      1.34535904409131
  N   -0.98801300967856     -0.87467773071985     -0.56364257442978
  O   -2.09773677469792     -0.75110154978236     -1.08808901137911
  O   -0.43374165338256     -1.96890651304140     -0.37125983192928
  N   -0.93949887362953      1.57147350394818     -0.37370929420998
  H   -1.84858127367577      1.59054712105929      0.07278788192624
  H   -1.09413071172658      1.72150334307384     -1.36363808954524
