12
Coordinates from ORCA-job run
  C   0.74055130552821     -0.54058142794179      0.51350890368087
  C   -0.36031633431720     -0.01664026574840     -0.07302739782223
  H   0.68225073919241     -1.50298599051359      1.00760678541385
  N   1.92187906542107      0.13131022808162      0.58154505812493
  H   1.98964631138654      0.92761312703675     -0.03545604508198
  H   2.75845623160713     -0.41022150866694      0.71033900359535
  N   -1.60455254145794     -0.77464754913640     -0.04008849666958
  O   -2.56482203734720     -0.26997543570545     -0.63075583423237
  O   -1.63485320617668     -1.85619557167030      0.54667796239726
  N   -0.32529608312321      1.23300549675771     -0.72114534165121
  H   -0.87195612102655      1.91980038216727     -0.21346609107987
  H   -0.73098732968660      1.16051851533952     -1.64673850667502
