12
Coordinates from ORCA-job run
  C   0.59452968169397     -0.32711949498605      0.71055735395600
  C   -0.44949357021052     -0.02777513170954     -0.09090160248126
  H   0.47750465425317     -1.09704620904148      1.46209982670959
  N   1.78176074306800      0.39666793917430      0.71080334226593
  H   2.06285393439194      0.73148178489973     -0.20042228726505
  H   2.54074456869734     -0.07121991881617      1.17924190369297
  N   -1.62671092189207     -0.88939415953600     -0.05223773563411
  O   -1.72442859977644     -1.73168452514791      0.83854586523852
  O   -2.43385510743063     -0.73538135135519     -0.97106361305259
  N   -0.57562118244631      1.07498868334567     -0.92459616148009
  H   -0.75713232712140      0.88298084654990     -1.89700649719915
  H   0.11084812677295      1.79350153662276     -0.76302039475075
