12
Coordinates from ORCA-job run
  C   0.77341640455955     -0.48830469461107      0.35604449240605
  C   -0.41665284510808     -0.11249415493185     -0.15766115228759
  H   0.88252132780351     -1.48929659223847      0.75268444764716
  N   1.91499468874513      0.30253464042488      0.28596561366097
  H   2.65233460115812      0.00372038477050      0.90356041351693
  H   1.73944528599100      1.29366756546723      0.37659832793274
  N   -1.56259056949744     -0.99755556155164      0.02148303649693
  O   -1.37984282939495     -2.13596491164748      0.44963578213699
  O   -2.66430701362882     -0.50622497032486     -0.23194266459263
  N   -0.68105047359231      1.01404680281436     -0.92557622162156
  H   -1.40364979055775      1.62677664133930     -0.58170703559612
  H   0.14438121352203      1.49009485048910     -1.25108503969989
