12
Coordinates from ORCA-job run
  C   0.77312443474190     -0.60294325947868      0.37812318595655
  C   -0.34690311553685     -0.03003569229061     -0.11956463794761
  H   0.82564264415434     -1.67934348704399      0.48916777511833
  N   1.83031987351611      0.12751620550645      0.82574113101375
  H   2.72730426136446     -0.32416283980947      0.85880926322863
  H   1.82291584764556      1.09696364102438      0.54397926084239
  N   -1.46081180021084     -0.88437743043258     -0.51158615009161
  O   -2.43832441217596     -0.31184372280427     -1.00374773650174
  O   -1.37126475639956     -2.10131436338481     -0.35064282785934
  N   -0.45421831870698      1.36544231055038     -0.27340090871899
  H   -1.13518605204167      1.75000863431993      0.37198306234750
  H   -0.77259860635051      1.59309000384326     -1.20786141738786
