12
Coordinates from ORCA-job run
  C   0.81312294407620      0.21476381531413      0.64151846382748
  C   -0.25374329583637      0.35422531702109     -0.19548406108946
  H   1.20205895578727      1.15115876654713      1.02863140754369
  N   1.48203594020657     -0.89987909839151      1.00605609578779
  H   1.07638464289041     -1.79115498288653      0.77130773173056
  H   2.12074410989562     -0.84274830278569      1.77791656979071
  N   -0.90172400734789     -0.80108920336719     -0.77748152725456
  O   -1.87695880907190     -0.59929662827995     -1.50579342100882
  O   -0.45548783710761     -1.93053250173269     -0.51942587003534
  N   -0.76145221460589      1.63321209249201     -0.49456040493693
  H   -0.70558019618789      1.81606269387913     -1.48967693546097
  H   -1.74040023269853      1.69527803219007     -0.24100804889413
