12
Coordinates from ORCA-job run
  C   0.80325717158810     -0.55047275060558      0.11294426656378
  C   -0.41468635871153     -0.02143063087540     -0.11423052122943
  H   0.96390199587779     -1.58799067945491     -0.14840288034261
  N   1.90251620242983      0.14287571235439      0.60057830305307
  H   1.72497734077383      0.93433050100255      1.19837291032058
  H   2.60522170112766     -0.45708331824729      1.00169297151977
  N   -1.42353248148390     -0.86989487303223     -0.73315347385571
  O   -2.44106834700550     -0.29639375030033     -1.13361793808437
  O   -1.23927415037847     -2.08538152490482     -0.79107730514558
  N   -0.88959751942220      1.26472824858138      0.19167931951011
  H   -1.46112208467173      1.62270537762748     -0.56381551013896
  H   -0.12959347012389      1.90300768785475      0.38002985782934
