14

C	-0.518272	0.029146	-1.421762
C	0.0	0.0	0.0
Cl	-0.215472	1.649596	-2.178797
H	1.093442	0.0	0.0
H	-1.607601	-0.068112	-1.434086
H	-0.327495	-0.965005	0.411883
C	0.167751	-1.029661	-2.263814
H	-0.1572	-0.984568	-3.305993
H	-0.074652	-2.020088	-1.863347
H	1.249604	-0.891821	-2.20082
N	-0.602739	1.060972	0.825301
H	-0.179654	1.930834	0.516588
H	-0.245924	0.925008	1.765853
H	3.147819	0.0	0.0
