13

C	-0.519182	0.029711	-1.429546
C	0.0	0.0	0.0
Cl	-0.140804	-1.45541	-2.373368
H	1.101396	0.0	0.0
H	-0.069895	0.864983	-1.967898
H	-1.610303	0.116527	-1.413469
N	-0.603123	-1.125181	0.710293
H	-0.2643	-1.054626	1.663985
H	-0.215164	-1.981813	0.329278
N	-0.404184	1.206782	0.708045
H	0.181191	1.982887	0.42216
H	-1.377729	1.422329	0.516137
Cl	3.575759	0.0	0.0
