15
Coordinates from ORCA-job run
  C   0.78416757138745     -0.15093882929478      0.11994299824453
  C   -0.59473429579597     -0.82231493129348      0.04323936979661
  Br  1.73956193065597     -0.40640439635446     -1.58928094481437
  H   -1.00619273309472     -0.79602516316597      1.05995220174862
  H   -0.44506767679477     -1.87534666526803     -0.21026079468233
  C   0.72025019743764      1.34390061684775      0.41520528775953
  H   1.72296628249231      1.75603510899935      0.53079595852711
  H   0.21972007777714      1.87039801631147     -0.39688211187165
  H   0.16365321947968      1.50259909269568      1.34376705686049
  C   1.58456071220069     -0.82709871710342      1.13967884268213
  N   2.18696819956416     -1.35978348279133      1.99706242179457
  C   -1.57364108961186     -0.17464931297323     -0.92842763744289
  H   -2.49085958939848     -0.76607152825912     -0.96761678051785
  H   -1.84863511265892      0.83497046108792     -0.61830663794592
  H   -1.16171769364032     -0.12927026943834     -1.93786923013857
