15
Coordinates from ORCA-job run
  C   0.78927441514791     -0.11234054854830      0.12752136514372
  C   -0.54679935794449     -0.85676674725499     -0.00987848575834
  Br  1.78659798011481     -0.22581250876302     -1.57302252761663
  H   -0.97628870265368     -0.90724050817437      0.99828431885828
  H   -0.33183753305328     -1.88484606033184     -0.31367008275220
  C   0.63376802868762      1.35932165863911      0.49572944952193
  H   0.11837436257338      1.89713954543417     -0.29966143547111
  H   1.60877772957397      1.82134585223917      0.65270565146621
  H   0.05203629769454      1.43908656808925      1.41912593570366
  C   1.61036863630094     -0.79266501524045      1.12774097636314
  N   2.23140240538924     -1.32678675122732      1.97084879872581
  C   -1.54509742884431     -0.21667970530010     -0.96657025907011
  H   -1.88435624163968      0.75745754680000     -0.61038271559223
  H   -1.11887168095073     -0.09431482187090     -1.96345242013972
  H   -2.42534891039623     -0.85689850449042     -1.05531856938239
