15
Coordinates from ORCA-job run
  C   0.63911643825742      0.08657810398934      0.19866913228961
  C   -0.66765265104456      0.02881624058669     -0.59958969341931
  Br  1.89575931580955     -1.26439475457661     -0.50038022925916
  H   -1.27756812475564      0.86975480522012     -0.24644676357719
  H   -0.41587080204349      0.22992235811643     -1.64582590936479
  C   1.31046079356483      1.45223017906498      0.08882015964036
  H   0.64491503115478      2.21434124416617      0.50371278227028
  H   2.25320792379439      1.47096957487105      0.63626984809617
  H   1.50593857428850      1.68038815237426     -0.96041035423395
  C   0.39462188782906     -0.24599909446869      1.60078412576133
  N   0.16016483521609     -0.47068325618478      2.73064293642093
  C   -1.45521450229555     -1.26796175039826     -0.47238925749111
  H   -2.37830232842771     -1.19883944876572     -1.05186357771761
  H   -1.72593060961030     -1.46658388499753      0.56693850480992
  H   -0.88364578173735     -2.11753846899746     -0.84793170422547
