18
Coordinates from ORCA-job run
  C   0.41541510310928      0.38730888816865      0.47478618183664
  C   -0.95843291120782     -0.03583994069308     -0.05913382973035
  H   0.29332016497184      1.39263459679044      0.90442981040476
  H   -1.61364491144386     -0.19976390794523      0.81175772048209
  C   1.45357512292007      0.46439300352330     -0.64137424721466
  H   1.09848139110437      1.07946043930850     -1.46992971688856
  H   2.38657079889885      0.89402613322258     -0.26670982366185
  H   1.68081882117517     -0.53631515033227     -1.01856641449849
  C   0.86698755510918     -0.55654095106542      1.58343701494716
  H   1.84844934685510     -0.26643786795033      1.96856867863054
  H   0.16332959742690     -0.55345030662928      2.42156902396530
  H   0.92934821922632     -1.57541795715779      1.19699753020533
  N   -0.86547413751946     -1.31258008123046     -0.74646105828745
  H   -1.78257200672833     -1.73518642459062     -0.82578399133104
  H   -0.52832097501770     -1.14026495810728     -1.68751873492649
  N   -1.47145488712185      1.00759917747176     -0.95460484191279
  H   -2.42566022267030      0.78594393987689     -1.21816497518691
  H   -1.49173606908775      1.90043136733962     -0.47229832683322
