18
Coordinates from ORCA-job run
  C   0.49776321533118      0.48203017138504      0.25940450400739
  C   -0.75448821114490      0.17269606924398     -0.56966079788389
  H   0.40011387898796      1.52135027985306      0.60650895789438
  H   -0.69163200661504      0.76745269172719     -1.49529256578147
  C   1.74666539066194      0.38223964748112     -0.60913123190734
  H   2.64616937195726      0.60033781763445     -0.02683886260774
  H   1.83062027160905     -0.62548753523191     -1.01989626667887
  H   1.70875595437965      1.08762451896805     -1.44495819541325
  C   0.60207719977198     -0.42530525721278      1.48214379840512
  H   -0.31999115656128     -0.41100568707528      2.06562898015001
  H   1.42471257957168     -0.10431139510515      2.12688329820604
  H   0.80761842348340     -1.45436194920296      1.17535654421482
  N   -1.94913190871648      0.49474769242747      0.22014828708000
  H   -1.90853170404495      1.45945672751196      0.53319883981101
  H   -2.77327534288670      0.40271861626290     -0.36428216545474
  N   -0.76159104798220     -1.22169188371117     -0.97879761232831
  H   -1.11161814515498     -1.77439323126817     -0.20351526697322
  H   -1.39623676264755     -1.35509729368780     -1.75690024473994
