18
Coordinates from ORCA-job run
  C   0.43716403849919      0.27964600838151      0.40511511399113
  C   -0.73413340511111     -0.10193030070540     -0.50292848677076
  H   0.05160790655945      1.03621682969732      1.10250634517401
  H   -0.33472157048770     -0.72671821009352     -1.32063356793546
  C   1.56709846708024      0.88995046317041     -0.41850347909621
  H   1.19964323552693      1.71659886007934     -1.02552683213819
  H   2.00033211392258      0.13878070981593     -1.08797469858265
  H   2.36742310227285      1.25503841203118      0.23110830882977
  C   0.94242309152314     -0.91041986827210      1.21802149642251
  H   1.84453465724962     -0.64055805133956      1.77292565342073
  H   1.20209374979078     -1.74809124239197      0.56027560149632
  H   0.20296504416794     -1.25175538137412      1.94504786027731
  N   -1.27322942324639      1.09529272233994     -1.12355190887283
  H   -1.90533648422229      0.84842368800886     -1.87640998169835
  H   -1.81322046476409      1.59107813719786     -0.42098768892235
  N   -1.77083053420632     -0.79330788464003      0.27549427207188
  H   -2.55642860198149     -0.98807268566516     -0.33650130430814
  H   -1.42838492257335     -1.69017220624050      0.60252329664128
