15
Coordinates from ORCA-job run
  C   0.70138420749393     -0.10836957862886     -0.75652462309192
  C   -0.52413655680191      0.49257090262285     -0.06410329436717
  Cl  1.40076545709152      1.08519002705019     -1.89388029767420
  H   -0.19688655431304      1.39848041059673      0.45694231842282
  H   0.37679625969235     -0.95111115232652     -1.37899758807326
  C   1.77895214933505     -0.55488326728325      0.21348576970079
  H   2.10393305470953      0.29142720430063      0.82277129911554
  H   1.39191254718466     -1.32628929092715      0.87726116553043
  H   2.64347857567302     -0.93719658291656     -0.33124474904379
  N   -0.96147713407741     -0.45504467625014      0.96429356059424
  H   -1.67874983597253     -0.02348228239001      1.53570629301997
  H   -1.38283372847987     -1.26413003052579      0.51804832773187
  N   -1.50551390822018      0.90201779402727     -1.05481395729729
  H   -1.85863012204456      0.09328285550589     -1.55478327166397
  H   -2.28899441127057      1.35753766714470     -0.60316095290406
