15
Coordinates from ORCA-job run
  C   0.63203348935247     -0.53414916448474     -0.56169745697086
  C   -0.63966602758650     -0.01586319031309      0.10903865528393
  Cl  0.66194358796934     -0.06469332942185     -2.29282726263561
  H   -0.53331299749092     -0.29476133981417      1.17081172994555
  H   0.60807809622764     -1.62821274485156     -0.55828583062185
  C   1.88761873368999     -0.03134341207182      0.12065548389871
  H   1.90503151597246      1.05720782225165      0.10002214091218
  H   1.89977271325928     -0.36203787319833      1.16352389880029
  H   2.77796078691377     -0.41939044480278     -0.37589755724772
  N   -1.81444596863100     -0.61442175491941     -0.51822086526273
  H   -2.63965991401334     -0.38553053796289      0.02356922911641
  H   -1.73614083473273     -1.62529695039371     -0.54816232564150
  N   -0.67909325039205      1.42890270042881      0.06644081795178
  H   -1.36586265440112      1.78020373183636      0.72192425002937
  H   -0.96325727613729      1.70938648771752     -0.86589490755794
