15
Coordinates from ORCA-job run
  C   0.67252613154122     -0.18703662022034     -0.73734985981923
  C   -0.57286855504586      0.37418054769863     -0.05221768682287
  Cl  1.26214946342530      1.00567498567388     -1.95530093452235
  H   -0.27195772081441      1.30366452735549      0.45592148532751
  H   0.37595497200373     -1.06743652097512     -1.31385097760446
  C   1.79711295246799     -0.50245900389333      0.22552850997919
  H   2.66669740989848     -0.88101782019054     -0.31367414101011
  H   1.45793410966135     -1.24710701973582      0.94410538438678
  H   2.09456560660926      0.39747152768820      0.76880660483568
  N   -0.98976595601418     -0.56612113574802      0.97379550552075
  H   -1.57016845232708     -0.10074249208869      1.66024605886173
  H   -1.55532617881753     -1.27943313366763      0.52501701639342
  N   -1.63308420706213      0.56377492362856     -1.03865170787521
  H   -1.31507910432079      1.16000206830207     -1.79379022040207
  H   -2.41969047120535      1.02558516617267     -0.59658503724876
