16

C	0.0	0.0	0.0
C	-0.412366	-0.146385	-1.466593
Cl	1.79888	0.0	0.0
H	0.001575	-1.071527	-1.861577
H	-1.503885	-0.108908	-1.526648
C	-0.381233	1.318508	0.680009
H	0.164197	2.140633	0.224344
H	-0.054891	1.22234	1.718579
H	-1.444705	1.529616	0.631538
N	-0.42145	-1.12167	0.791591
H	-1.438096	-1.042064	0.877611
H	-0.202929	-1.988941	0.307999
N	0.134924	0.936668	-2.336658
O	-0.349903	2.063672	-2.190952
O	0.960157	0.630288	-3.19238
Br	-3.345677	0.0	0.0
