16

C	0.0	0.0	0.0
C	-0.489076	0.093612	-1.444209
Cl	1.793189	0.0	0.0
H	-1.577507	0.227098	-1.41602
H	-0.204859	-0.812881	-1.97244
C	-0.431476	1.169523	0.876543
H	-0.07732	0.986896	1.895043
H	-0.022641	2.115599	0.525449
H	-1.522341	1.213071	0.873517
N	-0.47944	-1.286862	0.459466
H	-1.502539	-1.235863	0.396254
H	-0.256015	-1.370129	1.446671
N	0.0937	1.224285	-2.20811
O	0.829878	0.948306	-3.155762
O	-0.202199	2.367819	-1.866234
Br	-3.829735	0.0	0.0
