16

C	0.0	0.0	0.0
C	-0.491765	0.11281	-1.442683
Cl	1.793325	0.0	0.0
H	-0.160421	-0.759108	-1.999643
H	-1.584131	0.193393	-1.407821
C	-0.444803	1.154456	0.885341
H	-0.038394	2.109306	0.554804
H	-0.106712	0.960363	1.907285
H	-1.53639	1.18898	0.864591
N	-0.473913	-1.295769	0.439996
H	-0.23775	-1.401741	1.422091
H	-1.497222	-1.251031	0.386322
N	0.029699	1.301441	-2.159108
O	-0.416117	2.405308	-1.842084
O	0.868579	1.112571	-3.041925
Br	-3.824394	0.0	0.0
