16

C	0.0	0.0	0.0
C	-0.472032	-0.197964	-1.443728
Cl	1.805284	0.0	0.0
H	-1.562907	-0.316752	-1.403928
H	-0.185911	0.637655	-2.079675
C	-0.440054	1.387067	0.446936
H	-0.099052	1.53687	1.472899
H	-1.531349	1.439158	0.41424
H	-0.008294	2.158932	-0.193396
N	-0.469294	-0.965888	0.952231
H	-0.32928	-1.895802	0.573666
H	-1.479561	-0.821153	1.022066
N	0.102004	-1.402958	-2.096847
O	0.660002	-1.25146	-3.183283
O	-0.018016	-2.485623	-1.523165
Br	-3.808443	0.0	0.0
