16

C	0.0	0.0	0.0
C	-0.467749	0.158057	-1.452902
Cl	1.79856	0.0	0.0
H	-1.559722	0.253535	-1.427906
H	-0.151619	-0.704482	-2.038492
C	-0.442524	1.136075	0.906131
H	-0.12238	0.894946	1.920778
H	-0.000228	2.080346	0.595364
H	-1.531363	1.212779	0.871381
N	-0.486672	-1.243084	0.54102
H	-0.291267	-2.00131	-0.104095
H	-1.503655	-1.14128	0.609879
N	0.085806	1.340978	-2.161564
O	0.882204	1.133058	-3.080289
O	-0.282648	2.456072	-1.794966
Br	-3.833667	0.0	0.0
