17

C	-0.596016	0.015695	-1.41297
C	0.0	0.0	0.0
Br	0.165266	-1.38928	-2.524895
H	1.09293	0.0	0.0
N	-2.002506	-0.121423	-1.35074
H	-2.412018	0.042888	-2.261989
H	-2.314917	0.587775	-0.689746
N	-0.208738	1.329242	-2.141711
O	-0.952375	1.673569	-3.060548
O	0.788604	1.929123	-1.7661
N	-0.422683	-1.187572	0.720462
H	0.319448	-1.874673	0.664903
H	-1.268133	-1.571081	0.31077
N	-0.572963	1.187533	0.662207
H	-0.657002	0.925625	1.637313
H	0.114448	1.931813	0.602913
Cl	3.465023	0.0	0.0
