17

C	-0.432933	-0.02436	-1.465506
C	0.0	0.0	0.0
Br	-2.501137	-0.420271	-1.544456
H	1.100046	0.0	0.0
N	-0.088952	1.134431	-2.100168
H	-0.378218	1.206825	-3.061906
H	-0.282893	1.928033	-1.501357
N	0.089702	-1.205031	-2.274616
O	0.229563	-1.020925	-3.477581
O	0.301266	-2.259113	-1.687745
N	-0.549299	-1.084705	0.806627
H	0.059968	-1.151225	1.617296
H	-0.425956	-1.953341	0.299747
N	-0.411771	1.293801	0.533843
H	-1.271792	1.14894	1.054192
H	0.31153	1.624612	1.162231
Cl	3.376246	0.0	0.0
