17

C	-0.608364	-0.002187	-1.401838
C	0.0	0.0	0.0
Br	0.263743	-1.474079	-2.497124
H	1.093266	0.0	0.0
N	-1.995593	-0.103644	-1.336778
H	-2.232644	-0.901091	-0.759642
H	-2.430171	-0.117353	-2.247477
N	-0.238382	1.247219	-2.179771
O	-1.066613	1.629305	-3.006864
O	0.849052	1.750363	-1.960168
N	-0.514972	-1.219571	0.669166
H	0.047017	-2.001121	0.340076
H	-0.278676	-1.11071	1.650117
N	-0.461337	1.207677	0.64004
H	-1.389272	1.08271	1.024863
H	0.198652	1.495121	1.350176
Cl	3.469285	0.0	0.0
