17

C	-0.340431	0.112271	-1.490667
C	0.0	0.0	0.0
Br	-2.207689	0.635533	-1.830893
H	1.101364	0.0	0.0
N	0.52409	1.057895	-2.072293
H	0.449173	1.081243	-3.080354
H	1.48472	0.857777	-1.787089
N	-0.187822	-1.312323	-2.112022
O	-1.142982	-2.071644	-2.151123
O	0.952051	-1.566153	-2.490523
N	-0.478521	-1.219099	0.588726
H	-1.37789	-1.042115	1.020235
H	0.179219	-1.527489	1.292289
N	-0.494572	1.198727	0.692209
H	-0.336157	1.99818	0.08429
H	0.126012	1.332255	1.486527
Cl	3.375553	0.0	0.0
