17

C	-0.468822	0.031829	-1.457983
C	0.0	0.0	0.0
Br	-2.425484	0.2278	-1.504917
H	1.097459	0.0	0.0
N	0.106952	1.079755	-2.237306
H	1.115517	0.936957	-2.193708
H	-0.095657	1.929896	-1.722856
N	-0.109688	-1.287707	-2.130056
O	1.040186	-1.342031	-2.549918
O	-0.935233	-2.187011	-2.180502
N	-0.435624	-1.198691	0.66857
H	-1.41484	-1.154224	0.92196
H	0.12978	-1.34764	1.493969
N	-0.354942	1.29996	0.589293
H	-1.101045	1.182656	1.263768
H	0.461494	1.660184	1.070015
Cl	3.347984	0.0	0.0
