16
Coordinates from ORCA-job run
  C   -0.62922579811160      0.38482038821685      0.51510026288563
  C   0.65577839578238      0.42359040215773     -0.32038767623911
  Cl  -0.70359230847217      1.63675128610204      1.71119220251767
  H   0.85610237651176      1.47687707469226     -0.52846512140640
  N   -0.88209708262157     -0.98827605403749      1.13152030752709
  O   -1.62931623859150     -1.04602324760107      2.09068219715512
  O   -0.34314512792077     -1.92235662015225      0.54975954097590
  N   -1.77555860255349      0.59863530642529     -0.49705191737429
  O   -2.51601938683223     -0.34855349303791     -0.70310787626892
  O   -1.79448208131673      1.70084039186109     -1.01434034652057
  N   0.53448005760358     -0.27695388591456     -1.53896271109698
  H   1.24964672127350     -0.00156468739106     -2.19614611001215
  H   0.53085994923914     -1.27841924047622     -1.40582502378078
  N   1.85294051620896     -0.02053684042283      0.54289868302342
  O   2.90688541461728     -0.10698823790156     -0.07536177219214
  O   1.68574319518346     -0.22984254252030      1.73849536080650
