16
Coordinates from ORCA-job run
  C   -0.62972339243998      0.37486552480562      0.37140225918111
  C   0.87364135679219      0.29597003543324     -0.00412060299101
  Cl  -1.07212083418797      2.05239504752100      0.54748224325844
  H   1.43222289445643      0.63253859241311      0.86994214438607
  N   -0.92800175802363     -0.35711230777745      1.67916559838335
  O   -0.08426166150543     -1.17790365707745      2.02246842653170
  O   -1.97435087285699     -0.08377554537064      2.24113427088876
  N   -1.53918327803734     -0.26769331681496     -0.68536717815454
  O   -2.18634773367927     -1.24353195437906     -0.34786502404912
  O   -1.50984334439375      0.27360367795838     -1.77991066149880
  N   1.28149129707386      1.01106142740802     -1.16108762951187
  H   0.61064814072784      0.94458314930789     -1.91470997961603
  H   1.49728921532910      1.97466571729876     -0.95709963195674
  N   1.29741562859274     -1.14026251379904     -0.21755482200018
  O   2.34938457346003     -1.48511917866587      0.29531115353794
  O   0.58073976869216     -1.80428469826155     -0.96119056638906
