16
Coordinates from ORCA-job run
  C   -0.67854288893992      0.32680998604484      0.33338344889381
  C   0.81641522914473      0.35333175323614     -0.02510733720196
  Cl  -1.22864625471663      1.97632305963502      0.54086203665948
  H   1.32403977486296      0.82079116932199      0.81989943122422
  N   -0.91643605913116     -0.38231726724108      1.66480549952957
  O   0.08774055582928     -0.77654552641712      2.24842932001944
  O   -2.07718912691698     -0.51155764022795      2.01576822003175
  N   -1.54534078737813     -0.34777841849547     -0.75163481521484
  O   -1.51130956030245      0.23005173663414     -1.83228023271304
  O   -2.08760338190298     -1.40393447950394     -0.49139875365292
  N   1.12621924093162      0.97185957523772     -1.25998798647517
  H   1.80531645615403      1.70863835751671     -1.17890496832183
  H   0.34346607795803      1.21502408684594     -1.84373946546602
  N   1.37099676577474     -1.06092996660406     -0.05811301876789
  O   2.56638457278568     -1.15075588071115      0.17953159358025
  O   0.60348938584717     -1.96901054527172     -0.36151297212485
