19

C	0.0	0.0	0.0
C	-0.555737	-0.106825	-1.429031
F	1.422757	0.0	0.0
H	-1.482491	-0.6839	-1.32758
N	-0.437917	1.207404	0.598114
H	-0.116917	1.990348	0.043266
H	-0.101779	1.275342	1.54948
C	-0.427626	-1.187545	0.836483
H	-1.514814	-1.164019	0.932407
H	0.041013	-1.133512	1.824141
H	-0.114881	-2.120496	0.360288
C	0.411127	-0.821479	-2.359338
H	-0.069678	-1.014924	-3.323799
H	1.298081	-0.205953	-2.521614
H	0.729276	-1.780405	-1.94415
N	-0.863791	1.23311	-1.949565
H	-1.744381	1.494028	-1.507057
H	-1.064557	1.139393	-2.939564
Cl	-3.950854	0.0	0.0
