15

C	-0.471144	0.006505	-1.449195
C	0.0	0.0	0.0
Br	0.281257	-1.445762	-2.478547
H	1.092932	0.0	0.0
H	-0.334069	0.948362	0.434672
N	-2.01222	-0.112242	-1.421212
O	-2.534802	-1.194091	-1.638044
O	-2.585668	0.915033	-1.071181
C	-0.163851	1.258018	-2.132114
N	0.068188	2.265184	-2.692634
C	-0.5239	-1.178238	0.808269
H	-1.606863	-1.139524	0.959626
H	-0.269946	-2.127162	0.333319
H	-0.039851	-1.160417	1.786759
Br	3.534426	0.0	0.0
