15

C	-0.466317	0.00879	-1.451552
C	0.0	0.0	0.0
Br	0.275051	-1.454891	-2.470958
H	1.092923	0.0	0.0
H	-0.334136	0.949659	0.431472
N	-2.008316	-0.09403	-1.427963
O	-2.573161	0.939684	-1.0833
O	-2.540075	-1.172216	-1.64157
C	-0.140395	1.254476	-2.136359
N	0.106566	2.256819	-2.699405
C	-0.529218	-1.176305	0.807206
H	-0.272047	-2.125882	0.335503
H	-1.613198	-1.13716	0.950163
H	-0.052733	-1.157168	1.789323
Br	3.529669	0.0	0.0
