15

C	-0.452852	0.002769	-1.433102
C	0.0	0.0	0.0
Br	0.167317	-1.587241	-2.38114
H	1.093168	0.0	0.0
H	-0.338034	-0.943374	0.438366
N	-1.9894	-0.05436	-1.512289
O	-2.51706	-0.959959	-0.880189
O	-2.561655	0.915267	-2.007416
C	0.008321	1.175518	-2.168854
N	0.445321	2.123487	-2.711637
C	-0.553253	1.194123	0.764215
H	-1.646147	1.175917	0.840751
H	-0.152781	1.181832	1.782208
H	-0.253577	2.140919	0.306016
Br	2.756616	0.0	0.0
