13

C	-0.453852	0.108531	-1.444433
C	0.0	0.0	0.0
Br	-0.211149	-1.530016	-2.474852
H	1.095211	0.0	0.0
H	-1.510947	0.363881	-1.542853
H	0.167337	0.86001	-1.935704
C	-0.555243	-1.153395	0.683253
N	-1.028243	-2.063393	1.259891
C	-0.373959	1.29024	0.737827
H	0.12461	2.130853	0.247097
H	0.006309	1.243483	1.760716
H	-1.454554	1.469814	0.765102
H	2.7463	0.0	0.0
