13

C	-0.475499	-0.057448	-1.449093
C	0.0	0.0	0.0
Br	-0.164297	1.602834	-2.433622
H	1.095427	0.0	0.0
H	-1.54722	-0.245832	-1.534707
H	0.087672	-0.823199	-1.983753
C	-0.451039	-1.243393	0.614656
N	-0.834823	-2.244339	1.099678
C	-0.491846	1.200236	0.802278
H	-0.175491	1.092067	1.842014
H	-0.030251	2.106151	0.408031
H	-1.581587	1.308881	0.771507
H	2.778227	0.0	0.0
