13

C	-0.452369	0.156324	-1.441239
C	0.0	0.0	0.0
Br	-0.208389	-1.450261	-2.522007
H	1.095178	0.0	0.0
H	0.167941	0.924659	-1.907501
H	-1.510112	0.413665	-1.529474
C	-0.555035	-1.176128	0.644216
N	-1.01349	-2.124602	1.16779
C	-0.369927	1.268213	0.777646
H	-1.448911	1.456115	0.800716
H	0.140887	2.119748	0.320672
H	-0.000695	1.184305	1.802351
H	2.746872	0.0	0.0
