16

C	0.0	0.0	0.0
C	-0.622232	0.259455	-1.347053
Cl	1.791557	0.0	0.0
H	-1.730753	0.238281	-1.059684
H	-0.300994	0.816397	0.651234
C	-0.498078	-1.318184	0.560587
H	-1.591061	-1.221937	0.541147
H	-0.13025	-1.45523	1.58136
H	-0.160392	-2.147712	-0.06236
N	-0.271059	-0.703172	-2.335457
H	0.684597	-0.562986	-2.642544
H	-0.875473	-0.601528	-3.138549
N	-0.300873	1.683645	-1.779485
O	-0.403877	2.580598	-0.945076
O	-0.000477	1.875567	-2.962789
F	-2.919658	0.0	0.0
