16

C	0.0	0.0	0.0
C	-0.454573	-0.0509	-1.483293
Cl	1.788449	0.0	0.0
H	0.396303	0.187168	-2.128962
H	-0.295821	0.993885	0.333713
C	-0.617648	-1.04129	0.901734
H	-1.70612	-0.919991	0.769313
H	-0.343448	-0.843896	1.941249
H	-0.284636	-2.045287	0.634667
N	-1.55869	0.769214	-1.720582
H	-2.358797	0.502753	-1.037456
H	-1.862886	0.666523	-2.680335
N	-0.663432	-1.557222	-1.870371
O	0.322568	-2.292883	-1.780792
O	-1.75985	-1.906056	-2.294748
F	-3.211232	0.0	0.0
