16

C	0.0	0.0	0.0
C	-0.392804	0.500927	-1.431383
Cl	1.792033	0.0	0.0
H	0.37415	1.215571	-1.733033
H	-0.302155	0.81158	0.664776
C	-0.632398	-1.288605	0.456306
H	-1.720061	-1.118345	0.378382
H	-0.355786	-1.491277	1.495349
H	-0.323361	-2.132071	-0.162843
N	-1.686509	1.037048	-1.642019
H	-1.65926	2.013331	-1.37231
H	-2.42952	0.5532	-1.024929
N	-0.194708	-0.656137	-2.39683
O	0.87659	-0.725062	-3.003719
O	-1.114511	-1.458545	-2.515111
F	-3.273265	0.0	0.0
