16

C	0.0	0.0	0.0
C	-0.632432	0.07706	-1.382208
Cl	1.790217	0.0	0.0
H	-1.700859	0.284667	-1.096898
H	-0.28658	0.915321	0.515497
C	-0.522615	-1.195915	0.767362
H	-0.156252	-1.171482	1.796385
H	-0.190763	-2.130536	0.306815
H	-1.616949	-1.080481	0.724955
N	-0.563682	-1.077318	-2.21771
H	-1.318296	-1.68966	-1.939149
H	0.322932	-1.558897	-2.137308
N	-0.053055	1.271763	-2.084357
O	0.602332	1.111685	-3.112775
O	-0.24864	2.363905	-1.547048
F	-2.92925	0.0	0.0
