16

C	0.0	0.0	0.0
C	-0.44185	0.12869	-1.483249
Cl	1.788476	0.0	0.0
H	0.399514	0.487574	-2.082679
H	-0.300052	0.942178	0.455888
C	-0.625869	-1.15228	0.744117
H	-1.713898	-1.007659	0.627396
H	-0.35116	-1.11293	1.800914
H	-0.299977	-2.110892	0.335348
N	-1.585388	0.911471	-1.62345
H	-1.881283	0.927905	-2.590989
H	-2.384588	0.561018	-0.969954
N	-0.56453	-1.331085	-2.042588
O	0.49122	-1.944076	-2.2204
O	-1.6822	-1.774597	-2.284062
F	-3.250927	0.0	0.0
