13

C	0.0	0.0	0.0
C	-0.39248	-0.094962	-1.486885
Br	1.935425	0.0	0.0
H	0.266497	0.559204	-2.062375
H	-0.347209	0.941972	0.417854
H	-0.365481	-0.840783	0.580125
N	-1.743029	0.086125	-1.86133
H	-2.446707	-0.053701	-1.052412
H	-1.871399	1.039676	-2.1752
N	0.03271	-1.487988	-1.977963
O	0.472538	-1.561974	-3.123413
O	-0.155902	-2.449284	-1.236641
H	-3.399862	0.0	0.0
