13

C	0.0	0.0	0.0
C	-0.450377	-0.037059	-1.454514
Br	1.935842	0.0	0.0
H	0.269983	0.484796	-2.099663
H	-0.349511	0.923587	0.459359
H	-0.368636	-0.867907	0.545129
N	-1.750214	0.397033	-1.627629
H	-2.047107	0.359671	-2.593861
H	-2.538852	0.173413	-0.905686
N	-0.198173	-1.522352	-1.980242
O	-0.442212	-2.478768	-1.253101
O	0.150849	-1.615693	-3.164729
H	-3.632289	0.0	0.0
