13

C	0.0	0.0	0.0
C	-0.625686	0.085454	-1.363898
Br	1.939816	0.0	0.0
H	-1.730655	0.205653	-1.017215
H	-0.340825	-0.918868	0.472613
H	-0.313361	0.846662	0.605197
N	-0.514726	-1.048327	-2.21803
H	-1.246754	-1.698244	-1.956973
H	0.390455	-1.496327	-2.139928
N	-0.18564	1.331529	-2.035205
O	-0.242059	2.36175	-1.352225
O	0.18138	1.305569	-3.211939
H	-2.888686	0.0	0.0
