12
Coordinates from ORCA-job run
  C   1.05964207437657     -0.36334577100014     -0.02885049679831
  C   -0.38736605920300     -0.55912148111453      0.41427265993017
  Cl  2.16168099557958     -1.39861696346799      0.93007430347929
  H   -0.46269964464930     -0.29907809351655      1.47330468401369
  H   1.18168501613892     -0.67194283207733     -1.07000901375889
  H   -0.61534325216455     -1.62453851648699      0.32421269094268
  C   1.47540028403526      1.03240303336349      0.09222536186472
  N   1.76620811204840      2.16605631156533      0.18605733839852
  C   -1.35456249905221      0.27297252862906     -0.42160004179986
  H   -2.38364758749433      0.06949266751536     -0.11924474668630
  H   -1.17370525902130      1.34245420515810     -0.29675395383750
  H   -1.26729218059404      0.03326491143218     -1.48468878574822
