17

C	-0.492158	0.054318	-1.447098
C	0.0	0.0	0.0
Br	0.292042	1.643008	-2.340077
H	1.107928	0.0	0.0
C	-0.022427	-1.113276	-2.195402
N	0.233921	-2.074753	-2.822299
C	-2.008499	0.1613	-1.598757
H	-2.287414	0.215781	-2.653174
H	-2.36185	1.057935	-1.087506
H	-2.481881	-0.717483	-1.151984
C	-0.358782	-1.31015	0.706186
H	0.068797	-2.148195	0.15075
H	-1.433604	-1.465777	0.840263
H	0.122883	-1.298214	1.687586
C	-0.504009	1.139226	0.74161
N	-0.906569	2.046988	1.374476
H	2.627495	0.0	0.0
