17

C	-0.469134	0.196218	-1.444593
C	0.0	0.0	0.0
Br	0.231334	1.92497	-2.121346
H	1.110716	0.0	0.0
C	0.093756	-0.841374	-2.311414
N	0.433808	-1.707619	-3.029906
C	-1.985593	0.22527	-1.622624
H	-2.407945	1.022871	-1.00946
H	-2.407405	-0.733038	-1.306304
H	-2.248097	0.39868	-2.668097
C	-0.339609	-1.387978	0.550972
H	-1.411715	-1.578468	0.657661
H	0.137441	-1.47881	1.530396
H	0.109192	-2.148742	-0.092554
C	-0.551827	1.038874	0.844498
N	-1.028192	1.85623	1.545958
H	2.629327	0.0	0.0
