18

C	0.0	0.0	0.0
C	-0.427498	-0.226547	-1.470495
Cl	1.848307	0.0	0.0
H	0.354822	-0.779587	-1.999321
N	-0.547306	1.198376	0.501084
H	-0.573472	1.220329	1.509727
H	-0.103384	2.020977	0.124039
C	-0.438047	-1.166264	0.868949
H	-1.526442	-1.162691	0.94297
H	0.00617	-1.049482	1.861584
H	-0.107973	-2.113259	0.445381
N	-0.393129	1.138047	-2.243823
O	0.483442	1.958148	-1.973542
O	-1.198743	1.2575	-3.159684
N	-1.655717	-0.888656	-1.565273
H	-1.936962	-1.012208	-2.527033
H	-2.431046	-0.452863	-1.045394
Cl	-4.324709	0.0	0.0
