18

C	0.0	0.0	0.0
C	-0.507455	-0.189136	-1.455151
Cl	1.790513	0.0	0.0
H	-1.585711	-0.360044	-1.368192
N	-0.49172	1.297725	0.408405
H	-0.225784	1.442073	1.377618
H	-1.515451	1.211513	0.393184
C	-0.427152	-1.136486	0.922266
H	-0.099974	-0.900171	1.93926
H	0.007897	-2.091402	0.629841
H	-1.516706	-1.202773	0.89855
N	0.06991	-1.449576	-2.037759
O	-0.469424	-2.511816	-1.726962
O	1.050019	-1.34698	-2.771565
N	-0.24694	0.885389	-2.363018
H	-0.844414	1.654006	-2.085124
H	0.714357	1.189803	-2.255409
Cl	-3.652553	0.0	0.0
