18

C	0.0	0.0	0.0
C	-0.430224	0.043656	-1.482197
Cl	1.831361	0.0	0.0
H	0.316878	-0.468086	-2.097368
N	-0.575607	1.059188	0.725463
H	-0.599489	0.88856	1.719096
H	-0.187522	1.961062	0.497756
C	-0.419917	-1.325855	0.618065
H	-0.070888	-2.162333	0.013597
H	0.02503	-1.404801	1.614202
H	-1.507791	-1.361064	0.688051
N	-0.312544	1.50522	-2.054706
O	0.415423	2.338484	-1.515163
O	-0.928615	1.696917	-3.099397
N	-1.697243	-0.517757	-1.672682
H	-2.442363	-0.159097	-1.061208
H	-1.992517	-0.457528	-2.635841
Cl	-4.396412	0.0	0.0
