18

C	0.0	0.0	0.0
C	-0.518244	-0.140991	-1.435475
Cl	1.861686	0.0	0.0
H	-1.607883	-0.242356	-1.323567
N	-0.489098	1.229938	0.449799
H	-0.292858	1.420459	1.418903
H	-0.27942	1.993957	-0.173395
C	-0.439996	-1.110691	0.931054
H	-0.119664	-0.861267	1.946289
H	-0.00716	-2.069575	0.656709
H	-1.531913	-1.151665	0.891613
N	-0.024983	-1.443056	-2.05887
O	-0.533995	-2.486717	-1.660601
O	0.844438	-1.372122	-2.929274
N	-0.174999	0.992805	-2.227061
H	-0.821026	1.081882	-2.999088
H	0.764451	0.884597	-2.587976
Cl	-3.857093	0.0	0.0
