15
Coordinates from ORCA-job run
  C   -0.65880016044282      0.20786137806870     -0.02481511058664
  C   0.77616466033696     -0.31965792853982      0.10604950648704
  Cl  -0.97644006275998      0.56953998026856     -1.78158436149188
  H   0.87462198231306     -0.66247852034719      1.13915809770424
  N   -1.67682991070464     -0.86088863553025      0.35887843664964
  O   -2.84673399017033     -0.50755115174179      0.33707563897795
  O   -1.24358138638323     -1.95413074822665      0.70610266459428
  N   -0.85525844317097      1.27372283441491      0.85392914473080
  H   -0.08809738556572      1.93074615165172      0.77983242954449
  H   -1.75926975216037      1.71110120271309      0.73266321002039
  N   1.67707394136345      0.80799078173962     -0.09571077840094
  H   2.58956084423017      0.59010750374793      0.28463009149324
  H   1.78586469139141      0.98962830491618     -1.08719638442325
  C   1.04096181250796     -1.45724933709255     -0.78746292785052
  N   1.36176315921505     -2.31774181604245     -1.51954965744885
