15
Coordinates from ORCA-job run
  C   -0.69399873159744      0.33577737231443     -0.12577859185308
  C   0.71366471524980     -0.28503322274808      0.05464060395397
  Cl  -0.87552726412802      0.86178320777247     -1.79552292734047
  H   0.75272267971676     -0.61475745502450      1.09723430641654
  N   -1.69378450844915     -0.78429054225748      0.19496969853894
  O   -1.65454313880752     -1.13544787094666      1.37318371407198
  O   -2.40118345288385     -1.24813911968134     -0.68190156463988
  N   -0.99292442749451      1.40791284820418      0.76024393501104
  H   -0.25630025506292      2.09982345098869      0.67494568059244
  H   -1.01086762772447      1.05431349455037      1.71085265088876
  N   1.70193761445722      0.76090359589371     -0.13226951941793
  H   1.86339395551078      0.92140672340424     -1.11950816273484
  H   2.58039222272415      0.48998954757380      0.29108503393881
  C   0.89055118578729     -1.46808104972146     -0.80376997374609
  N   1.07846703270189     -2.39716098032238     -1.49840488368019
