15
Coordinates from ORCA-job run
  C   -0.67297121962033      0.36853435859070     -0.14643403257508
  C   0.69683755639608     -0.31908299974233      0.07687122404681
  Cl  -0.77614396576190      0.90356856499544     -1.82017511426508
  H   0.68730152637224     -0.65204788232705      1.11910059347639
  N   -1.73478244191585     -0.70266068292791      0.14008929577204
  O   -2.43366414224829     -1.13320709298358     -0.76024270454843
  O   -1.75068482730627     -1.05495618750502      1.31848915560638
  N   -0.94887900147146      1.45330926652928      0.73142166442987
  H   -1.01217120684383      1.10136131948356      1.68071663287169
  H   -0.17935676877455      2.11092544805930      0.66952403071674
  N   1.73952145652175      0.67832243069163     -0.07595909890965
  H   2.59060027324616      0.36426969572662      0.37272277830015
  H   1.93867727947174      0.83335684703018     -1.05707381637269
  C   0.84408600375763     -1.50832776165007     -0.77870172692080
  N   1.01062947817689     -2.44436532397076     -1.46934888162833
