15
Coordinates from ORCA-job run
  C   -0.57599969089061      0.45886635365597      0.09834665082175
  C   0.75476020610336      0.09980376006360     -0.56960211697373
  Cl  -0.90927208174594      2.22082434631438     -0.15675836780975
  H   0.71578978267385      0.44751794159245     -1.60337509038409
  N   -1.67581584405650     -0.27075635723548     -0.67868513362111
  O   -1.60196939144670     -0.21316168541915     -1.89498957735612
  O   -2.55275549806505     -0.81332611308722     -0.01937283864397
  N   -0.60065582795829      0.02976994664635      1.43466095304117
  H   -0.03880922299776      0.63418272075313      2.02164838775895
  H   -1.54710597885876     -0.03538846980190      1.78751719328484
  N   0.86186989854723     -1.34269378472119     -0.55511187483438
  H   1.61761437754556     -1.65596532350651     -1.14997419401995
  H   1.00885996881696     -1.67450285961438      0.38959446707238
  C   1.83460030005971      0.80925574838974      0.14311644884479
  N   2.70988900227294      1.30557377597022      0.74998509281923
