15
Coordinates from ORCA-job run
  C   -0.61287412351311      0.45885037254125      0.05448804273457
  C   0.89752939895136      0.19003997041803     -0.08868689360894
  Cl  -1.08476613080810      1.76782450180272     -1.09349052996344
  H   1.36695736906827      1.09822130360796      0.30902730004285
  N   -1.43503594951723     -0.75896978965232     -0.36646369379663
  O   -0.87188621678500     -1.62264430679558     -1.02914448542184
  O   -2.60583117454176     -0.76188790489915     -0.01383118883562
  N   -0.94323564533812      0.70156299608934      1.39921121393265
  H   -1.94651192928095      0.77074897145667      1.52010965868635
  H   -0.49035856843210      1.53675564154413      1.74700041451971
  N   1.34643553886281      0.03940698366314     -1.45201668234874
  H   1.11967561638050     -0.88363219231989     -1.79551304610154
  H   2.34674991560685      0.17821632831001     -1.50197805996557
  C   1.26689026014405     -0.92013002831988      0.81355373321700
  N   1.64626163920253     -1.79636284744642      1.49773421690921
