15
Coordinates from ORCA-job run
  C   -0.64940188792835      0.23626458223625     -0.02995884517021
  C   0.76001728915265     -0.35425459052078      0.11061137948032
  Cl  -0.92929138490742      0.63354823572665     -1.78535936605031
  H   0.83125355394792     -0.71510541705544      1.13983046368561
  N   -1.71698190447124     -0.79265816078842      0.32720301211465
  O   -1.33514465940249     -1.90786824599705      0.66491679549546
  O   -2.87028102146404     -0.38891363132241      0.29641013045618
  N   -0.81053523022355      1.29818985161054      0.86031585510000
  H   -0.01449801971701      1.92178125565936      0.80427805316948
  H   -1.69317746991240      1.77613651848211      0.73488840766804
  N   1.71092844354117      0.73613176528250     -0.06438066251042
  H   2.60759947214517      0.47517989724557      0.32629025221238
  H   1.84188761583621      0.92562224030775     -1.05166273950442
  C   0.98657822392654     -1.48992942543102     -0.79583184589808
  N   1.27904697947685     -2.35312487543561     -1.53655089024867
