15
Coordinates from ORCA-job run
  C   -0.54693441830727      0.48424593218267      0.13610281424368
  C   0.78579921682848      0.11596481460882     -0.52247095624176
  Cl  -0.74672666480666      2.28309037025334      0.10197348863894
  H   0.81966279865722      0.59447557319411     -1.50283448505572
  N   -1.65624514929394     -0.05731514008698     -0.77119798768748
  O   -1.52177538385519      0.15105129210077     -1.96563797079115
  O   -2.59756546667377     -0.61521578235327     -0.22280854379080
  N   -0.66382418019344     -0.11044206508842      1.40274122617797
  H   -0.09638344244211      0.37505451788807      2.08693025211096
  H   -1.62912863184287     -0.15637667913192      1.70407447635372
  N   0.79369781532803     -1.32046190736602     -0.69236584469137
  H   1.55476472572505     -1.60990632065055     -1.29252993768630
  H   0.87184292984498     -1.77986656945709      0.20590505674854
  C   1.87709886470784      0.64751653248917      0.31670510905141
  N   2.75471698632364      0.99718543141730      1.01541330261935
