15
Coordinates from ORCA-job run
  C   -0.52307057202202      0.34350680219434     -0.11401672847378
  C   0.83452182535503     -0.39586173415152      0.04367217285131
  Cl  -0.77650761699427      0.85201329048891     -1.77156219455656
  H   0.88892853811869     -0.67393672934179      1.10328813222606
  N   -1.61584772569922     -0.69637638442302      0.27524885642610
  O   -1.60393030750303     -0.95743318467869      1.47826108330648
  O   -2.34096879691795     -1.19029001053555     -0.57191395173452
  N   -0.53528890674506      1.46604488584399      0.75518523771921
  H   -0.59979396368798      1.14876047258347      1.71661687638264
  H   -1.30957253526295      2.08569686959233      0.54921121526384
  N   1.99279221312687      0.39770490088652     -0.28566431460498
  H   2.00788537817001      0.59951147521970     -1.27824177196374
  H   1.93805016771155      1.27599275475026      0.21735033548033
  C   0.82486399341408     -1.63485194253256     -0.73934091156670
  N   0.81793830893627     -2.61948146589639     -1.37809403675569
