15
Coordinates from ORCA-job run
  C   -0.61734492653220      0.28896163238493     -0.15729067900629
  C   0.76899420720953     -0.38857414235919      0.07456887114483
  Cl  -0.75194166623012      0.79958650014585     -1.83059098481215
  H   0.75629467826575     -0.71791784394587      1.11958388537646
  N   -1.66581129015713     -0.78475903008916      0.16760868157734
  O   -2.37248217430486     -1.25019157963997     -0.70884723747925
  O   -1.66043420889538     -1.09507810725684      1.35782845786208
  N   -0.91928291032180      1.38780277178962      0.70046570741886
  H   -0.40315784904772      2.21641633886897      0.44155442391023
  H   -0.77447195684653      1.14425372556612      1.67224014013262
  N   1.91570765784572      0.46383984420410     -0.11874893769850
  H   1.92885629100714      1.21706141158209      0.55553351372349
  H   1.94345836701297      0.83986683769536     -1.05797726536449
  C   0.88565955999397     -1.58512439628335     -0.76674458698106
  N   0.96595622100066     -2.53614396266267     -1.45018398980417
