15
Coordinates from ORCA-job run
  C   -0.61578356579199      0.60941903495150      0.07568146735391
  C   0.86952844033644      0.18517185638642     -0.10308127006696
  Cl  -0.83458744856476      2.17820947488306     -0.67903899959312
  H   1.44972777257820      1.08775207287034      0.11072563828269
  N   -1.45924427636055     -0.44222341349782     -0.66589231301454
  O   -2.33717500229580     -0.10430924394346     -1.43587297226398
  O   -1.16626645929111     -1.59099413413672     -0.33559160925790
  N   -1.13881365831270      0.63501000245722      1.40058821446553
  H   -0.86629584393198     -0.18982954499417      1.92230631869479
  H   -0.87250428632748      1.47646822161049      1.89203149083324
  N   1.12061726616494     -0.20440811474250     -1.47340562652040
  H   2.08699673420052     -0.04650709997540     -1.72332024091987
  H   0.90512617228221     -1.18412026517933     -1.61109875077899
  C   1.25717334170788     -0.81299656410625      0.91039188276515
  N   1.60350081360617     -1.59564228258337      1.71557677002044
