15
Coordinates from ORCA-job run
  C   -0.56757331489524      0.58190147824869      0.01412318096290
  C   0.78694798498873      0.05876856865790     -0.56466752116195
  Cl  -0.83079535470732      2.22395865046228     -0.59845539491951
  H   0.78578309850201      0.26850424872693     -1.63756309743121
  N   -1.60601631036661     -0.35414228960868     -0.61486834231700
  O   -2.19994740701122     -1.11878213574176      0.13655530694322
  O   -1.67969680735157     -0.33142498140791     -1.83630929664321
  N   -0.74734748078630      0.56156110171199      1.41330596829479
  H   -0.85249245073059     -0.37121391228054      1.78461878525719
  H   -0.03852496514128      1.09914209071074      1.89372967634703
  N   1.03266108321159     -1.34957129080914     -0.37332218209783
  H   0.43195927314749     -1.92121692817209     -0.95149418697365
  H   0.96380643433383     -1.62956286392215      0.59589351511019
  C   1.85157142961345      0.83616337689718      0.07936672960136
  N   2.66966478719301      1.44491488652656      0.66108685902769
