15
Coordinates from ORCA-job run
  C   -0.64230712703769      0.25341233118941      0.04117060256197
  C   0.75303489276384     -0.38449262215589      0.01430783846110
  Cl  -0.99601293803520      0.92361730866858     -1.61505404292463
  H   0.86287206153513     -0.90121876099659      0.97113650286006
  N   -1.72267561017500     -0.79329003192914      0.29335511538929
  O   -2.86281272841524     -0.36286345617238      0.38692365660868
  O   -1.35982476200082     -1.95574338128153      0.43595661047484
  N   -0.72621441014279      1.16860011464569      1.09092180323856
  H   0.08572782173095      1.77402093395851      1.08811382780099
  H   -1.59784838258920      1.68184724314523      1.08569500619759
  N   1.72794474787514      0.69697187265065     -0.04331719175355
  H   2.63437518006320      0.35825552680172      0.25392040348314
  H   1.81539019279787      1.03294530046314     -0.99581967848371
  C   0.89922468998426     -1.37242550621991     -1.06513898449790
  N   1.13012637164556     -2.11863687276748     -1.94217146941644
