15
Coordinates from ORCA-job run
  C   -0.52363083201816      0.59623891645310      0.14117986507799
  C   0.93271332431110      0.18171696912745     -0.14214779803527
  Cl  -0.90544711556236      2.08457169774311     -0.72273712591590
  H   1.51043409580702      1.00269425140892      0.29354878124058
  N   -1.50742256701351     -0.47428472253800     -0.42213688470824
  O   -1.05323108553918     -1.37051307104047     -1.12776031977882
  O   -2.67365821912026     -0.34832969303586     -0.07557217946917
  N   -0.72424019954799      0.78863644308149      1.52519940931940
  H   -0.55291091536151     -0.06383627014140      2.04771010781846
  H   -1.66354873895564      1.11962369100108      1.70811431757343
  N   1.26055566299423      0.09732286004303     -1.54390063164205
  H   2.25887153210983      0.18737742491137     -1.67356636858537
  H   0.94267686863460     -0.77724921924534     -1.93668227238593
  C   1.22955231901386     -1.02965602361009      0.65193661256490
  N   1.46928587024797     -1.99431325415839      1.27881448692599
