15
Coordinates from ORCA-job run
  C   -0.63552202783663      0.37192858906416      0.10176854075691
  C   0.74885743443401      0.22976008726341     -0.53793213307911
  Cl  -1.19730200703722      2.08414361157759     -0.07885571550166
  H   0.69096187390393      0.62345163134911     -1.55421258859796
  N   -1.60541157568616     -0.45648128162738     -0.74628067264583
  O   -2.41868352843685     -1.14485900850709     -0.14384186821102
  O   -1.50709068879986     -0.32623282236013     -1.95522245386349
  N   -0.63753944693638     -0.12657663642550      1.41394669090420
  H   -0.17845977967340      0.51539101086926      2.04848209845880
  H   -1.57537805364349     -0.33702775220902      1.73110272450506
  N   1.04997085908663     -1.18407777190869     -0.59054709072576
  H   1.85588359297665     -1.36105804339897     -1.17572218213128
  H   1.21737418357216     -1.54265914423844      0.34089730146088
  C   1.70340138846643      1.03890214816287      0.24413941841967
  N   2.48693777561019      1.61539538238881      0.90327793025059
