15
Coordinates from ORCA-job run
  C   -0.64106851242592      0.35992083124640      0.10662155984109
  C   0.70403112725109      0.19710556789683     -0.60730748886913
  Cl  -1.27781979554246      2.02661189863480     -0.20447448947926
  H   0.56667823398090      0.48298021610151     -1.65163107310498
  N   -1.63082231386867     -0.58030262283272     -0.58784048378998
  O   -2.37674313221629     -1.22986014457812      0.13315394543328
  O   -1.61530111709683     -0.56977298739133     -1.80759158150592
  N   -0.54055673002235     -0.00247802967820      1.45912180979576
  H   -0.06834479404699      0.71578807342145      1.99454796049024
  H   -1.44766811462304     -0.21022758959428      1.85715878455826
  N   1.05504953486125     -1.20448824651720     -0.53852332636448
  H   1.82920112517215     -1.41451756351235     -1.15476364848523
  H   1.29312446582635     -1.46074543964555      0.41112290473136
  C   1.67486504628864      1.11171548414484      0.02398006540644
  N   2.47637497646217      1.77727055230392      0.56742506134254
