15
Coordinates from ORCA-job run
  C   -0.56132568232471      0.52933132559169      0.23559028216060
  C   0.83584704778593      0.22955071423029     -0.32351272318844
  Cl  -0.82435185733862      2.27606042779169      0.36020644036060
  H   0.95067214584454      0.79438628011936     -1.25309135473925
  N   -1.57367123750711      0.06058744876106     -0.86571825453820
  O   -2.67188410809118     -0.29668238892373     -0.46340993586051
  O   -1.20381274399022      0.09881422501642     -2.03508604107707
  N   -0.76646921526516     -0.10625079701566      1.46000960042028
  H   -1.71598132486587      0.00541451720645      1.79026452856265
  H   -0.52623316082287     -1.08741494174967      1.36482576695029
  N   0.92927342045676     -1.21861167353709     -0.50854210759015
  H   0.72949521614162     -1.44872144412006     -1.47370125304048
  H   1.85260330753223     -1.55999867053289     -0.27713942641798
  C   1.84373522005000      0.69445617066865      0.62999586855330
  N   2.70110297239465      1.02907880649350      1.35830860944434
