15
Coordinates from ORCA-job run
  C   -0.65325493198287      0.22639057438151     -0.00435468345157
  C   0.76971243337907     -0.34147814414515      0.08204462311386
  Cl  -1.01742646241482      0.59176311110301     -1.75112308407943
  H   0.89151700662431     -0.68381592038152      1.11278573714325
  N   -1.68804981077569     -0.81174247887607      0.41671193901499
  O   -1.27476025588697     -1.91553311356688      0.75468890534643
  O   -2.84756795177834     -0.42533902281847      0.43111525390093
  N   -0.79065530195822      1.30031211649594      0.87614223925919
  H   -1.68546584228445      1.76261067845500      0.78098061336881
  H   -0.00846548375602      1.93536352571865      0.77256371039939
  N   1.69538776998922      0.75938768705018     -0.15335597290505
  H   1.77897298574918      0.93325769440291     -1.14864097159539
  H   2.61246949455425      0.51716879113966      0.20006283241079
  C   0.97278288013606     -1.48865584745883     -0.81513715880535
  N   1.24480347040529     -2.35968965149994     -1.55448398312086
