15
Coordinates from ORCA-job run
  C   -0.47665360840603      0.65064163842503      0.00220332811207
  C   0.79515334791037     -0.06744420941439     -0.46829663043290
  Cl  -0.57875062211567      2.27105026843046     -0.70473646731660
  H   0.81751865166631     -0.02367931252239     -1.56098944797715
  N   -1.67377280816643     -0.13100237387132     -0.64108719129215
  O   -2.72633063054173     -0.10095694789341     -0.01900332866060
  O   -1.47739346288820     -0.69534186054009     -1.71291079339419
  N   -0.55017783437588      0.69548307904898      1.39435102005944
  H   -1.42955898205415      1.07922861708725      1.71463196240484
  H   -0.40523850326031     -0.23950104215316      1.76068939801676
  N   0.74501186104234     -1.43142171203097      0.05775928041019
  H   1.66218287058874     -1.75099070895847      0.33930925727105
  H   0.38721195502064     -2.05493038204392     -0.65478246993210
  C   1.96546270104451      0.64285606066053      0.04862650255831
  N   2.94433506453550      1.15700888577587      0.44223558017305
