15
Coordinates from ORCA-job run
  C   -0.51946191197980      0.60270105186474      0.11936270466533
  C   0.92737609068431      0.11764696420749     -0.10469339958764
  Cl  -0.76745050044652      2.08715101185608     -0.80330763562034
  H   1.55089688496226      0.98735174219528      0.14965436042827
  N   -1.44404872851060     -0.50447516216076     -0.47851411862897
  O   -1.96810200818764     -0.35333134230170     -1.56732448627168
  O   -1.52949652420662     -1.48598875282412      0.25416571605011
  N   -0.76624572824965      0.84205215936239      1.48830187535483
  H   -0.75870111859188     -0.03136825529672      2.00378292653337
  H   -1.64931783143002      1.31729029585789      1.62846988295071
  N   1.07517934437693     -0.38480612557773     -1.45858486819499
  H   1.02767322807919      0.38168025417115     -2.11920009585254
  H   1.96672611022571     -0.85047676098913     -1.56822504042789
  C   1.26503304729467     -0.94388365739033      0.84956837878516
  N   1.58893964597967     -1.78154342297455      1.60554379981628
