15
Coordinates from ORCA-job run
  C   -0.49257789297004      0.63469363112159      0.07292230388755
  C   0.77579339390509     -0.00747179379769     -0.50419605821669
  Cl  -0.66765612471670      2.30115721081073     -0.49990792516298
  H   0.75019343657012      0.12158648909799     -1.59006579814692
  N   -1.69544135824982     -0.12988138326175     -0.58075650704575
  O   -1.53106518290206     -0.60150660116036     -1.70162255704019
  O   -2.72031011923005     -0.18065227691657      0.08469480172629
  N   -0.50759094722125      0.56929264864931      1.46598962822808
  H   -0.32202874402322     -0.38647274014703      1.75145337579756
  H   -1.38255176545265      0.90007503383752      1.85093754053835
  N   0.78318956153667     -1.40892404942326     -0.08602136863176
  H   0.41179898458402     -1.98576715179479     -0.83012877729129
  H   1.71876120672676     -1.72304510158823      0.13420665989770
  C   1.94867130364668      0.69393524042115      0.01894432410879
  N   2.92981424779646      1.20298084415138      0.41355035735125
