15
Coordinates from ORCA-job run
  C   -0.52192621639225      0.52844339768635      0.09654527717294
  C   0.85160432332923      0.16931141751360     -0.51204358487477
  Cl  -0.92015634108246      2.21874970150025     -0.23153303353523
  H   0.81214315407465      0.45185094922473     -1.56638750393179
  N   -1.57447842908818     -0.30000316009686     -0.71964881218889
  O   -2.48535476173002     -0.80697943424075     -0.07618105289616
  O   -1.40532368151086     -0.38201416244409     -1.93067718984443
  N   -0.58651292925425      0.27296655685326      1.47357492277179
  H   -0.45930441111382     -0.71317144610324      1.66301224797250
  H   -1.46856830447572      0.57107904820087      1.86951956972406
  N   1.21709483398518     -1.22511181084107     -0.43312537679085
  H   1.34631099047424     -1.55996967244152      0.51065952861888
  H   0.60140570735771     -1.82219921729083     -0.96629908249296
  C   1.87612639974966      0.98473141076553      0.14932725018644
  N   2.71693966567689      1.61331642171377      0.67325684010848
