15
Coordinates from ORCA-job run
  C   -0.63269126249594      0.54471357586684      0.03239087111794
  C   0.86334736357726      0.13986380508037     -0.04785918858288
  Cl  -0.82856560970922      2.01660833232555     -0.92308692313709
  H   1.41871881905696      1.04317596915129      0.25251675981407
  N   -1.42224322722104     -0.60666231064914     -0.60686526530074
  O   -1.47701715539590     -1.59640492326289      0.11587817592581
  O   -1.88909979284619     -0.48216016201145     -1.72369002304681
  N   -1.19035279411202      0.74674153658390      1.32432895384238
  H   -1.07890513068780     -0.08218296860058      1.89615388657178
  H   -0.79094911508323      1.55782735794196      1.77687405186327
  N   1.17198717679927     -0.35802664876047     -1.37563145677929
  H   1.12949159520523      0.39810955551810     -2.04817255868099
  H   2.09907737595357     -0.76294948993918     -1.40007854576116
  C   1.16696556917418     -0.88875471209559      0.95227103594204
  N   1.46123618778487     -1.67089891714873      1.77697022621168
