15
Coordinates from ORCA-job run
  C   -0.66346813846378      0.19546082296405      0.00665108284715
  C   0.78632210983025     -0.30348306894929      0.06967303201274
  Cl  -1.08342670511481      0.51092390988814     -1.73715437577269
  H   0.94836683616291     -0.62054921672785      1.10298538735402
  N   -1.63844540462615     -0.88132589632074      0.47042401872220
  O   -1.16612019166946     -1.95754857029229      0.82003360849180
  O   -2.81438826838157     -0.54950014469646      0.50435904107799
  N   -0.83097238465347      1.27840688341067      0.87102629360375
  H   -0.08237935070398      1.94729759669818      0.73610517922991
  H   -1.74820683722275      1.69723336024716      0.78871032412112
  N   1.65341391300289      0.83468780062150     -0.20720498138510
  H   1.71018413596303      0.99124187251965     -1.20724841141507
  H   2.58734962009615      0.64520151505870      0.13394610396533
  C   1.02255290699457     -1.45694247291644     -0.81120765683061
  N   1.31821775878616     -2.32910439150497     -1.54009864602254
