15
Coordinates from ORCA-job run
  C   -0.66077216352568      0.20387168651435     -0.00651448552782
  C   0.77868579121342     -0.32081909892516      0.07830198194527
  Cl  -0.98610638699161      0.70282838017657     -1.72804098503524
  H   0.88297938588062     -0.74459290124761      1.08035709124903
  N   -1.66927003566057     -0.90060582256403      0.29199971972439
  O   -1.22642582069197     -2.01462463301376      0.54936771721750
  O   -2.84193289788324     -0.55592297111028      0.30098747180067
  N   -0.86305200102804      1.19407898641541      0.95539616519350
  H   -0.10077233218752      1.86055443250938      0.93259098687051
  H   -1.77043848396445      1.63321851804166      0.87153544206781
  N   1.67013401395859      0.82653074271618     -0.03429890696077
  H   1.77394045202453      1.08878094972795     -1.00811313112310
  H   2.58566071238682      0.58614215048108      0.32454530011054
  C   1.05004043021131     -1.38098208332504     -0.90402633047777
  N   1.37632933625777     -2.17745833639670     -1.70308803705453
